data_image0
_cell_length_a       35.631
_cell_length_b       35.631
_cell_length_c       17.334
_cell_angle_alpha    90
_cell_angle_beta     90
_cell_angle_gamma    120

_symmetry_space_group_name_H-M    "P 1"
_symmetry_int_tables_number       1

loop_
  _symmetry_equiv_pos_as_xyz
  'x, y, z'

loop_
  _atom_site_label
  _atom_site_occupancy
  _atom_site_fract_x
  _atom_site_fract_y
  _atom_site_fract_z
  _atom_site_thermal_displace_type
  _atom_site_B_iso_or_equiv
  _atom_site_type_symbol
  O1       1.0000 0.88915  0.18781  0.74710  Biso   1.000  O
  O2       1.0000 0.89830  0.17809  0.61850  Biso   1.000  O
  C1       1.0000 0.91105  0.18825  0.68620  Biso   1.000  C
  C2       1.0000 0.95810  0.20229  0.70600  Biso   1.000  C
  C3       1.0000 0.98593  0.20573  0.64930  Biso   1.000  C
  H1       1.0000 0.97540  0.19840  0.59800  Biso   1.000  H
  C4       1.0000 0.02933  0.21965  0.66410  Biso   1.000  C
  H2       1.0000 0.04760  0.21990  0.62390  Biso   1.000  H
  C5       1.0000 0.04516  0.23260  0.73460  Biso   1.000  C
  C6       1.0000 0.01775  0.22893  0.79500  Biso   1.000  C
  H3       1.0000 0.02840  0.23610  0.84630  Biso   1.000  H
  C7       1.0000 0.97342  0.21418  0.77800  Biso   1.000  C
  H4       1.0000 0.95450  0.21270  0.81800  Biso   1.000  H
  C8       1.0000 0.09223  0.25229  0.75390  Biso   1.000  C
  C9       1.0000 0.11250  0.29108  0.79190  Biso   1.000  C
  H5       1.0000 0.09590  0.30440  0.80450  Biso   1.000  H
  H6       1.0000 0.05710  0.15910  0.77580  Biso   1.000  H
  O3       1.0000 0.55582  0.52114  0.08043  Biso   1.000  O
  O4       1.0000 0.56497  0.51142  0.95183  Biso   1.000  O
  C10      1.0000 0.57772  0.52158  0.01953  Biso   1.000  C
  C11      1.0000 0.62477  0.53562  0.03933  Biso   1.000  C
  C12      1.0000 0.65260  0.53906  0.98263  Biso   1.000  C
  H7       1.0000 0.64207  0.53173  0.93133  Biso   1.000  H
  C13      1.0000 0.69600  0.55298  0.99743  Biso   1.000  C
  H8       1.0000 0.71427  0.55323  0.95723  Biso   1.000  H
  C14      1.0000 0.71183  0.56593  0.06793  Biso   1.000  C
  C15      1.0000 0.68442  0.56226  0.12833  Biso   1.000  C
  H9       1.0000 0.69507  0.56943  0.17963  Biso   1.000  H
  C16      1.0000 0.64009  0.54751  0.11133  Biso   1.000  C
  H10      1.0000 0.62117  0.54603  0.15133  Biso   1.000  H
  C17      1.0000 0.75890  0.58562  0.08723  Biso   1.000  C
  C18      1.0000 0.77917  0.62441  0.12523  Biso   1.000  C
  H11      1.0000 0.76257  0.63773  0.13783  Biso   1.000  H
  H12      1.0000 0.72377  0.49243  0.10913  Biso   1.000  H
  O5       1.0000 0.22248  0.85448  0.41377  Biso   1.000  O
  O6       1.0000 0.23163  0.84476  0.28517  Biso   1.000  O
  C19      1.0000 0.24438  0.85492  0.35287  Biso   1.000  C
  C20      1.0000 0.29143  0.86896  0.37267  Biso   1.000  C
  C21      1.0000 0.31926  0.87240  0.31597  Biso   1.000  C
  H13      1.0000 0.30873  0.86507  0.26467  Biso   1.000  H
  C22      1.0000 0.36266  0.88632  0.33077  Biso   1.000  C
  H14      1.0000 0.38093  0.88657  0.29057  Biso   1.000  H
  C23      1.0000 0.37849  0.89927  0.40127  Biso   1.000  C
  C24      1.0000 0.35108  0.89560  0.46167  Biso   1.000  C
  H15      1.0000 0.36173  0.90277  0.51297  Biso   1.000  H
  C25      1.0000 0.30675  0.88085  0.44467  Biso   1.000  C
  H16      1.0000 0.28783  0.87937  0.48467  Biso   1.000  H
  C26      1.0000 0.42556  0.91896  0.42057  Biso   1.000  C
  C27      1.0000 0.44583  0.95775  0.45857  Biso   1.000  C
  H17      1.0000 0.42923  0.97107  0.47117  Biso   1.000  H
  H18      1.0000 0.39043  0.82577  0.44247  Biso   1.000  H
  O7       1.0000 0.81219  0.70134  0.74710  Biso   1.000  O
  O8       1.0000 0.82191  0.72021  0.61850  Biso   1.000  O
  C28      1.0000 0.81175  0.72280  0.68620  Biso   1.000  C
  C29      1.0000 0.79771  0.75581  0.70600  Biso   1.000  C
  C30      1.0000 0.79427  0.78020  0.64930  Biso   1.000  C
  H19      1.0000 0.80160  0.77700  0.59800  Biso   1.000  H
  C31      1.0000 0.78035  0.80968  0.66410  Biso   1.000  C
  H20      1.0000 0.78010  0.82770  0.62390  Biso   1.000  H
  C32      1.0000 0.76740  0.81256  0.73460  Biso   1.000  C
  C33      1.0000 0.77107  0.78882  0.79500  Biso   1.000  C
  H21      1.0000 0.76390  0.79230  0.84630  Biso   1.000  H
  C34      1.0000 0.78582  0.75924  0.77800  Biso   1.000  C
  H22      1.0000 0.78730  0.74180  0.81800  Biso   1.000  H
  C35      1.0000 0.74771  0.83994  0.75390  Biso   1.000  C
  C36      1.0000 0.70892  0.82142  0.79190  Biso   1.000  C
  H23      1.0000 0.69560  0.79150  0.80450  Biso   1.000  H
  H24      1.0000 0.84090  0.89800  0.77580  Biso   1.000  H
  O9       1.0000 0.47886  0.03467  0.08043  Biso   1.000  O
  O10      1.0000 0.48858  0.05354  0.95183  Biso   1.000  O
  C37      1.0000 0.47842  0.05613  0.01953  Biso   1.000  C
  C38      1.0000 0.46438  0.08914  0.03933  Biso   1.000  C
  C39      1.0000 0.46094  0.11353  0.98263  Biso   1.000  C
  H25      1.0000 0.46827  0.11033  0.93133  Biso   1.000  H
  C40      1.0000 0.44702  0.14301  0.99743  Biso   1.000  C
  H26      1.0000 0.44677  0.16103  0.95723  Biso   1.000  H
  C41      1.0000 0.43407  0.14589  0.06793  Biso   1.000  C
  C42      1.0000 0.43774  0.12215  0.12833  Biso   1.000  C
  H27      1.0000 0.43057  0.12563  0.17963  Biso   1.000  H
  C43      1.0000 0.45249  0.09257  0.11133  Biso   1.000  C
  H28      1.0000 0.45397  0.07513  0.15133  Biso   1.000  H
  C44      1.0000 0.41438  0.17327  0.08723  Biso   1.000  C
  C45      1.0000 0.37559  0.15475  0.12523  Biso   1.000  C
  H29      1.0000 0.36227  0.12483  0.13783  Biso   1.000  H
  H30      1.0000 0.50757  0.23133  0.10913  Biso   1.000  H
  O11      1.0000 0.14552  0.36801  0.41377  Biso   1.000  O
  O12      1.0000 0.15524  0.38688  0.28517  Biso   1.000  O
  C46      1.0000 0.14508  0.38947  0.35287  Biso   1.000  C
  C47      1.0000 0.13104  0.42248  0.37267  Biso   1.000  C
  C48      1.0000 0.12760  0.44687  0.31597  Biso   1.000  C
  H31      1.0000 0.13493  0.44367  0.26467  Biso   1.000  H
  C49      1.0000 0.11368  0.47635  0.33077  Biso   1.000  C
  H32      1.0000 0.11343  0.49437  0.29057  Biso   1.000  H
  C50      1.0000 0.10073  0.47923  0.40127  Biso   1.000  C
  C51      1.0000 0.10440  0.45549  0.46167  Biso   1.000  C
  H33      1.0000 0.09723  0.45897  0.51297  Biso   1.000  H
  C52      1.0000 0.11915  0.42591  0.44467  Biso   1.000  C
  H34      1.0000 0.12063  0.40847  0.48467  Biso   1.000  H
  C53      1.0000 0.08104  0.50661  0.42057  Biso   1.000  C
  C54      1.0000 0.04225  0.48809  0.45857  Biso   1.000  C
  H35      1.0000 0.02893  0.45817  0.47117  Biso   1.000  H
  H36      1.0000 0.17423  0.56467  0.44247  Biso   1.000  H
  O13      1.0000 0.29866  0.11085  0.74710  Biso   1.000  O
  O14      1.0000 0.27979  0.10170  0.61850  Biso   1.000  O
  C55      1.0000 0.27720  0.08895  0.68620  Biso   1.000  C
  C56      1.0000 0.24419  0.04190  0.70600  Biso   1.000  C
  C57      1.0000 0.21980  0.01407  0.64930  Biso   1.000  C
  H37      1.0000 0.22300  0.02460  0.59800  Biso   1.000  H
  C58      1.0000 0.19032  0.97067  0.66410  Biso   1.000  C
  H38      1.0000 0.17230  0.95240  0.62390  Biso   1.000  H
  C59      1.0000 0.18744  0.95484  0.73460  Biso   1.000  C
  C60      1.0000 0.21118  0.98225  0.79500  Biso   1.000  C
  H39      1.0000 0.20770  0.97160  0.84630  Biso   1.000  H
  C61      1.0000 0.24076  0.02658  0.77800  Biso   1.000  C
  H40      1.0000 0.25820  0.04550  0.81800  Biso   1.000  H
  C62      1.0000 0.16006  0.90777  0.75390  Biso   1.000  C
  C63      1.0000 0.17858  0.88750  0.79190  Biso   1.000  C
  H41      1.0000 0.20850  0.90410  0.80450  Biso   1.000  H
  H42      1.0000 0.10200  0.94290  0.77580  Biso   1.000  H
  O15      1.0000 0.96533  0.44418  0.08043  Biso   1.000  O
  O16      1.0000 0.94646  0.43503  0.95183  Biso   1.000  O
  C64      1.0000 0.94387  0.42228  0.01953  Biso   1.000  C
  C65      1.0000 0.91086  0.37523  0.03933  Biso   1.000  C
  C66      1.0000 0.88647  0.34740  0.98263  Biso   1.000  C
  H43      1.0000 0.88967  0.35793  0.93133  Biso   1.000  H
  C67      1.0000 0.85699  0.30400  0.99743  Biso   1.000  C
  H44      1.0000 0.83897  0.28573  0.95723  Biso   1.000  H
  C68      1.0000 0.85411  0.28817  0.06793  Biso   1.000  C
  C69      1.0000 0.87785  0.31558  0.12833  Biso   1.000  C
  H45      1.0000 0.87437  0.30493  0.17963  Biso   1.000  H
  C70      1.0000 0.90743  0.35991  0.11133  Biso   1.000  C
  H46      1.0000 0.92487  0.37883  0.15133  Biso   1.000  H
  C71      1.0000 0.82673  0.24110  0.08723  Biso   1.000  C
  C72      1.0000 0.84525  0.22083  0.12523  Biso   1.000  C
  H47      1.0000 0.87517  0.23743  0.13783  Biso   1.000  H
  H48      1.0000 0.76867  0.27623  0.10913  Biso   1.000  H
  O17      1.0000 0.63199  0.77752  0.41377  Biso   1.000  O
  O18      1.0000 0.61312  0.76837  0.28517  Biso   1.000  O
  C73      1.0000 0.61053  0.75562  0.35287  Biso   1.000  C
  C74      1.0000 0.57752  0.70857  0.37267  Biso   1.000  C
  C75      1.0000 0.55313  0.68074  0.31597  Biso   1.000  C
  H49      1.0000 0.55633  0.69127  0.26467  Biso   1.000  H
  C76      1.0000 0.52365  0.63734  0.33077  Biso   1.000  C
  H50      1.0000 0.50563  0.61907  0.29057  Biso   1.000  H
  C77      1.0000 0.52077  0.62151  0.40127  Biso   1.000  C
  C78      1.0000 0.54451  0.64892  0.46167  Biso   1.000  C
  H51      1.0000 0.54103  0.63827  0.51297  Biso   1.000  H
  C79      1.0000 0.57409  0.69325  0.44467  Biso   1.000  C
  H52      1.0000 0.59153  0.71217  0.48467  Biso   1.000  H
  C80      1.0000 0.49339  0.57444  0.42057  Biso   1.000  C
  C81      1.0000 0.51191  0.55417  0.45857  Biso   1.000  C
  H53      1.0000 0.54183  0.57077  0.47117  Biso   1.000  H
  H54      1.0000 0.43533  0.60957  0.44247  Biso   1.000  H
  O19      1.0000 0.18781  0.88915  0.25290  Biso   1.000  O
  O20      1.0000 0.17809  0.89830  0.38150  Biso   1.000  O
  C82      1.0000 0.18825  0.91105  0.31380  Biso   1.000  C
  C83      1.0000 0.20229  0.95810  0.29400  Biso   1.000  C
  C84      1.0000 0.20573  0.98593  0.35070  Biso   1.000  C
  H55      1.0000 0.19840  0.97540  0.40200  Biso   1.000  H
  C85      1.0000 0.21965  0.02933  0.33590  Biso   1.000  C
  H56      1.0000 0.21990  0.04760  0.37610  Biso   1.000  H
  C86      1.0000 0.23260  0.04516  0.26540  Biso   1.000  C
  C87      1.0000 0.22893  0.01775  0.20500  Biso   1.000  C
  H57      1.0000 0.23610  0.02840  0.15370  Biso   1.000  H
  C88      1.0000 0.21418  0.97342  0.22200  Biso   1.000  C
  H58      1.0000 0.21270  0.95450  0.18200  Biso   1.000  H
  C89      1.0000 0.25229  0.09223  0.24610  Biso   1.000  C
  C90      1.0000 0.29108  0.11250  0.20810  Biso   1.000  C
  H59      1.0000 0.30440  0.09590  0.19550  Biso   1.000  H
  H60      1.0000 0.15910  0.05710  0.22420  Biso   1.000  H
  O21      1.0000 0.85448  0.22248  0.58623  Biso   1.000  O
  O22      1.0000 0.84476  0.23163  0.71483  Biso   1.000  O
  C91      1.0000 0.85492  0.24438  0.64713  Biso   1.000  C
  C92      1.0000 0.86896  0.29143  0.62733  Biso   1.000  C
  C93      1.0000 0.87240  0.31926  0.68403  Biso   1.000  C
  H61      1.0000 0.86507  0.30873  0.73533  Biso   1.000  H
  C94      1.0000 0.88632  0.36266  0.66923  Biso   1.000  C
  H62      1.0000 0.88657  0.38093  0.70943  Biso   1.000  H
  C95      1.0000 0.89927  0.37849  0.59873  Biso   1.000  C
  C96      1.0000 0.89560  0.35108  0.53833  Biso   1.000  C
  H63      1.0000 0.90277  0.36173  0.48703  Biso   1.000  H
  C97      1.0000 0.88085  0.30675  0.55533  Biso   1.000  C
  H64      1.0000 0.87937  0.28783  0.51533  Biso   1.000  H
  C98      1.0000 0.91896  0.42556  0.57943  Biso   1.000  C
  C99      1.0000 0.95775  0.44583  0.54143  Biso   1.000  C
  H65      1.0000 0.97107  0.42923  0.52883  Biso   1.000  H
  H66      1.0000 0.82577  0.39043  0.55753  Biso   1.000  H
  O23      1.0000 0.52114  0.55582  0.91957  Biso   1.000  O
  O24      1.0000 0.51142  0.56497  0.04817  Biso   1.000  O
  C100     1.0000 0.52158  0.57772  0.98047  Biso   1.000  C
  C101     1.0000 0.53562  0.62477  0.96067  Biso   1.000  C
  C102     1.0000 0.53906  0.65260  0.01737  Biso   1.000  C
  H67      1.0000 0.53173  0.64207  0.06867  Biso   1.000  H
  C103     1.0000 0.55298  0.69600  0.00257  Biso   1.000  C
  H68      1.0000 0.55323  0.71427  0.04277  Biso   1.000  H
  C104     1.0000 0.56593  0.71183  0.93207  Biso   1.000  C
  C105     1.0000 0.56226  0.68442  0.87167  Biso   1.000  C
  H69      1.0000 0.56943  0.69507  0.82037  Biso   1.000  H
  C106     1.0000 0.54751  0.64009  0.88867  Biso   1.000  C
  H70      1.0000 0.54603  0.62117  0.84867  Biso   1.000  H
  C107     1.0000 0.58562  0.75890  0.91277  Biso   1.000  C
  C108     1.0000 0.62441  0.77917  0.87477  Biso   1.000  C
  H71      1.0000 0.63773  0.76257  0.86217  Biso   1.000  H
  H72      1.0000 0.49243  0.72377  0.89087  Biso   1.000  H
  O25      1.0000 0.70134  0.81219  0.25290  Biso   1.000  O
  O26      1.0000 0.72021  0.82191  0.38150  Biso   1.000  O
  C109     1.0000 0.72280  0.81175  0.31380  Biso   1.000  C
  C110     1.0000 0.75581  0.79771  0.29400  Biso   1.000  C
  C111     1.0000 0.78020  0.79427  0.35070  Biso   1.000  C
  H73      1.0000 0.77700  0.80160  0.40200  Biso   1.000  H
  C112     1.0000 0.80968  0.78035  0.33590  Biso   1.000  C
  H74      1.0000 0.82770  0.78010  0.37610  Biso   1.000  H
  C113     1.0000 0.81256  0.76740  0.26540  Biso   1.000  C
  C114     1.0000 0.78882  0.77107  0.20500  Biso   1.000  C
  H75      1.0000 0.79230  0.76390  0.15370  Biso   1.000  H
  C115     1.0000 0.75924  0.78582  0.22200  Biso   1.000  C
  H76      1.0000 0.74180  0.78730  0.18200  Biso   1.000  H
  C116     1.0000 0.83994  0.74771  0.24610  Biso   1.000  C
  C117     1.0000 0.82142  0.70892  0.20810  Biso   1.000  C
  H77      1.0000 0.79150  0.69560  0.19550  Biso   1.000  H
  H78      1.0000 0.89800  0.84090  0.22420  Biso   1.000  H
  O27      1.0000 0.36801  0.14552  0.58623  Biso   1.000  O
  O28      1.0000 0.38688  0.15524  0.71483  Biso   1.000  O
  C118     1.0000 0.38947  0.14508  0.64713  Biso   1.000  C
  C119     1.0000 0.42248  0.13104  0.62733  Biso   1.000  C
  C120     1.0000 0.44687  0.12760  0.68403  Biso   1.000  C
  H79      1.0000 0.44367  0.13493  0.73533  Biso   1.000  H
  C121     1.0000 0.47635  0.11368  0.66923  Biso   1.000  C
  H80      1.0000 0.49437  0.11343  0.70943  Biso   1.000  H
  C122     1.0000 0.47923  0.10073  0.59873  Biso   1.000  C
  C123     1.0000 0.45549  0.10440  0.53833  Biso   1.000  C
  H81      1.0000 0.45897  0.09723  0.48703  Biso   1.000  H
  C124     1.0000 0.42591  0.11915  0.55533  Biso   1.000  C
  H82      1.0000 0.40847  0.12063  0.51533  Biso   1.000  H
  C125     1.0000 0.50661  0.08104  0.57943  Biso   1.000  C
  C126     1.0000 0.48809  0.04225  0.54143  Biso   1.000  C
  H83      1.0000 0.45817  0.02893  0.52883  Biso   1.000  H
  H84      1.0000 0.56467  0.17423  0.55753  Biso   1.000  H
  O29      1.0000 0.03467  0.47886  0.91957  Biso   1.000  O
  O30      1.0000 0.05354  0.48858  0.04817  Biso   1.000  O
  C127     1.0000 0.05613  0.47842  0.98047  Biso   1.000  C
  C128     1.0000 0.08914  0.46438  0.96067  Biso   1.000  C
  C129     1.0000 0.11353  0.46094  0.01737  Biso   1.000  C
  H85      1.0000 0.11033  0.46827  0.06867  Biso   1.000  H
  C130     1.0000 0.14301  0.44702  0.00257  Biso   1.000  C
  H86      1.0000 0.16103  0.44677  0.04277  Biso   1.000  H
  C131     1.0000 0.14589  0.43407  0.93207  Biso   1.000  C
  C132     1.0000 0.12215  0.43774  0.87167  Biso   1.000  C
  H87      1.0000 0.12563  0.43057  0.82037  Biso   1.000  H
  C133     1.0000 0.09257  0.45249  0.88867  Biso   1.000  C
  H88      1.0000 0.07513  0.45397  0.84867  Biso   1.000  H
  C134     1.0000 0.17327  0.41438  0.91277  Biso   1.000  C
  C135     1.0000 0.15475  0.37559  0.87477  Biso   1.000  C
  H89      1.0000 0.12483  0.36227  0.86217  Biso   1.000  H
  H90      1.0000 0.23133  0.50757  0.89087  Biso   1.000  H
  O31      1.0000 0.11085  0.29866  0.25290  Biso   1.000  O
  O32      1.0000 0.10170  0.27979  0.38150  Biso   1.000  O
  C136     1.0000 0.08895  0.27720  0.31380  Biso   1.000  C
  C137     1.0000 0.04190  0.24419  0.29400  Biso   1.000  C
  C138     1.0000 0.01407  0.21980  0.35070  Biso   1.000  C
  H91      1.0000 0.02460  0.22300  0.40200  Biso   1.000  H
  C139     1.0000 0.97067  0.19032  0.33590  Biso   1.000  C
  H92      1.0000 0.95240  0.17230  0.37610  Biso   1.000  H
  C140     1.0000 0.95484  0.18744  0.26540  Biso   1.000  C
  C141     1.0000 0.98225  0.21118  0.20500  Biso   1.000  C
  H93      1.0000 0.97160  0.20770  0.15370  Biso   1.000  H
  C142     1.0000 0.02658  0.24076  0.22200  Biso   1.000  C
  H94      1.0000 0.04550  0.25820  0.18200  Biso   1.000  H
  C143     1.0000 0.90777  0.16006  0.24610  Biso   1.000  C
  C144     1.0000 0.88750  0.17858  0.20810  Biso   1.000  C
  H95      1.0000 0.90410  0.20850  0.19550  Biso   1.000  H
  H96      1.0000 0.94290  0.10200  0.22420  Biso   1.000  H
  O33      1.0000 0.77752  0.63199  0.58623  Biso   1.000  O
  O34      1.0000 0.76837  0.61312  0.71483  Biso   1.000  O
  C145     1.0000 0.75562  0.61053  0.64713  Biso   1.000  C
  C146     1.0000 0.70857  0.57752  0.62733  Biso   1.000  C
  C147     1.0000 0.68074  0.55313  0.68403  Biso   1.000  C
  H97      1.0000 0.69127  0.55633  0.73533  Biso   1.000  H
  C148     1.0000 0.63734  0.52365  0.66923  Biso   1.000  C
  H98      1.0000 0.61907  0.50563  0.70943  Biso   1.000  H
  C149     1.0000 0.62151  0.52077  0.59873  Biso   1.000  C
  C150     1.0000 0.64892  0.54451  0.53833  Biso   1.000  C
  H99      1.0000 0.63827  0.54103  0.48703  Biso   1.000  H
  C151     1.0000 0.69325  0.57409  0.55533  Biso   1.000  C
  H100     1.0000 0.71217  0.59153  0.51533  Biso   1.000  H
  C152     1.0000 0.57444  0.49339  0.57943  Biso   1.000  C
  C153     1.0000 0.55417  0.51191  0.54143  Biso   1.000  C
  H101     1.0000 0.57077  0.54183  0.52883  Biso   1.000  H
  H102     1.0000 0.60957  0.43533  0.55753  Biso   1.000  H
  O35      1.0000 0.44418  0.96533  0.91957  Biso   1.000  O
  O36      1.0000 0.43503  0.94646  0.04817  Biso   1.000  O
  C154     1.0000 0.42228  0.94387  0.98047  Biso   1.000  C
  C155     1.0000 0.37523  0.91086  0.96067  Biso   1.000  C
  C156     1.0000 0.34740  0.88647  0.01737  Biso   1.000  C
  H103     1.0000 0.35793  0.88967  0.06867  Biso   1.000  H
  C157     1.0000 0.30400  0.85699  0.00257  Biso   1.000  C
  H104     1.0000 0.28573  0.83897  0.04277  Biso   1.000  H
  C158     1.0000 0.28817  0.85411  0.93207  Biso   1.000  C
  C159     1.0000 0.31558  0.87785  0.87167  Biso   1.000  C
  H105     1.0000 0.30493  0.87437  0.82037  Biso   1.000  H
  C160     1.0000 0.35991  0.90743  0.88867  Biso   1.000  C
  H106     1.0000 0.37883  0.92487  0.84867  Biso   1.000  H
  C161     1.0000 0.24110  0.82673  0.91277  Biso   1.000  C
  C162     1.0000 0.22083  0.84525  0.87477  Biso   1.000  C
  H107     1.0000 0.23743  0.87517  0.86217  Biso   1.000  H
  H108     1.0000 0.27623  0.76867  0.89087  Biso   1.000  H
  O37      1.0000 0.11085  0.81219  0.25290  Biso   1.000  O
  O38      1.0000 0.10170  0.82191  0.38150  Biso   1.000  O
  C163     1.0000 0.08895  0.81175  0.31380  Biso   1.000  C
  C164     1.0000 0.04190  0.79771  0.29400  Biso   1.000  C
  C165     1.0000 0.01407  0.79427  0.35070  Biso   1.000  C
  H109     1.0000 0.02460  0.80160  0.40200  Biso   1.000  H
  C166     1.0000 0.97067  0.78035  0.33590  Biso   1.000  C
  H110     1.0000 0.95240  0.78010  0.37610  Biso   1.000  H
  C167     1.0000 0.95484  0.76740  0.26540  Biso   1.000  C
  C168     1.0000 0.98225  0.77107  0.20500  Biso   1.000  C
  H111     1.0000 0.97160  0.76390  0.15370  Biso   1.000  H
  C169     1.0000 0.02658  0.78582  0.22200  Biso   1.000  C
  H112     1.0000 0.04550  0.78730  0.18200  Biso   1.000  H
  C170     1.0000 0.90777  0.74771  0.24610  Biso   1.000  C
  C171     1.0000 0.88750  0.70892  0.20810  Biso   1.000  C
  H113     1.0000 0.90410  0.69560  0.19550  Biso   1.000  H
  H114     1.0000 0.94290  0.84090  0.22420  Biso   1.000  H
  O39      1.0000 0.77752  0.14552  0.58623  Biso   1.000  O
  O40      1.0000 0.76837  0.15524  0.71483  Biso   1.000  O
  C172     1.0000 0.75562  0.14508  0.64713  Biso   1.000  C
  C173     1.0000 0.70857  0.13104  0.62733  Biso   1.000  C
  C174     1.0000 0.68074  0.12760  0.68403  Biso   1.000  C
  H115     1.0000 0.69127  0.13493  0.73533  Biso   1.000  H
  C175     1.0000 0.63734  0.11368  0.66923  Biso   1.000  C
  H116     1.0000 0.61907  0.11343  0.70943  Biso   1.000  H
  C176     1.0000 0.62151  0.10073  0.59873  Biso   1.000  C
  C177     1.0000 0.64892  0.10440  0.53833  Biso   1.000  C
  H117     1.0000 0.63827  0.09723  0.48703  Biso   1.000  H
  C178     1.0000 0.69325  0.11915  0.55533  Biso   1.000  C
  H118     1.0000 0.71217  0.12063  0.51533  Biso   1.000  H
  C179     1.0000 0.57444  0.08104  0.57943  Biso   1.000  C
  C180     1.0000 0.55417  0.04225  0.54143  Biso   1.000  C
  H119     1.0000 0.57077  0.02893  0.52883  Biso   1.000  H
  H120     1.0000 0.60957  0.17423  0.55753  Biso   1.000  H
  O41      1.0000 0.44418  0.47886  0.91957  Biso   1.000  O
  O42      1.0000 0.43503  0.48858  0.04817  Biso   1.000  O
  C181     1.0000 0.42228  0.47842  0.98047  Biso   1.000  C
  C182     1.0000 0.37523  0.46438  0.96067  Biso   1.000  C
  C183     1.0000 0.34740  0.46094  0.01737  Biso   1.000  C
  H121     1.0000 0.35793  0.46827  0.06867  Biso   1.000  H
  C184     1.0000 0.30400  0.44702  0.00257  Biso   1.000  C
  H122     1.0000 0.28573  0.44677  0.04277  Biso   1.000  H
  C185     1.0000 0.28817  0.43407  0.93207  Biso   1.000  C
  C186     1.0000 0.31558  0.43774  0.87167  Biso   1.000  C
  H123     1.0000 0.30493  0.43057  0.82037  Biso   1.000  H
  C187     1.0000 0.35991  0.45249  0.88867  Biso   1.000  C
  H124     1.0000 0.37883  0.45397  0.84867  Biso   1.000  H
  C188     1.0000 0.24110  0.41438  0.91277  Biso   1.000  C
  C189     1.0000 0.22083  0.37559  0.87477  Biso   1.000  C
  H125     1.0000 0.23743  0.36227  0.86217  Biso   1.000  H
  H126     1.0000 0.27623  0.50757  0.89087  Biso   1.000  H
  O43      1.0000 0.18781  0.29866  0.25290  Biso   1.000  O
  O44      1.0000 0.17809  0.27979  0.38150  Biso   1.000  O
  C190     1.0000 0.18825  0.27720  0.31380  Biso   1.000  C
  C191     1.0000 0.20229  0.24419  0.29400  Biso   1.000  C
  C192     1.0000 0.20573  0.21980  0.35070  Biso   1.000  C
  H127     1.0000 0.19840  0.22300  0.40200  Biso   1.000  H
  C193     1.0000 0.21965  0.19032  0.33590  Biso   1.000  C
  H128     1.0000 0.21990  0.17230  0.37610  Biso   1.000  H
  C194     1.0000 0.23260  0.18744  0.26540  Biso   1.000  C
  C195     1.0000 0.22893  0.21118  0.20500  Biso   1.000  C
  H129     1.0000 0.23610  0.20770  0.15370  Biso   1.000  H
  C196     1.0000 0.21418  0.24076  0.22200  Biso   1.000  C
  H130     1.0000 0.21270  0.25820  0.18200  Biso   1.000  H
  C197     1.0000 0.25229  0.16006  0.24610  Biso   1.000  C
  C198     1.0000 0.29108  0.17858  0.20810  Biso   1.000  C
  H131     1.0000 0.30440  0.20850  0.19550  Biso   1.000  H
  H132     1.0000 0.15910  0.10200  0.22420  Biso   1.000  H
  O45      1.0000 0.85448  0.63199  0.58623  Biso   1.000  O
  O46      1.0000 0.84476  0.61312  0.71483  Biso   1.000  O
  C199     1.0000 0.85492  0.61053  0.64713  Biso   1.000  C
  C200     1.0000 0.86896  0.57752  0.62733  Biso   1.000  C
  C201     1.0000 0.87240  0.55313  0.68403  Biso   1.000  C
  H133     1.0000 0.86507  0.55633  0.73533  Biso   1.000  H
  C202     1.0000 0.88632  0.52365  0.66923  Biso   1.000  C
  H134     1.0000 0.88657  0.50563  0.70943  Biso   1.000  H
  C203     1.0000 0.89927  0.52077  0.59873  Biso   1.000  C
  C204     1.0000 0.89560  0.54451  0.53833  Biso   1.000  C
  H135     1.0000 0.90277  0.54103  0.48703  Biso   1.000  H
  C205     1.0000 0.88085  0.57409  0.55533  Biso   1.000  C
  H136     1.0000 0.87937  0.59153  0.51533  Biso   1.000  H
  C206     1.0000 0.91896  0.49339  0.57943  Biso   1.000  C
  C207     1.0000 0.95775  0.51191  0.54143  Biso   1.000  C
  H137     1.0000 0.97107  0.54183  0.52883  Biso   1.000  H
  H138     1.0000 0.82577  0.43533  0.55753  Biso   1.000  H
  O47      1.0000 0.52114  0.96533  0.91957  Biso   1.000  O
  O48      1.0000 0.51142  0.94646  0.04817  Biso   1.000  O
  C208     1.0000 0.52158  0.94387  0.98047  Biso   1.000  C
  C209     1.0000 0.53562  0.91086  0.96067  Biso   1.000  C
  C210     1.0000 0.53906  0.88647  0.01737  Biso   1.000  C
  H139     1.0000 0.53173  0.88967  0.06867  Biso   1.000  H
  C211     1.0000 0.55298  0.85699  0.00257  Biso   1.000  C
  H140     1.0000 0.55323  0.83897  0.04277  Biso   1.000  H
  C212     1.0000 0.56593  0.85411  0.93207  Biso   1.000  C
  C213     1.0000 0.56226  0.87785  0.87167  Biso   1.000  C
  H141     1.0000 0.56943  0.87437  0.82037  Biso   1.000  H
  C214     1.0000 0.54751  0.90743  0.88867  Biso   1.000  C
  H142     1.0000 0.54603  0.92487  0.84867  Biso   1.000  H
  C215     1.0000 0.58562  0.82673  0.91277  Biso   1.000  C
  C216     1.0000 0.62441  0.84525  0.87477  Biso   1.000  C
  H143     1.0000 0.63773  0.87517  0.86217  Biso   1.000  H
  H144     1.0000 0.49243  0.76867  0.89087  Biso   1.000  H
  O49      1.0000 0.70134  0.88915  0.25290  Biso   1.000  O
  O50      1.0000 0.72021  0.89830  0.38150  Biso   1.000  O
  C217     1.0000 0.72280  0.91105  0.31380  Biso   1.000  C
  C218     1.0000 0.75581  0.95810  0.29400  Biso   1.000  C
  C219     1.0000 0.78020  0.98593  0.35070  Biso   1.000  C
  H145     1.0000 0.77700  0.97540  0.40200  Biso   1.000  H
  C220     1.0000 0.80968  0.02933  0.33590  Biso   1.000  C
  H146     1.0000 0.82770  0.04760  0.37610  Biso   1.000  H
  C221     1.0000 0.81256  0.04516  0.26540  Biso   1.000  C
  C222     1.0000 0.78882  0.01775  0.20500  Biso   1.000  C
  H147     1.0000 0.79230  0.02840  0.15370  Biso   1.000  H
  C223     1.0000 0.75924  0.97342  0.22200  Biso   1.000  C
  H148     1.0000 0.74180  0.95450  0.18200  Biso   1.000  H
  C224     1.0000 0.83994  0.09223  0.24610  Biso   1.000  C
  C225     1.0000 0.82142  0.11250  0.20810  Biso   1.000  C
  H149     1.0000 0.79150  0.09590  0.19550  Biso   1.000  H
  H150     1.0000 0.89800  0.05710  0.22420  Biso   1.000  H
  O51      1.0000 0.36801  0.22248  0.58623  Biso   1.000  O
  O52      1.0000 0.38688  0.23163  0.71483  Biso   1.000  O
  C226     1.0000 0.38947  0.24438  0.64713  Biso   1.000  C
  C227     1.0000 0.42248  0.29143  0.62733  Biso   1.000  C
  C228     1.0000 0.44687  0.31926  0.68403  Biso   1.000  C
  H151     1.0000 0.44367  0.30873  0.73533  Biso   1.000  H
  C229     1.0000 0.47635  0.36266  0.66923  Biso   1.000  C
  H152     1.0000 0.49437  0.38093  0.70943  Biso   1.000  H
  C230     1.0000 0.47923  0.37849  0.59873  Biso   1.000  C
  C231     1.0000 0.45549  0.35108  0.53833  Biso   1.000  C
  H153     1.0000 0.45897  0.36173  0.48703  Biso   1.000  H
  C232     1.0000 0.42591  0.30675  0.55533  Biso   1.000  C
  H154     1.0000 0.40847  0.28783  0.51533  Biso   1.000  H
  C233     1.0000 0.50661  0.42556  0.57943  Biso   1.000  C
  C234     1.0000 0.48809  0.44583  0.54143  Biso   1.000  C
  H155     1.0000 0.45817  0.42923  0.52883  Biso   1.000  H
  H156     1.0000 0.56467  0.39043  0.55753  Biso   1.000  H
  O53      1.0000 0.03467  0.55582  0.91957  Biso   1.000  O
  O54      1.0000 0.05354  0.56497  0.04817  Biso   1.000  O
  C235     1.0000 0.05613  0.57772  0.98047  Biso   1.000  C
  C236     1.0000 0.08914  0.62477  0.96067  Biso   1.000  C
  C237     1.0000 0.11353  0.65260  0.01737  Biso   1.000  C
  H157     1.0000 0.11033  0.64207  0.06867  Biso   1.000  H
  C238     1.0000 0.14301  0.69600  0.00257  Biso   1.000  C
  H158     1.0000 0.16103  0.71427  0.04277  Biso   1.000  H
  C239     1.0000 0.14589  0.71183  0.93207  Biso   1.000  C
  C240     1.0000 0.12215  0.68442  0.87167  Biso   1.000  C
  H159     1.0000 0.12563  0.69507  0.82037  Biso   1.000  H
  C241     1.0000 0.09257  0.64009  0.88867  Biso   1.000  C
  H160     1.0000 0.07513  0.62117  0.84867  Biso   1.000  H
  C242     1.0000 0.17327  0.75890  0.91277  Biso   1.000  C
  C243     1.0000 0.15475  0.77917  0.87477  Biso   1.000  C
  H161     1.0000 0.12483  0.76257  0.86217  Biso   1.000  H
  H162     1.0000 0.23133  0.72377  0.89087  Biso   1.000  H
  O55      1.0000 0.81219  0.11085  0.74710  Biso   1.000  O
  O56      1.0000 0.82191  0.10170  0.61850  Biso   1.000  O
  C244     1.0000 0.81175  0.08895  0.68620  Biso   1.000  C
  C245     1.0000 0.79771  0.04190  0.70600  Biso   1.000  C
  C246     1.0000 0.79427  0.01407  0.64930  Biso   1.000  C
  H163     1.0000 0.80160  0.02460  0.59800  Biso   1.000  H
  C247     1.0000 0.78035  0.97067  0.66410  Biso   1.000  C
  H164     1.0000 0.78010  0.95240  0.62390  Biso   1.000  H
  C248     1.0000 0.76740  0.95484  0.73460  Biso   1.000  C
  C249     1.0000 0.77107  0.98225  0.79500  Biso   1.000  C
  H165     1.0000 0.76390  0.97160  0.84630  Biso   1.000  H
  C250     1.0000 0.78582  0.02658  0.77800  Biso   1.000  C
  H166     1.0000 0.78730  0.04550  0.81800  Biso   1.000  H
  C251     1.0000 0.74771  0.90777  0.75390  Biso   1.000  C
  C252     1.0000 0.70892  0.88750  0.79190  Biso   1.000  C
  H167     1.0000 0.69560  0.90410  0.80450  Biso   1.000  H
  H168     1.0000 0.84090  0.94290  0.77580  Biso   1.000  H
  O57      1.0000 0.47886  0.44418  0.08043  Biso   1.000  O
  O58      1.0000 0.48858  0.43503  0.95183  Biso   1.000  O
  C253     1.0000 0.47842  0.42228  0.01953  Biso   1.000  C
  C254     1.0000 0.46438  0.37523  0.03933  Biso   1.000  C
  C255     1.0000 0.46094  0.34740  0.98263  Biso   1.000  C
  H169     1.0000 0.46827  0.35793  0.93133  Biso   1.000  H
  C256     1.0000 0.44702  0.30400  0.99743  Biso   1.000  C
  H170     1.0000 0.44677  0.28573  0.95723  Biso   1.000  H
  C257     1.0000 0.43407  0.28817  0.06793  Biso   1.000  C
  C258     1.0000 0.43774  0.31558  0.12833  Biso   1.000  C
  H171     1.0000 0.43057  0.30493  0.17963  Biso   1.000  H
  C259     1.0000 0.45249  0.35991  0.11133  Biso   1.000  C
  H172     1.0000 0.45397  0.37883  0.15133  Biso   1.000  H
  C260     1.0000 0.41438  0.24110  0.08723  Biso   1.000  C
  C261     1.0000 0.37559  0.22083  0.12523  Biso   1.000  C
  H173     1.0000 0.36227  0.23743  0.13783  Biso   1.000  H
  H174     1.0000 0.50757  0.27623  0.10913  Biso   1.000  H
  O59      1.0000 0.14552  0.77752  0.41377  Biso   1.000  O
  O60      1.0000 0.15524  0.76837  0.28517  Biso   1.000  O
  C262     1.0000 0.14508  0.75562  0.35287  Biso   1.000  C
  C263     1.0000 0.13104  0.70857  0.37267  Biso   1.000  C
  C264     1.0000 0.12760  0.68074  0.31597  Biso   1.000  C
  H175     1.0000 0.13493  0.69127  0.26467  Biso   1.000  H
  C265     1.0000 0.11368  0.63734  0.33077  Biso   1.000  C
  H176     1.0000 0.11343  0.61907  0.29057  Biso   1.000  H
  C266     1.0000 0.10073  0.62151  0.40127  Biso   1.000  C
  C267     1.0000 0.10440  0.64892  0.46167  Biso   1.000  C
  H177     1.0000 0.09723  0.63827  0.51297  Biso   1.000  H
  C268     1.0000 0.11915  0.69325  0.44467  Biso   1.000  C
  H178     1.0000 0.12063  0.71217  0.48467  Biso   1.000  H
  C269     1.0000 0.08104  0.57444  0.42057  Biso   1.000  C
  C270     1.0000 0.04225  0.55417  0.45857  Biso   1.000  C
  H179     1.0000 0.02893  0.57077  0.47117  Biso   1.000  H
  H180     1.0000 0.17423  0.60957  0.44247  Biso   1.000  H
  O61      1.0000 0.29866  0.18781  0.74710  Biso   1.000  O
  O62      1.0000 0.27979  0.17809  0.61850  Biso   1.000  O
  C271     1.0000 0.27720  0.18825  0.68620  Biso   1.000  C
  C272     1.0000 0.24419  0.20229  0.70600  Biso   1.000  C
  C273     1.0000 0.21980  0.20573  0.64930  Biso   1.000  C
  H181     1.0000 0.22300  0.19840  0.59800  Biso   1.000  H
  C274     1.0000 0.19032  0.21965  0.66410  Biso   1.000  C
  H182     1.0000 0.17230  0.21990  0.62390  Biso   1.000  H
  C275     1.0000 0.18744  0.23260  0.73460  Biso   1.000  C
  C276     1.0000 0.21118  0.22893  0.79500  Biso   1.000  C
  H183     1.0000 0.20770  0.23610  0.84630  Biso   1.000  H
  C277     1.0000 0.24076  0.21418  0.77800  Biso   1.000  C
  H184     1.0000 0.25820  0.21270  0.81800  Biso   1.000  H
  C278     1.0000 0.16006  0.25229  0.75390  Biso   1.000  C
  C279     1.0000 0.17858  0.29108  0.79190  Biso   1.000  C
  H185     1.0000 0.20850  0.30440  0.80450  Biso   1.000  H
  H186     1.0000 0.10200  0.15910  0.77580  Biso   1.000  H
  O63      1.0000 0.96533  0.52114  0.08043  Biso   1.000  O
  O64      1.0000 0.94646  0.51142  0.95183  Biso   1.000  O
  C280     1.0000 0.94387  0.52158  0.01953  Biso   1.000  C
  C281     1.0000 0.91086  0.53562  0.03933  Biso   1.000  C
  C282     1.0000 0.88647  0.53906  0.98263  Biso   1.000  C
  H187     1.0000 0.88967  0.53173  0.93133  Biso   1.000  H
  C283     1.0000 0.85699  0.55298  0.99743  Biso   1.000  C
  H188     1.0000 0.83897  0.55323  0.95723  Biso   1.000  H
  C284     1.0000 0.85411  0.56593  0.06793  Biso   1.000  C
  C285     1.0000 0.87785  0.56226  0.12833  Biso   1.000  C
  H189     1.0000 0.87437  0.56943  0.17963  Biso   1.000  H
  C286     1.0000 0.90743  0.54751  0.11133  Biso   1.000  C
  H190     1.0000 0.92487  0.54603  0.15133  Biso   1.000  H
  C287     1.0000 0.82673  0.58562  0.08723  Biso   1.000  C
  C288     1.0000 0.84525  0.62441  0.12523  Biso   1.000  C
  H191     1.0000 0.87517  0.63773  0.13783  Biso   1.000  H
  H192     1.0000 0.76867  0.49243  0.10913  Biso   1.000  H
  O65      1.0000 0.63199  0.85448  0.41377  Biso   1.000  O
  O66      1.0000 0.61312  0.84476  0.28517  Biso   1.000  O
  C289     1.0000 0.61053  0.85492  0.35287  Biso   1.000  C
  C290     1.0000 0.57752  0.86896  0.37267  Biso   1.000  C
  C291     1.0000 0.55313  0.87240  0.31597  Biso   1.000  C
  H193     1.0000 0.55633  0.86507  0.26467  Biso   1.000  H
  C292     1.0000 0.52365  0.88632  0.33077  Biso   1.000  C
  H194     1.0000 0.50563  0.88657  0.29057  Biso   1.000  H
  C293     1.0000 0.52077  0.89927  0.40127  Biso   1.000  C
  C294     1.0000 0.54451  0.89560  0.46167  Biso   1.000  C
  H195     1.0000 0.54103  0.90277  0.51297  Biso   1.000  H
  C295     1.0000 0.57409  0.88085  0.44467  Biso   1.000  C
  H196     1.0000 0.59153  0.87937  0.48467  Biso   1.000  H
  C296     1.0000 0.49339  0.91896  0.42057  Biso   1.000  C
  C297     1.0000 0.51191  0.95775  0.45857  Biso   1.000  C
  H197     1.0000 0.54183  0.97107  0.47117  Biso   1.000  H
  H198     1.0000 0.43533  0.82577  0.44247  Biso   1.000  H
  O67      1.0000 0.88915  0.70134  0.74710  Biso   1.000  O
  O68      1.0000 0.89830  0.72021  0.61850  Biso   1.000  O
  C298     1.0000 0.91105  0.72280  0.68620  Biso   1.000  C
  C299     1.0000 0.95810  0.75581  0.70600  Biso   1.000  C
  C300     1.0000 0.98593  0.78020  0.64930  Biso   1.000  C
  H199     1.0000 0.97540  0.77700  0.59800  Biso   1.000  H
  C301     1.0000 0.02933  0.80968  0.66410  Biso   1.000  C
  H200     1.0000 0.04760  0.82770  0.62390  Biso   1.000  H
  C302     1.0000 0.04516  0.81256  0.73460  Biso   1.000  C
  C303     1.0000 0.01775  0.78882  0.79500  Biso   1.000  C
  H201     1.0000 0.02840  0.79230  0.84630  Biso   1.000  H
  C304     1.0000 0.97342  0.75924  0.77800  Biso   1.000  C
  H202     1.0000 0.95450  0.74180  0.81800  Biso   1.000  H
  C305     1.0000 0.09223  0.83994  0.75390  Biso   1.000  C
  C306     1.0000 0.11250  0.82142  0.79190  Biso   1.000  C
  H203     1.0000 0.09590  0.79150  0.80450  Biso   1.000  H
  H204     1.0000 0.05710  0.89800  0.77580  Biso   1.000  H
  O69      1.0000 0.55582  0.03467  0.08043  Biso   1.000  O
  O70      1.0000 0.56497  0.05354  0.95183  Biso   1.000  O
  C307     1.0000 0.57772  0.05613  0.01953  Biso   1.000  C
  C308     1.0000 0.62477  0.08914  0.03933  Biso   1.000  C
  C309     1.0000 0.65260  0.11353  0.98263  Biso   1.000  C
  H205     1.0000 0.64207  0.11033  0.93133  Biso   1.000  H
  C310     1.0000 0.69600  0.14301  0.99743  Biso   1.000  C
  H206     1.0000 0.71427  0.16103  0.95723  Biso   1.000  H
  C311     1.0000 0.71183  0.14589  0.06793  Biso   1.000  C
  C312     1.0000 0.68442  0.12215  0.12833  Biso   1.000  C
  H207     1.0000 0.69507  0.12563  0.17963  Biso   1.000  H
  C313     1.0000 0.64009  0.09257  0.11133  Biso   1.000  C
  H208     1.0000 0.62117  0.07513  0.15133  Biso   1.000  H
  C314     1.0000 0.75890  0.17327  0.08723  Biso   1.000  C
  C315     1.0000 0.77917  0.15475  0.12523  Biso   1.000  C
  H209     1.0000 0.76257  0.12483  0.13783  Biso   1.000  H
  H210     1.0000 0.72377  0.23133  0.10913  Biso   1.000  H
  O71      1.0000 0.22248  0.36801  0.41377  Biso   1.000  O
  O72      1.0000 0.23163  0.38688  0.28517  Biso   1.000  O
  C316     1.0000 0.24438  0.38947  0.35287  Biso   1.000  C
  C317     1.0000 0.29143  0.42248  0.37267  Biso   1.000  C
  C318     1.0000 0.31926  0.44687  0.31597  Biso   1.000  C
  H211     1.0000 0.30873  0.44367  0.26467  Biso   1.000  H
  C319     1.0000 0.36266  0.47635  0.33077  Biso   1.000  C
  H212     1.0000 0.38093  0.49437  0.29057  Biso   1.000  H
  C320     1.0000 0.37849  0.47923  0.40127  Biso   1.000  C
  C321     1.0000 0.35108  0.45549  0.46167  Biso   1.000  C
  H213     1.0000 0.36173  0.45897  0.51297  Biso   1.000  H
  C322     1.0000 0.30675  0.42591  0.44467  Biso   1.000  C
  H214     1.0000 0.28783  0.40847  0.48467  Biso   1.000  H
  C323     1.0000 0.42556  0.50661  0.42057  Biso   1.000  C
  C324     1.0000 0.44583  0.48809  0.45857  Biso   1.000  C
  H215     1.0000 0.42923  0.45817  0.47117  Biso   1.000  H
  H216     1.0000 0.39043  0.56467  0.44247  Biso   1.000  H
  Cu1      1.0000 0.83873  0.16127  0.59304  Biso   1.000  Cu
  Cu2      1.0000 0.50540  0.49460  0.92637  Biso   1.000  Cu
  Cu3      1.0000 0.17206  0.82794  0.25971  Biso   1.000  Cu
  Cu4      1.0000 0.83873  0.67746  0.59304  Biso   1.000  Cu
  Cu5      1.0000 0.50540  0.01079  0.92637  Biso   1.000  Cu
  Cu6      1.0000 0.17206  0.34413  0.25971  Biso   1.000  Cu
  Cu7      1.0000 0.32254  0.16127  0.59304  Biso   1.000  Cu
  Cu8      1.0000 0.98921  0.49460  0.92637  Biso   1.000  Cu
  Cu9      1.0000 0.65587  0.82794  0.25971  Biso   1.000  Cu
  Cu10     1.0000 0.16127  0.83873  0.40696  Biso   1.000  Cu
  Cu11     1.0000 0.82794  0.17206  0.74029  Biso   1.000  Cu
  Cu12     1.0000 0.49460  0.50540  0.07363  Biso   1.000  Cu
  Cu13     1.0000 0.67746  0.83873  0.40696  Biso   1.000  Cu
  Cu14     1.0000 0.34413  0.17206  0.74029  Biso   1.000  Cu
  Cu15     1.0000 0.01079  0.50540  0.07363  Biso   1.000  Cu
  Cu16     1.0000 0.16127  0.32254  0.40696  Biso   1.000  Cu
  Cu17     1.0000 0.82794  0.65587  0.74029  Biso   1.000  Cu
  Cu18     1.0000 0.49460  0.98921  0.07363  Biso   1.000  Cu
  O73      1.0000 0.09722  0.19444  0.69250  Biso   1.000  O
  C325     1.0000 0.15625  0.31250  0.81360  Biso   1.000  C
  C326     1.0000 0.11649  0.23297  0.73240  Biso   1.000  C
  C327     1.0000 0.07910  0.15820  0.74320  Biso   1.000  C
  H217     1.0000 0.06570  0.13140  0.71300  Biso   1.000  H
  O74      1.0000 0.76389  0.52777  0.02583  Biso   1.000  O
  C328     1.0000 0.82292  0.64583  0.14693  Biso   1.000  C
  C329     1.0000 0.78315  0.56630  0.06573  Biso   1.000  C
  C330     1.0000 0.74577  0.49153  0.07653  Biso   1.000  C
  H218     1.0000 0.73237  0.46473  0.04633  Biso   1.000  H
  O75      1.0000 0.43055  0.86111  0.35917  Biso   1.000  O
  C331     1.0000 0.48958  0.97917  0.48027  Biso   1.000  C
  C332     1.0000 0.44982  0.89964  0.39907  Biso   1.000  C
  C333     1.0000 0.41243  0.82487  0.40987  Biso   1.000  C
  H219     1.0000 0.39903  0.79807  0.37967  Biso   1.000  H
  O76      1.0000 0.80556  0.90278  0.69250  Biso   1.000  O
  C334     1.0000 0.68750  0.84375  0.81360  Biso   1.000  C
  C335     1.0000 0.76703  0.88351  0.73240  Biso   1.000  C
  C336     1.0000 0.84180  0.92090  0.74320  Biso   1.000  C
  H220     1.0000 0.86860  0.93430  0.71300  Biso   1.000  H
  O77      1.0000 0.47223  0.23611  0.02583  Biso   1.000  O
  C337     1.0000 0.35417  0.17708  0.14693  Biso   1.000  C
  C338     1.0000 0.43370  0.21685  0.06573  Biso   1.000  C
  C339     1.0000 0.50847  0.25423  0.07653  Biso   1.000  C
  H221     1.0000 0.53527  0.26763  0.04633  Biso   1.000  H
  O78      1.0000 0.13889  0.56945  0.35917  Biso   1.000  O
  C340     1.0000 0.02083  0.51042  0.48027  Biso   1.000  C
  C341     1.0000 0.10036  0.55018  0.39907  Biso   1.000  C
  C342     1.0000 0.17513  0.58757  0.40987  Biso   1.000  C
  H222     1.0000 0.20193  0.60097  0.37967  Biso   1.000  H
  O79      1.0000 0.09722  0.90278  0.69250  Biso   1.000  O
  C343     1.0000 0.15625  0.84375  0.81360  Biso   1.000  C
  C344     1.0000 0.11649  0.88351  0.73240  Biso   1.000  C
  C345     1.0000 0.07910  0.92090  0.74320  Biso   1.000  C
  H223     1.0000 0.06570  0.93430  0.71300  Biso   1.000  H
  O80      1.0000 0.76389  0.23611  0.02583  Biso   1.000  O
  C346     1.0000 0.82292  0.17708  0.14693  Biso   1.000  C
  C347     1.0000 0.78315  0.21685  0.06573  Biso   1.000  C
  C348     1.0000 0.74577  0.25423  0.07653  Biso   1.000  C
  H224     1.0000 0.73237  0.26763  0.04633  Biso   1.000  H
  O81      1.0000 0.43055  0.56945  0.35917  Biso   1.000  O
  C349     1.0000 0.48958  0.51042  0.48027  Biso   1.000  C
  C350     1.0000 0.44982  0.55018  0.39907  Biso   1.000  C
  C351     1.0000 0.41243  0.58757  0.40987  Biso   1.000  C
  H225     1.0000 0.39903  0.60097  0.37967  Biso   1.000  H
  O82      1.0000 0.19444  0.09722  0.30750  Biso   1.000  O
  C352     1.0000 0.31250  0.15625  0.18640  Biso   1.000  C
  C353     1.0000 0.23297  0.11649  0.26760  Biso   1.000  C
  C354     1.0000 0.15820  0.07910  0.25680  Biso   1.000  C
  H226     1.0000 0.13140  0.06570  0.28700  Biso   1.000  H
  O83      1.0000 0.86111  0.43055  0.64083  Biso   1.000  O
  C355     1.0000 0.97917  0.48958  0.51973  Biso   1.000  C
  C356     1.0000 0.89964  0.44982  0.60093  Biso   1.000  C
  C357     1.0000 0.82487  0.41243  0.59013  Biso   1.000  C
  H227     1.0000 0.79807  0.39903  0.62033  Biso   1.000  H
  O84      1.0000 0.52777  0.76389  0.97417  Biso   1.000  O
  C358     1.0000 0.64583  0.82292  0.85307  Biso   1.000  C
  C359     1.0000 0.56630  0.78315  0.93427  Biso   1.000  C
  C360     1.0000 0.49153  0.74577  0.92347  Biso   1.000  C
  H228     1.0000 0.46473  0.73237  0.95367  Biso   1.000  H
  O85      1.0000 0.90278  0.80556  0.30750  Biso   1.000  O
  C361     1.0000 0.84375  0.68750  0.18640  Biso   1.000  C
  C362     1.0000 0.88351  0.76703  0.26760  Biso   1.000  C
  C363     1.0000 0.92090  0.84180  0.25680  Biso   1.000  C
  H229     1.0000 0.93430  0.86860  0.28700  Biso   1.000  H
  O86      1.0000 0.56945  0.13889  0.64083  Biso   1.000  O
  C364     1.0000 0.51042  0.02083  0.51973  Biso   1.000  C
  C365     1.0000 0.55018  0.10036  0.60093  Biso   1.000  C
  C366     1.0000 0.58757  0.17513  0.59013  Biso   1.000  C
  H230     1.0000 0.60097  0.20193  0.62033  Biso   1.000  H
  O87      1.0000 0.23611  0.47223  0.97417  Biso   1.000  O
  C367     1.0000 0.17708  0.35417  0.85307  Biso   1.000  C
  C368     1.0000 0.21685  0.43370  0.93427  Biso   1.000  C
  C369     1.0000 0.25423  0.50847  0.92347  Biso   1.000  C
  H231     1.0000 0.26763  0.53527  0.95367  Biso   1.000  H
  O88      1.0000 0.90278  0.09722  0.30750  Biso   1.000  O
  C370     1.0000 0.84375  0.15625  0.18640  Biso   1.000  C
  C371     1.0000 0.88351  0.11649  0.26760  Biso   1.000  C
  C372     1.0000 0.92090  0.07910  0.25680  Biso   1.000  C
  H232     1.0000 0.93430  0.06570  0.28700  Biso   1.000  H
  O89      1.0000 0.56945  0.43055  0.64083  Biso   1.000  O
  C373     1.0000 0.51042  0.48958  0.51973  Biso   1.000  C
  C374     1.0000 0.55018  0.44982  0.60093  Biso   1.000  C
  C375     1.0000 0.58757  0.41243  0.59013  Biso   1.000  C
  H233     1.0000 0.60097  0.39903  0.62033  Biso   1.000  H
  O90      1.0000 0.23611  0.76389  0.97417  Biso   1.000  O
  C376     1.0000 0.17708  0.82292  0.85307  Biso   1.000  C
  C377     1.0000 0.21685  0.78315  0.93427  Biso   1.000  C
  C378     1.0000 0.25423  0.74577  0.92347  Biso   1.000  C
  H234     1.0000 0.26763  0.73237  0.95367  Biso   1.000  H
