data_image0
_cell_length_a       35.8231
_cell_length_b       35.8231
_cell_length_c       15.7213
_cell_angle_alpha    90
_cell_angle_beta     90
_cell_angle_gamma    120

_symmetry_space_group_name_H-M    "P 1"
_symmetry_int_tables_number       1

loop_
  _symmetry_equiv_pos_as_xyz
  'x, y, z'

loop_
  _atom_site_label
  _atom_site_occupancy
  _atom_site_fract_x
  _atom_site_fract_y
  _atom_site_fract_z
  _atom_site_thermal_displace_type
  _atom_site_B_iso_or_equiv
  _atom_site_type_symbol
  O1       1.0000 0.37136  0.22420  0.59009  Biso   1.000  O
  O2       1.0000 0.38447  0.23088  0.73072  Biso   1.000  O
  C1       1.0000 0.39008  0.24490  0.65660  Biso   1.000  C
  C2       1.0000 0.42227  0.29212  0.64270  Biso   1.000  C
  C3       1.0000 0.44332  0.31960  0.70830  Biso   1.000  C
  H1       1.0000 0.43870  0.30880  0.76480  Biso   1.000  H
  C4       1.0000 0.47132  0.36297  0.69410  Biso   1.000  C
  H2       1.0000 0.48570  0.38130  0.74110  Biso   1.000  H
  C5       1.0000 0.47880  0.38004  0.61400  Biso   1.000  C
  C6       1.0000 0.45935  0.35179  0.54760  Biso   1.000  C
  H3       1.0000 0.46530  0.36230  0.49090  Biso   1.000  H
  C7       1.0000 0.43124  0.30832  0.56200  Biso   1.000  C
  H4       1.0000 0.41800  0.28950  0.51510  Biso   1.000  H
  C8       1.0000 0.50565  0.42701  0.59500  Biso   1.000  C
  C9       1.0000 0.48721  0.44650  0.54910  Biso   1.000  C
  H5       1.0000 0.45770  0.42980  0.53370  Biso   1.000  H
  H6       1.0000 0.60850  0.43610  0.57320  Biso   1.000  H
  O3       1.0000 0.03803  0.55753  0.92342  Biso   1.000  O
  O4       1.0000 0.05114  0.56421  0.06405  Biso   1.000  O
  C10      1.0000 0.05675  0.57823  0.98993  Biso   1.000  C
  C11      1.0000 0.08894  0.62545  0.97603  Biso   1.000  C
  C12      1.0000 0.10999  0.65293  0.04163  Biso   1.000  C
  H7       1.0000 0.10537  0.64213  0.09813  Biso   1.000  H
  C13      1.0000 0.13799  0.69630  0.02743  Biso   1.000  C
  H8       1.0000 0.15237  0.71463  0.07443  Biso   1.000  H
  C14      1.0000 0.14547  0.71337  0.94733  Biso   1.000  C
  C15      1.0000 0.12602  0.68512  0.88093  Biso   1.000  C
  H9       1.0000 0.13197  0.69563  0.82423  Biso   1.000  H
  C16      1.0000 0.09791  0.64165  0.89533  Biso   1.000  C
  H10      1.0000 0.08467  0.62283  0.84843  Biso   1.000  H
  C17      1.0000 0.17232  0.76034  0.92833  Biso   1.000  C
  C18      1.0000 0.15388  0.77983  0.88243  Biso   1.000  C
  H11      1.0000 0.12437  0.76313  0.86703  Biso   1.000  H
  H12      1.0000 0.27517  0.76943  0.90653  Biso   1.000  H
  O5       1.0000 0.70469  0.89087  0.25676  Biso   1.000  O
  O6       1.0000 0.71780  0.89755  0.39739  Biso   1.000  O
  C19      1.0000 0.72341  0.91157  0.32327  Biso   1.000  C
  C20      1.0000 0.75560  0.95879  0.30937  Biso   1.000  C
  C21      1.0000 0.77665  0.98627  0.37497  Biso   1.000  C
  H13      1.0000 0.77203  0.97547  0.43147  Biso   1.000  H
  C22      1.0000 0.80465  0.02964  0.36077  Biso   1.000  C
  H14      1.0000 0.81903  0.04797  0.40777  Biso   1.000  H
  C23      1.0000 0.81213  0.04671  0.28067  Biso   1.000  C
  C24      1.0000 0.79268  0.01846  0.21427  Biso   1.000  C
  H15      1.0000 0.79863  0.02897  0.15757  Biso   1.000  H
  C25      1.0000 0.76457  0.97499  0.22867  Biso   1.000  C
  H16      1.0000 0.75133  0.95617  0.18177  Biso   1.000  H
  C26      1.0000 0.83898  0.09368  0.26167  Biso   1.000  C
  C27      1.0000 0.82054  0.11317  0.21577  Biso   1.000  C
  H17      1.0000 0.79103  0.09647  0.20037  Biso   1.000  H
  H18      1.0000 0.94183  0.10277  0.23987  Biso   1.000  H
  O7       1.0000 0.77580  0.14716  0.59009  Biso   1.000  O
  O8       1.0000 0.76912  0.15359  0.73072  Biso   1.000  O
  C28      1.0000 0.75510  0.14518  0.65660  Biso   1.000  C
  C29      1.0000 0.70788  0.13015  0.64270  Biso   1.000  C
  C30      1.0000 0.68040  0.12372  0.70830  Biso   1.000  C
  H19      1.0000 0.69120  0.12990  0.76480  Biso   1.000  H
  C31      1.0000 0.63703  0.10835  0.69410  Biso   1.000  C
  H20      1.0000 0.61870  0.10440  0.74110  Biso   1.000  H
  C32      1.0000 0.61996  0.09876  0.61400  Biso   1.000  C
  C33      1.0000 0.64821  0.10756  0.54760  Biso   1.000  C
  H21      1.0000 0.63770  0.10300  0.49090  Biso   1.000  H
  C34      1.0000 0.69168  0.12292  0.56200  Biso   1.000  C
  H22      1.0000 0.71050  0.12850  0.51510  Biso   1.000  H
  C35      1.0000 0.57299  0.07864  0.59500  Biso   1.000  C
  C36      1.0000 0.55350  0.04071  0.54910  Biso   1.000  C
  H23      1.0000 0.57020  0.02790  0.53370  Biso   1.000  H
  H24      1.0000 0.56390  0.17240  0.57320  Biso   1.000  H
  O9       1.0000 0.44247  0.48049  0.92342  Biso   1.000  O
  O10      1.0000 0.43579  0.48692  0.06405  Biso   1.000  O
  C37      1.0000 0.42177  0.47851  0.98993  Biso   1.000  C
  C38      1.0000 0.37455  0.46348  0.97603  Biso   1.000  C
  C39      1.0000 0.34707  0.45705  0.04163  Biso   1.000  C
  H25      1.0000 0.35787  0.46323  0.09813  Biso   1.000  H
  C40      1.0000 0.30370  0.44168  0.02743  Biso   1.000  C
  H26      1.0000 0.28537  0.43773  0.07443  Biso   1.000  H
  C41      1.0000 0.28663  0.43209  0.94733  Biso   1.000  C
  C42      1.0000 0.31488  0.44089  0.88093  Biso   1.000  C
  H27      1.0000 0.30437  0.43633  0.82423  Biso   1.000  H
  C43      1.0000 0.35835  0.45625  0.89533  Biso   1.000  C
  H28      1.0000 0.37717  0.46183  0.84843  Biso   1.000  H
  C44      1.0000 0.23966  0.41197  0.92833  Biso   1.000  C
  C45      1.0000 0.22017  0.37404  0.88243  Biso   1.000  C
  H29      1.0000 0.23687  0.36123  0.86703  Biso   1.000  H
  H30      1.0000 0.23057  0.50573  0.90653  Biso   1.000  H
  O11      1.0000 0.10913  0.81383  0.25676  Biso   1.000  O
  O12      1.0000 0.10245  0.82026  0.39739  Biso   1.000  O
  C46      1.0000 0.08843  0.81185  0.32327  Biso   1.000  C
  C47      1.0000 0.04121  0.79682  0.30937  Biso   1.000  C
  C48      1.0000 0.01373  0.79039  0.37497  Biso   1.000  C
  H31      1.0000 0.02453  0.79657  0.43147  Biso   1.000  H
  C49      1.0000 0.97036  0.77502  0.36077  Biso   1.000  C
  H32      1.0000 0.95203  0.77107  0.40777  Biso   1.000  H
  C50      1.0000 0.95329  0.76543  0.28067  Biso   1.000  C
  C51      1.0000 0.98154  0.77423  0.21427  Biso   1.000  C
  H33      1.0000 0.97103  0.76967  0.15757  Biso   1.000  H
  C52      1.0000 0.02501  0.78959  0.22867  Biso   1.000  C
  H34      1.0000 0.04383  0.79517  0.18177  Biso   1.000  H
  C53      1.0000 0.90632  0.74531  0.26167  Biso   1.000  C
  C54      1.0000 0.88683  0.70738  0.21577  Biso   1.000  C
  H35      1.0000 0.90353  0.69457  0.20037  Biso   1.000  H
  H36      1.0000 0.89723  0.83907  0.23987  Biso   1.000  H
  O13      1.0000 0.85284  0.62864  0.59009  Biso   1.000  O
  O14      1.0000 0.84641  0.61553  0.73072  Biso   1.000  O
  C55      1.0000 0.85482  0.60992  0.65660  Biso   1.000  C
  C56      1.0000 0.86985  0.57773  0.64270  Biso   1.000  C
  C57      1.0000 0.87628  0.55668  0.70830  Biso   1.000  C
  H37      1.0000 0.87010  0.56130  0.76480  Biso   1.000  H
  C58      1.0000 0.89165  0.52868  0.69410  Biso   1.000  C
  H38      1.0000 0.89560  0.51430  0.74110  Biso   1.000  H
  C59      1.0000 0.90124  0.52120  0.61400  Biso   1.000  C
  C60      1.0000 0.89244  0.54065  0.54760  Biso   1.000  C
  H39      1.0000 0.89700  0.53470  0.49090  Biso   1.000  H
  C61      1.0000 0.87708  0.56876  0.56200  Biso   1.000  C
  H40      1.0000 0.87150  0.58200  0.51510  Biso   1.000  H
  C62      1.0000 0.92136  0.49435  0.59500  Biso   1.000  C
  C63      1.0000 0.95929  0.51279  0.54910  Biso   1.000  C
  H41      1.0000 0.97210  0.54230  0.53370  Biso   1.000  H
  H42      1.0000 0.82760  0.39150  0.57320  Biso   1.000  H
  O15      1.0000 0.51951  0.96197  0.92342  Biso   1.000  O
  O16      1.0000 0.51308  0.94886  0.06405  Biso   1.000  O
  C64      1.0000 0.52149  0.94325  0.98993  Biso   1.000  C
  C65      1.0000 0.53652  0.91106  0.97603  Biso   1.000  C
  C66      1.0000 0.54295  0.89001  0.04163  Biso   1.000  C
  H43      1.0000 0.53677  0.89463  0.09813  Biso   1.000  H
  C67      1.0000 0.55832  0.86201  0.02743  Biso   1.000  C
  H44      1.0000 0.56227  0.84763  0.07443  Biso   1.000  H
  C68      1.0000 0.56791  0.85453  0.94733  Biso   1.000  C
  C69      1.0000 0.55911  0.87398  0.88093  Biso   1.000  C
  H45      1.0000 0.56367  0.86803  0.82423  Biso   1.000  H
  C70      1.0000 0.54375  0.90209  0.89533  Biso   1.000  C
  H46      1.0000 0.53817  0.91533  0.84843  Biso   1.000  H
  C71      1.0000 0.58803  0.82768  0.92833  Biso   1.000  C
  C72      1.0000 0.62596  0.84612  0.88243  Biso   1.000  C
  H47      1.0000 0.63877  0.87563  0.86703  Biso   1.000  H
  H48      1.0000 0.49427  0.72483  0.90653  Biso   1.000  H
  O17      1.0000 0.18617  0.29531  0.25676  Biso   1.000  O
  O18      1.0000 0.17974  0.28220  0.39739  Biso   1.000  O
  C73      1.0000 0.18815  0.27659  0.32327  Biso   1.000  C
  C74      1.0000 0.20318  0.24440  0.30937  Biso   1.000  C
  C75      1.0000 0.20961  0.22335  0.37497  Biso   1.000  C
  H49      1.0000 0.20343  0.22797  0.43147  Biso   1.000  H
  C76      1.0000 0.22498  0.19535  0.36077  Biso   1.000  C
  H50      1.0000 0.22893  0.18097  0.40777  Biso   1.000  H
  C77      1.0000 0.23457  0.18787  0.28067  Biso   1.000  C
  C78      1.0000 0.22577  0.20732  0.21427  Biso   1.000  C
  H51      1.0000 0.23033  0.20137  0.15757  Biso   1.000  H
  C79      1.0000 0.21041  0.23543  0.22867  Biso   1.000  C
  H52      1.0000 0.20483  0.24867  0.18177  Biso   1.000  H
  C80      1.0000 0.25469  0.16102  0.26167  Biso   1.000  C
  C81      1.0000 0.29262  0.17946  0.21577  Biso   1.000  C
  H53      1.0000 0.30543  0.20897  0.20037  Biso   1.000  H
  H54      1.0000 0.16093  0.05817  0.23987  Biso   1.000  H
  O19      1.0000 0.22420  0.37136  0.40991  Biso   1.000  O
  O20      1.0000 0.23088  0.38447  0.26928  Biso   1.000  O
  C82      1.0000 0.24490  0.39008  0.34340  Biso   1.000  C
  C83      1.0000 0.29212  0.42227  0.35730  Biso   1.000  C
  C84      1.0000 0.31960  0.44332  0.29170  Biso   1.000  C
  H55      1.0000 0.30880  0.43870  0.23520  Biso   1.000  H
  C85      1.0000 0.36297  0.47132  0.30590  Biso   1.000  C
  H56      1.0000 0.38130  0.48570  0.25890  Biso   1.000  H
  C86      1.0000 0.38004  0.47880  0.38600  Biso   1.000  C
  C87      1.0000 0.35179  0.45935  0.45240  Biso   1.000  C
  H57      1.0000 0.36230  0.46530  0.50910  Biso   1.000  H
  C88      1.0000 0.30832  0.43124  0.43800  Biso   1.000  C
  H58      1.0000 0.28950  0.41800  0.48490  Biso   1.000  H
  C89      1.0000 0.42701  0.50565  0.40500  Biso   1.000  C
  C90      1.0000 0.44650  0.48721  0.45090  Biso   1.000  C
  H59      1.0000 0.42980  0.45770  0.46630  Biso   1.000  H
  H60      1.0000 0.43610  0.60850  0.42680  Biso   1.000  H
  O21      1.0000 0.89087  0.70469  0.74324  Biso   1.000  O
  O22      1.0000 0.89755  0.71780  0.60261  Biso   1.000  O
  C91      1.0000 0.91157  0.72341  0.67673  Biso   1.000  C
  C92      1.0000 0.95879  0.75560  0.69063  Biso   1.000  C
  C93      1.0000 0.98627  0.77665  0.62503  Biso   1.000  C
  H61      1.0000 0.97547  0.77203  0.56853  Biso   1.000  H
  C94      1.0000 0.02964  0.80465  0.63923  Biso   1.000  C
  H62      1.0000 0.04797  0.81903  0.59223  Biso   1.000  H
  C95      1.0000 0.04671  0.81213  0.71933  Biso   1.000  C
  C96      1.0000 0.01846  0.79268  0.78573  Biso   1.000  C
  H63      1.0000 0.02897  0.79863  0.84243  Biso   1.000  H
  C97      1.0000 0.97499  0.76457  0.77133  Biso   1.000  C
  H64      1.0000 0.95617  0.75133  0.81823  Biso   1.000  H
  C98      1.0000 0.09368  0.83898  0.73833  Biso   1.000  C
  C99      1.0000 0.11317  0.82054  0.78423  Biso   1.000  C
  H65      1.0000 0.09647  0.79103  0.79963  Biso   1.000  H
  H66      1.0000 0.10277  0.94183  0.76013  Biso   1.000  H
  O23      1.0000 0.55753  0.03803  0.07658  Biso   1.000  O
  O24      1.0000 0.56421  0.05114  0.93595  Biso   1.000  O
  C100     1.0000 0.57823  0.05675  0.01007  Biso   1.000  C
  C101     1.0000 0.62545  0.08894  0.02397  Biso   1.000  C
  C102     1.0000 0.65293  0.10999  0.95837  Biso   1.000  C
  H67      1.0000 0.64213  0.10537  0.90187  Biso   1.000  H
  C103     1.0000 0.69630  0.13799  0.97257  Biso   1.000  C
  H68      1.0000 0.71463  0.15237  0.92557  Biso   1.000  H
  C104     1.0000 0.71337  0.14547  0.05267  Biso   1.000  C
  C105     1.0000 0.68512  0.12602  0.11907  Biso   1.000  C
  H69      1.0000 0.69563  0.13197  0.17577  Biso   1.000  H
  C106     1.0000 0.64165  0.09791  0.10467  Biso   1.000  C
  H70      1.0000 0.62283  0.08467  0.15157  Biso   1.000  H
  C107     1.0000 0.76034  0.17232  0.07167  Biso   1.000  C
  C108     1.0000 0.77983  0.15388  0.11757  Biso   1.000  C
  H71      1.0000 0.76313  0.12437  0.13297  Biso   1.000  H
  H72      1.0000 0.76943  0.27517  0.09347  Biso   1.000  H
  O25      1.0000 0.14716  0.77580  0.40991  Biso   1.000  O
  O26      1.0000 0.15359  0.76912  0.26928  Biso   1.000  O
  C109     1.0000 0.14518  0.75510  0.34340  Biso   1.000  C
  C110     1.0000 0.13015  0.70788  0.35730  Biso   1.000  C
  C111     1.0000 0.12372  0.68040  0.29170  Biso   1.000  C
  H73      1.0000 0.12990  0.69120  0.23520  Biso   1.000  H
  C112     1.0000 0.10835  0.63703  0.30590  Biso   1.000  C
  H74      1.0000 0.10440  0.61870  0.25890  Biso   1.000  H
  C113     1.0000 0.09876  0.61996  0.38600  Biso   1.000  C
  C114     1.0000 0.10756  0.64821  0.45240  Biso   1.000  C
  H75      1.0000 0.10300  0.63770  0.50910  Biso   1.000  H
  C115     1.0000 0.12292  0.69168  0.43800  Biso   1.000  C
  H76      1.0000 0.12850  0.71050  0.48490  Biso   1.000  H
  C116     1.0000 0.07864  0.57299  0.40500  Biso   1.000  C
  C117     1.0000 0.04071  0.55350  0.45090  Biso   1.000  C
  H77      1.0000 0.02790  0.57020  0.46630  Biso   1.000  H
  H78      1.0000 0.17240  0.56390  0.42680  Biso   1.000  H
  O27      1.0000 0.81383  0.10913  0.74324  Biso   1.000  O
  O28      1.0000 0.82026  0.10245  0.60261  Biso   1.000  O
  C118     1.0000 0.81185  0.08843  0.67673  Biso   1.000  C
  C119     1.0000 0.79682  0.04121  0.69063  Biso   1.000  C
  C120     1.0000 0.79039  0.01373  0.62503  Biso   1.000  C
  H79      1.0000 0.79657  0.02453  0.56853  Biso   1.000  H
  C121     1.0000 0.77502  0.97036  0.63923  Biso   1.000  C
  H80      1.0000 0.77107  0.95203  0.59223  Biso   1.000  H
  C122     1.0000 0.76543  0.95329  0.71933  Biso   1.000  C
  C123     1.0000 0.77423  0.98154  0.78573  Biso   1.000  C
  H81      1.0000 0.76967  0.97103  0.84243  Biso   1.000  H
  C124     1.0000 0.78959  0.02501  0.77133  Biso   1.000  C
  H82      1.0000 0.79517  0.04383  0.81823  Biso   1.000  H
  C125     1.0000 0.74531  0.90632  0.73833  Biso   1.000  C
  C126     1.0000 0.70738  0.88683  0.78423  Biso   1.000  C
  H83      1.0000 0.69457  0.90353  0.79963  Biso   1.000  H
  H84      1.0000 0.83907  0.89723  0.76013  Biso   1.000  H
  O29      1.0000 0.48049  0.44247  0.07658  Biso   1.000  O
  O30      1.0000 0.48692  0.43579  0.93595  Biso   1.000  O
  C127     1.0000 0.47851  0.42177  0.01007  Biso   1.000  C
  C128     1.0000 0.46348  0.37455  0.02397  Biso   1.000  C
  C129     1.0000 0.45705  0.34707  0.95837  Biso   1.000  C
  H85      1.0000 0.46323  0.35787  0.90187  Biso   1.000  H
  C130     1.0000 0.44168  0.30370  0.97257  Biso   1.000  C
  H86      1.0000 0.43773  0.28537  0.92557  Biso   1.000  H
  C131     1.0000 0.43209  0.28663  0.05267  Biso   1.000  C
  C132     1.0000 0.44089  0.31488  0.11907  Biso   1.000  C
  H87      1.0000 0.43633  0.30437  0.17577  Biso   1.000  H
  C133     1.0000 0.45625  0.35835  0.10467  Biso   1.000  C
  H88      1.0000 0.46183  0.37717  0.15157  Biso   1.000  H
  C134     1.0000 0.41197  0.23966  0.07167  Biso   1.000  C
  C135     1.0000 0.37404  0.22017  0.11757  Biso   1.000  C
  H89      1.0000 0.36123  0.23687  0.13297  Biso   1.000  H
  H90      1.0000 0.50573  0.23057  0.09347  Biso   1.000  H
  O31      1.0000 0.62864  0.85284  0.40991  Biso   1.000  O
  O32      1.0000 0.61553  0.84641  0.26928  Biso   1.000  O
  C136     1.0000 0.60992  0.85482  0.34340  Biso   1.000  C
  C137     1.0000 0.57773  0.86985  0.35730  Biso   1.000  C
  C138     1.0000 0.55668  0.87628  0.29170  Biso   1.000  C
  H91      1.0000 0.56130  0.87010  0.23520  Biso   1.000  H
  C139     1.0000 0.52868  0.89165  0.30590  Biso   1.000  C
  H92      1.0000 0.51430  0.89560  0.25890  Biso   1.000  H
  C140     1.0000 0.52120  0.90124  0.38600  Biso   1.000  C
  C141     1.0000 0.54065  0.89244  0.45240  Biso   1.000  C
  H93      1.0000 0.53470  0.89700  0.50910  Biso   1.000  H
  C142     1.0000 0.56876  0.87708  0.43800  Biso   1.000  C
  H94      1.0000 0.58200  0.87150  0.48490  Biso   1.000  H
  C143     1.0000 0.49435  0.92136  0.40500  Biso   1.000  C
  C144     1.0000 0.51279  0.95929  0.45090  Biso   1.000  C
  H95      1.0000 0.54230  0.97210  0.46630  Biso   1.000  H
  H96      1.0000 0.39150  0.82760  0.42680  Biso   1.000  H
  O33      1.0000 0.29531  0.18617  0.74324  Biso   1.000  O
  O34      1.0000 0.28220  0.17974  0.60261  Biso   1.000  O
  C145     1.0000 0.27659  0.18815  0.67673  Biso   1.000  C
  C146     1.0000 0.24440  0.20318  0.69063  Biso   1.000  C
  C147     1.0000 0.22335  0.20961  0.62503  Biso   1.000  C
  H97      1.0000 0.22797  0.20343  0.56853  Biso   1.000  H
  C148     1.0000 0.19535  0.22498  0.63923  Biso   1.000  C
  H98      1.0000 0.18097  0.22893  0.59223  Biso   1.000  H
  C149     1.0000 0.18787  0.23457  0.71933  Biso   1.000  C
  C150     1.0000 0.20732  0.22577  0.78573  Biso   1.000  C
  H99      1.0000 0.20137  0.23033  0.84243  Biso   1.000  H
  C151     1.0000 0.23543  0.21041  0.77133  Biso   1.000  C
  H100     1.0000 0.24867  0.20483  0.81823  Biso   1.000  H
  C152     1.0000 0.16102  0.25469  0.73833  Biso   1.000  C
  C153     1.0000 0.17946  0.29262  0.78423  Biso   1.000  C
  H101     1.0000 0.20897  0.30543  0.79963  Biso   1.000  H
  H102     1.0000 0.05817  0.16093  0.76013  Biso   1.000  H
  O35      1.0000 0.96197  0.51951  0.07658  Biso   1.000  O
  O36      1.0000 0.94886  0.51308  0.93595  Biso   1.000  O
  C154     1.0000 0.94325  0.52149  0.01007  Biso   1.000  C
  C155     1.0000 0.91106  0.53652  0.02397  Biso   1.000  C
  C156     1.0000 0.89001  0.54295  0.95837  Biso   1.000  C
  H103     1.0000 0.89463  0.53677  0.90187  Biso   1.000  H
  C157     1.0000 0.86201  0.55832  0.97257  Biso   1.000  C
  H104     1.0000 0.84763  0.56227  0.92557  Biso   1.000  H
  C158     1.0000 0.85453  0.56791  0.05267  Biso   1.000  C
  C159     1.0000 0.87398  0.55911  0.11907  Biso   1.000  C
  H105     1.0000 0.86803  0.56367  0.17577  Biso   1.000  H
  C160     1.0000 0.90209  0.54375  0.10467  Biso   1.000  C
  H106     1.0000 0.91533  0.53817  0.15157  Biso   1.000  H
  C161     1.0000 0.82768  0.58803  0.07167  Biso   1.000  C
  C162     1.0000 0.84612  0.62596  0.11757  Biso   1.000  C
  H107     1.0000 0.87563  0.63877  0.13297  Biso   1.000  H
  H108     1.0000 0.72483  0.49427  0.09347  Biso   1.000  H
  O37      1.0000 0.62864  0.77580  0.40991  Biso   1.000  O
  O38      1.0000 0.61553  0.76912  0.26928  Biso   1.000  O
  C163     1.0000 0.60992  0.75510  0.34340  Biso   1.000  C
  C164     1.0000 0.57773  0.70788  0.35730  Biso   1.000  C
  C165     1.0000 0.55668  0.68040  0.29170  Biso   1.000  C
  H109     1.0000 0.56130  0.69120  0.23520  Biso   1.000  H
  C166     1.0000 0.52868  0.63703  0.30590  Biso   1.000  C
  H110     1.0000 0.51430  0.61870  0.25890  Biso   1.000  H
  C167     1.0000 0.52120  0.61996  0.38600  Biso   1.000  C
  C168     1.0000 0.54065  0.64821  0.45240  Biso   1.000  C
  H111     1.0000 0.53470  0.63770  0.50910  Biso   1.000  H
  C169     1.0000 0.56876  0.69168  0.43800  Biso   1.000  C
  H112     1.0000 0.58200  0.71050  0.48490  Biso   1.000  H
  C170     1.0000 0.49435  0.57299  0.40500  Biso   1.000  C
  C171     1.0000 0.51279  0.55350  0.45090  Biso   1.000  C
  H113     1.0000 0.54230  0.57020  0.46630  Biso   1.000  H
  H114     1.0000 0.39150  0.56390  0.42680  Biso   1.000  H
  O39      1.0000 0.29531  0.10913  0.74324  Biso   1.000  O
  O40      1.0000 0.28220  0.10245  0.60261  Biso   1.000  O
  C172     1.0000 0.27659  0.08843  0.67673  Biso   1.000  C
  C173     1.0000 0.24440  0.04121  0.69063  Biso   1.000  C
  C174     1.0000 0.22335  0.01373  0.62503  Biso   1.000  C
  H115     1.0000 0.22797  0.02453  0.56853  Biso   1.000  H
  C175     1.0000 0.19535  0.97036  0.63923  Biso   1.000  C
  H116     1.0000 0.18097  0.95203  0.59223  Biso   1.000  H
  C176     1.0000 0.18787  0.95329  0.71933  Biso   1.000  C
  C177     1.0000 0.20732  0.98154  0.78573  Biso   1.000  C
  H117     1.0000 0.20137  0.97103  0.84243  Biso   1.000  H
  C178     1.0000 0.23543  0.02501  0.77133  Biso   1.000  C
  H118     1.0000 0.24867  0.04383  0.81823  Biso   1.000  H
  C179     1.0000 0.16102  0.90632  0.73833  Biso   1.000  C
  C180     1.0000 0.17946  0.88683  0.78423  Biso   1.000  C
  H119     1.0000 0.20897  0.90353  0.79963  Biso   1.000  H
  H120     1.0000 0.05817  0.89723  0.76013  Biso   1.000  H
  O41      1.0000 0.96197  0.44247  0.07658  Biso   1.000  O
  O42      1.0000 0.94886  0.43579  0.93595  Biso   1.000  O
  C181     1.0000 0.94325  0.42177  0.01007  Biso   1.000  C
  C182     1.0000 0.91106  0.37455  0.02397  Biso   1.000  C
  C183     1.0000 0.89001  0.34707  0.95837  Biso   1.000  C
  H121     1.0000 0.89463  0.35787  0.90187  Biso   1.000  H
  C184     1.0000 0.86201  0.30370  0.97257  Biso   1.000  C
  H122     1.0000 0.84763  0.28537  0.92557  Biso   1.000  H
  C185     1.0000 0.85453  0.28663  0.05267  Biso   1.000  C
  C186     1.0000 0.87398  0.31488  0.11907  Biso   1.000  C
  H123     1.0000 0.86803  0.30437  0.17577  Biso   1.000  H
  C187     1.0000 0.90209  0.35835  0.10467  Biso   1.000  C
  H124     1.0000 0.91533  0.37717  0.15157  Biso   1.000  H
  C188     1.0000 0.82768  0.23966  0.07167  Biso   1.000  C
  C189     1.0000 0.84612  0.22017  0.11757  Biso   1.000  C
  H125     1.0000 0.87563  0.23687  0.13297  Biso   1.000  H
  H126     1.0000 0.72483  0.23057  0.09347  Biso   1.000  H
  O43      1.0000 0.22420  0.85284  0.40991  Biso   1.000  O
  O44      1.0000 0.23088  0.84641  0.26928  Biso   1.000  O
  C190     1.0000 0.24490  0.85482  0.34340  Biso   1.000  C
  C191     1.0000 0.29212  0.86985  0.35730  Biso   1.000  C
  C192     1.0000 0.31960  0.87628  0.29170  Biso   1.000  C
  H127     1.0000 0.30880  0.87010  0.23520  Biso   1.000  H
  C193     1.0000 0.36297  0.89165  0.30590  Biso   1.000  C
  H128     1.0000 0.38130  0.89560  0.25890  Biso   1.000  H
  C194     1.0000 0.38004  0.90124  0.38600  Biso   1.000  C
  C195     1.0000 0.35179  0.89244  0.45240  Biso   1.000  C
  H129     1.0000 0.36230  0.89700  0.50910  Biso   1.000  H
  C196     1.0000 0.30832  0.87708  0.43800  Biso   1.000  C
  H130     1.0000 0.28950  0.87150  0.48490  Biso   1.000  H
  C197     1.0000 0.42701  0.92136  0.40500  Biso   1.000  C
  C198     1.0000 0.44650  0.95929  0.45090  Biso   1.000  C
  H131     1.0000 0.42980  0.97210  0.46630  Biso   1.000  H
  H132     1.0000 0.43610  0.82760  0.42680  Biso   1.000  H
  O45      1.0000 0.89087  0.18617  0.74324  Biso   1.000  O
  O46      1.0000 0.89755  0.17974  0.60261  Biso   1.000  O
  C199     1.0000 0.91157  0.18815  0.67673  Biso   1.000  C
  C200     1.0000 0.95879  0.20318  0.69063  Biso   1.000  C
  C201     1.0000 0.98627  0.20961  0.62503  Biso   1.000  C
  H133     1.0000 0.97547  0.20343  0.56853  Biso   1.000  H
  C202     1.0000 0.02964  0.22498  0.63923  Biso   1.000  C
  H134     1.0000 0.04797  0.22893  0.59223  Biso   1.000  H
  C203     1.0000 0.04671  0.23457  0.71933  Biso   1.000  C
  C204     1.0000 0.01846  0.22577  0.78573  Biso   1.000  C
  H135     1.0000 0.02897  0.23033  0.84243  Biso   1.000  H
  C205     1.0000 0.97499  0.21041  0.77133  Biso   1.000  C
  H136     1.0000 0.95617  0.20483  0.81823  Biso   1.000  H
  C206     1.0000 0.09368  0.25469  0.73833  Biso   1.000  C
  C207     1.0000 0.11317  0.29262  0.78423  Biso   1.000  C
  H137     1.0000 0.09647  0.30543  0.79963  Biso   1.000  H
  H138     1.0000 0.10277  0.16093  0.76013  Biso   1.000  H
  O47      1.0000 0.55753  0.51951  0.07658  Biso   1.000  O
  O48      1.0000 0.56421  0.51308  0.93595  Biso   1.000  O
  C208     1.0000 0.57823  0.52149  0.01007  Biso   1.000  C
  C209     1.0000 0.62545  0.53652  0.02397  Biso   1.000  C
  C210     1.0000 0.65293  0.54295  0.95837  Biso   1.000  C
  H139     1.0000 0.64213  0.53677  0.90187  Biso   1.000  H
  C211     1.0000 0.69630  0.55832  0.97257  Biso   1.000  C
  H140     1.0000 0.71463  0.56227  0.92557  Biso   1.000  H
  C212     1.0000 0.71337  0.56791  0.05267  Biso   1.000  C
  C213     1.0000 0.68512  0.55911  0.11907  Biso   1.000  C
  H141     1.0000 0.69563  0.56367  0.17577  Biso   1.000  H
  C214     1.0000 0.64165  0.54375  0.10467  Biso   1.000  C
  H142     1.0000 0.62283  0.53817  0.15157  Biso   1.000  H
  C215     1.0000 0.76034  0.58803  0.07167  Biso   1.000  C
  C216     1.0000 0.77983  0.62596  0.11757  Biso   1.000  C
  H143     1.0000 0.76313  0.63877  0.13297  Biso   1.000  H
  H144     1.0000 0.76943  0.49427  0.09347  Biso   1.000  H
  O49      1.0000 0.14716  0.37136  0.40991  Biso   1.000  O
  O50      1.0000 0.15359  0.38447  0.26928  Biso   1.000  O
  C217     1.0000 0.14518  0.39008  0.34340  Biso   1.000  C
  C218     1.0000 0.13015  0.42227  0.35730  Biso   1.000  C
  C219     1.0000 0.12372  0.44332  0.29170  Biso   1.000  C
  H145     1.0000 0.12990  0.43870  0.23520  Biso   1.000  H
  C220     1.0000 0.10835  0.47132  0.30590  Biso   1.000  C
  H146     1.0000 0.10440  0.48570  0.25890  Biso   1.000  H
  C221     1.0000 0.09876  0.47880  0.38600  Biso   1.000  C
  C222     1.0000 0.10756  0.45935  0.45240  Biso   1.000  C
  H147     1.0000 0.10300  0.46530  0.50910  Biso   1.000  H
  C223     1.0000 0.12292  0.43124  0.43800  Biso   1.000  C
  H148     1.0000 0.12850  0.41800  0.48490  Biso   1.000  H
  C224     1.0000 0.07864  0.50565  0.40500  Biso   1.000  C
  C225     1.0000 0.04071  0.48721  0.45090  Biso   1.000  C
  H149     1.0000 0.02790  0.45770  0.46630  Biso   1.000  H
  H150     1.0000 0.17240  0.60850  0.42680  Biso   1.000  H
  O51      1.0000 0.81383  0.70469  0.74324  Biso   1.000  O
  O52      1.0000 0.82026  0.71780  0.60261  Biso   1.000  O
  C226     1.0000 0.81185  0.72341  0.67673  Biso   1.000  C
  C227     1.0000 0.79682  0.75560  0.69063  Biso   1.000  C
  C228     1.0000 0.79039  0.77665  0.62503  Biso   1.000  C
  H151     1.0000 0.79657  0.77203  0.56853  Biso   1.000  H
  C229     1.0000 0.77502  0.80465  0.63923  Biso   1.000  C
  H152     1.0000 0.77107  0.81903  0.59223  Biso   1.000  H
  C230     1.0000 0.76543  0.81213  0.71933  Biso   1.000  C
  C231     1.0000 0.77423  0.79268  0.78573  Biso   1.000  C
  H153     1.0000 0.76967  0.79863  0.84243  Biso   1.000  H
  C232     1.0000 0.78959  0.76457  0.77133  Biso   1.000  C
  H154     1.0000 0.79517  0.75133  0.81823  Biso   1.000  H
  C233     1.0000 0.74531  0.83898  0.73833  Biso   1.000  C
  C234     1.0000 0.70738  0.82054  0.78423  Biso   1.000  C
  H155     1.0000 0.69457  0.79103  0.79963  Biso   1.000  H
  H156     1.0000 0.83907  0.94183  0.76013  Biso   1.000  H
  O53      1.0000 0.48049  0.03803  0.07658  Biso   1.000  O
  O54      1.0000 0.48692  0.05114  0.93595  Biso   1.000  O
  C235     1.0000 0.47851  0.05675  0.01007  Biso   1.000  C
  C236     1.0000 0.46348  0.08894  0.02397  Biso   1.000  C
  C237     1.0000 0.45705  0.10999  0.95837  Biso   1.000  C
  H157     1.0000 0.46323  0.10537  0.90187  Biso   1.000  H
  C238     1.0000 0.44168  0.13799  0.97257  Biso   1.000  C
  H158     1.0000 0.43773  0.15237  0.92557  Biso   1.000  H
  C239     1.0000 0.43209  0.14547  0.05267  Biso   1.000  C
  C240     1.0000 0.44089  0.12602  0.11907  Biso   1.000  C
  H159     1.0000 0.43633  0.13197  0.17577  Biso   1.000  H
  C241     1.0000 0.45625  0.09791  0.10467  Biso   1.000  C
  H160     1.0000 0.46183  0.08467  0.15157  Biso   1.000  H
  C242     1.0000 0.41197  0.17232  0.07167  Biso   1.000  C
  C243     1.0000 0.37404  0.15388  0.11757  Biso   1.000  C
  H161     1.0000 0.36123  0.12437  0.13297  Biso   1.000  H
  H162     1.0000 0.50573  0.27517  0.09347  Biso   1.000  H
  O55      1.0000 0.77580  0.62864  0.59009  Biso   1.000  O
  O56      1.0000 0.76912  0.61553  0.73072  Biso   1.000  O
  C244     1.0000 0.75510  0.60992  0.65660  Biso   1.000  C
  C245     1.0000 0.70788  0.57773  0.64270  Biso   1.000  C
  C246     1.0000 0.68040  0.55668  0.70830  Biso   1.000  C
  H163     1.0000 0.69120  0.56130  0.76480  Biso   1.000  H
  C247     1.0000 0.63703  0.52868  0.69410  Biso   1.000  C
  H164     1.0000 0.61870  0.51430  0.74110  Biso   1.000  H
  C248     1.0000 0.61996  0.52120  0.61400  Biso   1.000  C
  C249     1.0000 0.64821  0.54065  0.54760  Biso   1.000  C
  H165     1.0000 0.63770  0.53470  0.49090  Biso   1.000  H
  C250     1.0000 0.69168  0.56876  0.56200  Biso   1.000  C
  H166     1.0000 0.71050  0.58200  0.51510  Biso   1.000  H
  C251     1.0000 0.57299  0.49435  0.59500  Biso   1.000  C
  C252     1.0000 0.55350  0.51279  0.54910  Biso   1.000  C
  H167     1.0000 0.57020  0.54230  0.53370  Biso   1.000  H
  H168     1.0000 0.56390  0.39150  0.57320  Biso   1.000  H
  O57      1.0000 0.44247  0.96197  0.92342  Biso   1.000  O
  O58      1.0000 0.43579  0.94886  0.06405  Biso   1.000  O
  C253     1.0000 0.42177  0.94325  0.98993  Biso   1.000  C
  C254     1.0000 0.37455  0.91106  0.97603  Biso   1.000  C
  C255     1.0000 0.34707  0.89001  0.04163  Biso   1.000  C
  H169     1.0000 0.35787  0.89463  0.09813  Biso   1.000  H
  C256     1.0000 0.30370  0.86201  0.02743  Biso   1.000  C
  H170     1.0000 0.28537  0.84763  0.07443  Biso   1.000  H
  C257     1.0000 0.28663  0.85453  0.94733  Biso   1.000  C
  C258     1.0000 0.31488  0.87398  0.88093  Biso   1.000  C
  H171     1.0000 0.30437  0.86803  0.82423  Biso   1.000  H
  C259     1.0000 0.35835  0.90209  0.89533  Biso   1.000  C
  H172     1.0000 0.37717  0.91533  0.84843  Biso   1.000  H
  C260     1.0000 0.23966  0.82768  0.92833  Biso   1.000  C
  C261     1.0000 0.22017  0.84612  0.88243  Biso   1.000  C
  H173     1.0000 0.23687  0.87563  0.86703  Biso   1.000  H
  H174     1.0000 0.23057  0.72483  0.90653  Biso   1.000  H
  O59      1.0000 0.10913  0.29531  0.25676  Biso   1.000  O
  O60      1.0000 0.10245  0.28220  0.39739  Biso   1.000  O
  C262     1.0000 0.08843  0.27659  0.32327  Biso   1.000  C
  C263     1.0000 0.04121  0.24440  0.30937  Biso   1.000  C
  C264     1.0000 0.01373  0.22335  0.37497  Biso   1.000  C
  H175     1.0000 0.02453  0.22797  0.43147  Biso   1.000  H
  C265     1.0000 0.97036  0.19535  0.36077  Biso   1.000  C
  H176     1.0000 0.95203  0.18097  0.40777  Biso   1.000  H
  C266     1.0000 0.95329  0.18787  0.28067  Biso   1.000  C
  C267     1.0000 0.98154  0.20732  0.21427  Biso   1.000  C
  H177     1.0000 0.97103  0.20137  0.15757  Biso   1.000  H
  C268     1.0000 0.02501  0.23543  0.22867  Biso   1.000  C
  H178     1.0000 0.04383  0.24867  0.18177  Biso   1.000  H
  C269     1.0000 0.90632  0.16102  0.26167  Biso   1.000  C
  C270     1.0000 0.88683  0.17946  0.21577  Biso   1.000  C
  H179     1.0000 0.90353  0.20897  0.20037  Biso   1.000  H
  H180     1.0000 0.89723  0.05817  0.23987  Biso   1.000  H
  O61      1.0000 0.85284  0.22420  0.59009  Biso   1.000  O
  O62      1.0000 0.84641  0.23088  0.73072  Biso   1.000  O
  C271     1.0000 0.85482  0.24490  0.65660  Biso   1.000  C
  C272     1.0000 0.86985  0.29212  0.64270  Biso   1.000  C
  C273     1.0000 0.87628  0.31960  0.70830  Biso   1.000  C
  H181     1.0000 0.87010  0.30880  0.76480  Biso   1.000  H
  C274     1.0000 0.89165  0.36297  0.69410  Biso   1.000  C
  H182     1.0000 0.89560  0.38130  0.74110  Biso   1.000  H
  C275     1.0000 0.90124  0.38004  0.61400  Biso   1.000  C
  C276     1.0000 0.89244  0.35179  0.54760  Biso   1.000  C
  H183     1.0000 0.89700  0.36230  0.49090  Biso   1.000  H
  C277     1.0000 0.87708  0.30832  0.56200  Biso   1.000  C
  H184     1.0000 0.87150  0.28950  0.51510  Biso   1.000  H
  C278     1.0000 0.92136  0.42701  0.59500  Biso   1.000  C
  C279     1.0000 0.95929  0.44650  0.54910  Biso   1.000  C
  H185     1.0000 0.97210  0.42980  0.53370  Biso   1.000  H
  H186     1.0000 0.82760  0.43610  0.57320  Biso   1.000  H
  O63      1.0000 0.51951  0.55753  0.92342  Biso   1.000  O
  O64      1.0000 0.51308  0.56421  0.06405  Biso   1.000  O
  C280     1.0000 0.52149  0.57823  0.98993  Biso   1.000  C
  C281     1.0000 0.53652  0.62545  0.97603  Biso   1.000  C
  C282     1.0000 0.54295  0.65293  0.04163  Biso   1.000  C
  H187     1.0000 0.53677  0.64213  0.09813  Biso   1.000  H
  C283     1.0000 0.55832  0.69630  0.02743  Biso   1.000  C
  H188     1.0000 0.56227  0.71463  0.07443  Biso   1.000  H
  C284     1.0000 0.56791  0.71337  0.94733  Biso   1.000  C
  C285     1.0000 0.55911  0.68512  0.88093  Biso   1.000  C
  H189     1.0000 0.56367  0.69563  0.82423  Biso   1.000  H
  C286     1.0000 0.54375  0.64165  0.89533  Biso   1.000  C
  H190     1.0000 0.53817  0.62283  0.84843  Biso   1.000  H
  C287     1.0000 0.58803  0.76034  0.92833  Biso   1.000  C
  C288     1.0000 0.62596  0.77983  0.88243  Biso   1.000  C
  H191     1.0000 0.63877  0.76313  0.86703  Biso   1.000  H
  H192     1.0000 0.49427  0.76943  0.90653  Biso   1.000  H
  O65      1.0000 0.18617  0.89087  0.25676  Biso   1.000  O
  O66      1.0000 0.17974  0.89755  0.39739  Biso   1.000  O
  C289     1.0000 0.18815  0.91157  0.32327  Biso   1.000  C
  C290     1.0000 0.20318  0.95879  0.30937  Biso   1.000  C
  C291     1.0000 0.20961  0.98627  0.37497  Biso   1.000  C
  H193     1.0000 0.20343  0.97547  0.43147  Biso   1.000  H
  C292     1.0000 0.22498  0.02964  0.36077  Biso   1.000  C
  H194     1.0000 0.22893  0.04797  0.40777  Biso   1.000  H
  C293     1.0000 0.23457  0.04671  0.28067  Biso   1.000  C
  C294     1.0000 0.22577  0.01846  0.21427  Biso   1.000  C
  H195     1.0000 0.23033  0.02897  0.15757  Biso   1.000  H
  C295     1.0000 0.21041  0.97499  0.22867  Biso   1.000  C
  H196     1.0000 0.20483  0.95617  0.18177  Biso   1.000  H
  C296     1.0000 0.25469  0.09368  0.26167  Biso   1.000  C
  C297     1.0000 0.29262  0.11317  0.21577  Biso   1.000  C
  H197     1.0000 0.30543  0.09647  0.20037  Biso   1.000  H
  H198     1.0000 0.16093  0.10277  0.23987  Biso   1.000  H
  O67      1.0000 0.37136  0.14716  0.59009  Biso   1.000  O
  O68      1.0000 0.38447  0.15359  0.73072  Biso   1.000  O
  C298     1.0000 0.39008  0.14518  0.65660  Biso   1.000  C
  C299     1.0000 0.42227  0.13015  0.64270  Biso   1.000  C
  C300     1.0000 0.44332  0.12372  0.70830  Biso   1.000  C
  H199     1.0000 0.43870  0.12990  0.76480  Biso   1.000  H
  C301     1.0000 0.47132  0.10835  0.69410  Biso   1.000  C
  H200     1.0000 0.48570  0.10440  0.74110  Biso   1.000  H
  C302     1.0000 0.47880  0.09876  0.61400  Biso   1.000  C
  C303     1.0000 0.45935  0.10756  0.54760  Biso   1.000  C
  H201     1.0000 0.46530  0.10300  0.49090  Biso   1.000  H
  C304     1.0000 0.43124  0.12292  0.56200  Biso   1.000  C
  H202     1.0000 0.41800  0.12850  0.51510  Biso   1.000  H
  C305     1.0000 0.50565  0.07864  0.59500  Biso   1.000  C
  C306     1.0000 0.48721  0.04071  0.54910  Biso   1.000  C
  H203     1.0000 0.45770  0.02790  0.53370  Biso   1.000  H
  H204     1.0000 0.60850  0.17240  0.57320  Biso   1.000  H
  O69      1.0000 0.03803  0.48049  0.92342  Biso   1.000  O
  O70      1.0000 0.05114  0.48692  0.06405  Biso   1.000  O
  C307     1.0000 0.05675  0.47851  0.98993  Biso   1.000  C
  C308     1.0000 0.08894  0.46348  0.97603  Biso   1.000  C
  C309     1.0000 0.10999  0.45705  0.04163  Biso   1.000  C
  H205     1.0000 0.10537  0.46323  0.09813  Biso   1.000  H
  C310     1.0000 0.13799  0.44168  0.02743  Biso   1.000  C
  H206     1.0000 0.15237  0.43773  0.07443  Biso   1.000  H
  C311     1.0000 0.14547  0.43209  0.94733  Biso   1.000  C
  C312     1.0000 0.12602  0.44089  0.88093  Biso   1.000  C
  H207     1.0000 0.13197  0.43633  0.82423  Biso   1.000  H
  C313     1.0000 0.09791  0.45625  0.89533  Biso   1.000  C
  H208     1.0000 0.08467  0.46183  0.84843  Biso   1.000  H
  C314     1.0000 0.17232  0.41197  0.92833  Biso   1.000  C
  C315     1.0000 0.15388  0.37404  0.88243  Biso   1.000  C
  H209     1.0000 0.12437  0.36123  0.86703  Biso   1.000  H
  H210     1.0000 0.27517  0.50573  0.90653  Biso   1.000  H
  O71      1.0000 0.70469  0.81383  0.25676  Biso   1.000  O
  O72      1.0000 0.71780  0.82026  0.39739  Biso   1.000  O
  C316     1.0000 0.72341  0.81185  0.32327  Biso   1.000  C
  C317     1.0000 0.75560  0.79682  0.30937  Biso   1.000  C
  C318     1.0000 0.77665  0.79039  0.37497  Biso   1.000  C
  H211     1.0000 0.77203  0.79657  0.43147  Biso   1.000  H
  C319     1.0000 0.80465  0.77502  0.36077  Biso   1.000  C
  H212     1.0000 0.81903  0.77107  0.40777  Biso   1.000  H
  C320     1.0000 0.81213  0.76543  0.28067  Biso   1.000  C
  C321     1.0000 0.79268  0.77423  0.21427  Biso   1.000  C
  H213     1.0000 0.79863  0.76967  0.15757  Biso   1.000  H
  C322     1.0000 0.76457  0.78959  0.22867  Biso   1.000  C
  H214     1.0000 0.75133  0.79517  0.18177  Biso   1.000  H
  C323     1.0000 0.83898  0.74531  0.26167  Biso   1.000  C
  C324     1.0000 0.82054  0.70738  0.21577  Biso   1.000  C
  H215     1.0000 0.79103  0.69457  0.20037  Biso   1.000  H
  H216     1.0000 0.94183  0.83907  0.23987  Biso   1.000  H
  Cu1      1.0000 0.34061  0.17030  0.74964  Biso   1.000  Cu
  Cu2      1.0000 0.00728  0.50364  0.08297  Biso   1.000  Cu
  Cu3      1.0000 0.67394  0.83697  0.41631  Biso   1.000  Cu
  Cu4      1.0000 0.82970  0.17031  0.74964  Biso   1.000  Cu
  Cu5      1.0000 0.49636  0.50364  0.08297  Biso   1.000  Cu
  Cu6      1.0000 0.16303  0.83697  0.41631  Biso   1.000  Cu
  Cu7      1.0000 0.82969  0.65939  0.74964  Biso   1.000  Cu
  Cu8      1.0000 0.49636  0.99272  0.08297  Biso   1.000  Cu
  Cu9      1.0000 0.16303  0.32606  0.41631  Biso   1.000  Cu
  Cu10     1.0000 0.17030  0.34061  0.25036  Biso   1.000  Cu
  Cu11     1.0000 0.83697  0.67394  0.58369  Biso   1.000  Cu
  Cu12     1.0000 0.50364  0.00728  0.91703  Biso   1.000  Cu
  Cu13     1.0000 0.17031  0.82970  0.25036  Biso   1.000  Cu
  Cu14     1.0000 0.83697  0.16303  0.58369  Biso   1.000  Cu
  Cu15     1.0000 0.50364  0.49636  0.91703  Biso   1.000  Cu
  Cu16     1.0000 0.65939  0.82969  0.25036  Biso   1.000  Cu
  Cu17     1.0000 0.32606  0.16303  0.58369  Biso   1.000  Cu
  Cu18     1.0000 0.99272  0.49636  0.91703  Biso   1.000  Cu
  O73      1.0000 0.56768  0.43232  0.66470  Biso   1.000  O
  C325     1.0000 0.51010  0.48990  0.52430  Biso   1.000  C
  C326     1.0000 0.54865  0.45135  0.62070  Biso   1.000  C
  C327     1.0000 0.58645  0.41355  0.60920  Biso   1.000  C
  H217     1.0000 0.59960  0.40040  0.64380  Biso   1.000  H
  O74      1.0000 0.23435  0.76565  0.99803  Biso   1.000  O
  C328     1.0000 0.17677  0.82323  0.85763  Biso   1.000  C
  C329     1.0000 0.21532  0.78468  0.95403  Biso   1.000  C
  C330     1.0000 0.25312  0.74688  0.94253  Biso   1.000  C
  H218     1.0000 0.26627  0.73373  0.97713  Biso   1.000  H
  O75      1.0000 0.90101  0.09899  0.33137  Biso   1.000  O
  C331     1.0000 0.84343  0.15657  0.19097  Biso   1.000  C
  C332     1.0000 0.88198  0.11802  0.28737  Biso   1.000  C
  C333     1.0000 0.91978  0.08022  0.27587  Biso   1.000  C
  H219     1.0000 0.93293  0.06707  0.31047  Biso   1.000  H
  O76      1.0000 0.56768  0.13536  0.66470  Biso   1.000  O
  C334     1.0000 0.51010  0.02020  0.52430  Biso   1.000  C
  C335     1.0000 0.54865  0.09730  0.62070  Biso   1.000  C
  C336     1.0000 0.58645  0.17290  0.60920  Biso   1.000  C
  H220     1.0000 0.59960  0.19920  0.64380  Biso   1.000  H
  O77      1.0000 0.23435  0.46869  0.99803  Biso   1.000  O
  C337     1.0000 0.17677  0.35353  0.85763  Biso   1.000  C
  C338     1.0000 0.21532  0.43063  0.95403  Biso   1.000  C
  C339     1.0000 0.25312  0.50623  0.94253  Biso   1.000  C
  H221     1.0000 0.26627  0.53253  0.97713  Biso   1.000  H
  O78      1.0000 0.90101  0.80203  0.33137  Biso   1.000  O
  C340     1.0000 0.84343  0.68687  0.19097  Biso   1.000  C
  C341     1.0000 0.88198  0.76397  0.28737  Biso   1.000  C
  C342     1.0000 0.91978  0.83957  0.27587  Biso   1.000  C
  H222     1.0000 0.93293  0.86587  0.31047  Biso   1.000  H
  O79      1.0000 0.86464  0.43232  0.66470  Biso   1.000  O
  C343     1.0000 0.97980  0.48990  0.52430  Biso   1.000  C
  C344     1.0000 0.90270  0.45135  0.62070  Biso   1.000  C
  C345     1.0000 0.82710  0.41355  0.60920  Biso   1.000  C
  H223     1.0000 0.80080  0.40040  0.64380  Biso   1.000  H
  O80      1.0000 0.53131  0.76565  0.99803  Biso   1.000  O
  C346     1.0000 0.64647  0.82323  0.85763  Biso   1.000  C
  C347     1.0000 0.56937  0.78468  0.95403  Biso   1.000  C
  C348     1.0000 0.49377  0.74688  0.94253  Biso   1.000  C
  H224     1.0000 0.46747  0.73373  0.97713  Biso   1.000  H
  O81      1.0000 0.19797  0.09899  0.33137  Biso   1.000  O
  C349     1.0000 0.31313  0.15657  0.19097  Biso   1.000  C
  C350     1.0000 0.23603  0.11802  0.28737  Biso   1.000  C
  C351     1.0000 0.16043  0.08022  0.27587  Biso   1.000  C
  H225     1.0000 0.13413  0.06707  0.31047  Biso   1.000  H
  O82      1.0000 0.43232  0.56768  0.33530  Biso   1.000  O
  C352     1.0000 0.48990  0.51010  0.47570  Biso   1.000  C
  C353     1.0000 0.45135  0.54865  0.37930  Biso   1.000  C
  C354     1.0000 0.41355  0.58645  0.39080  Biso   1.000  C
  H226     1.0000 0.40040  0.59960  0.35620  Biso   1.000  H
  O83      1.0000 0.09899  0.90101  0.66863  Biso   1.000  O
  C355     1.0000 0.15657  0.84343  0.80903  Biso   1.000  C
  C356     1.0000 0.11802  0.88198  0.71263  Biso   1.000  C
  C357     1.0000 0.08022  0.91978  0.72413  Biso   1.000  C
  H227     1.0000 0.06707  0.93293  0.68953  Biso   1.000  H
  O84      1.0000 0.76565  0.23435  0.00197  Biso   1.000  O
  C358     1.0000 0.82323  0.17677  0.14237  Biso   1.000  C
  C359     1.0000 0.78468  0.21532  0.04597  Biso   1.000  C
  C360     1.0000 0.74688  0.25312  0.05747  Biso   1.000  C
  H228     1.0000 0.73373  0.26627  0.02287  Biso   1.000  H
  O85      1.0000 0.13536  0.56768  0.33530  Biso   1.000  O
  C361     1.0000 0.02020  0.51010  0.47570  Biso   1.000  C
  C362     1.0000 0.09730  0.54865  0.37930  Biso   1.000  C
  C363     1.0000 0.17290  0.58645  0.39080  Biso   1.000  C
  H229     1.0000 0.19920  0.59960  0.35620  Biso   1.000  H
  O86      1.0000 0.80203  0.90101  0.66863  Biso   1.000  O
  C364     1.0000 0.68687  0.84343  0.80903  Biso   1.000  C
  C365     1.0000 0.76397  0.88198  0.71263  Biso   1.000  C
  C366     1.0000 0.83957  0.91978  0.72413  Biso   1.000  C
  H230     1.0000 0.86587  0.93293  0.68953  Biso   1.000  H
  O87      1.0000 0.46869  0.23435  0.00197  Biso   1.000  O
  C367     1.0000 0.35353  0.17677  0.14237  Biso   1.000  C
  C368     1.0000 0.43063  0.21532  0.04597  Biso   1.000  C
  C369     1.0000 0.50623  0.25312  0.05747  Biso   1.000  C
  H231     1.0000 0.53253  0.26627  0.02287  Biso   1.000  H
  O88      1.0000 0.43232  0.86464  0.33530  Biso   1.000  O
  C370     1.0000 0.48990  0.97980  0.47570  Biso   1.000  C
  C371     1.0000 0.45135  0.90270  0.37930  Biso   1.000  C
  C372     1.0000 0.41355  0.82710  0.39080  Biso   1.000  C
  H232     1.0000 0.40040  0.80080  0.35620  Biso   1.000  H
  O89      1.0000 0.09899  0.19797  0.66863  Biso   1.000  O
  C373     1.0000 0.15657  0.31313  0.80903  Biso   1.000  C
  C374     1.0000 0.11802  0.23603  0.71263  Biso   1.000  C
  C375     1.0000 0.08022  0.16043  0.72413  Biso   1.000  C
  H233     1.0000 0.06707  0.13413  0.68953  Biso   1.000  H
  O90      1.0000 0.76565  0.53131  0.00197  Biso   1.000  O
  C376     1.0000 0.82323  0.64647  0.14237  Biso   1.000  C
  C377     1.0000 0.78468  0.56937  0.04597  Biso   1.000  C
  C378     1.0000 0.74688  0.49377  0.05747  Biso   1.000  C
  H234     1.0000 0.73373  0.46747  0.02287  Biso   1.000  H
