data_image0
_cell_length_a       35.0227
_cell_length_b       35.0227
_cell_length_c       22.7539
_cell_angle_alpha    90
_cell_angle_beta     90
_cell_angle_gamma    120

_symmetry_space_group_name_H-M    "P 1"
_symmetry_int_tables_number       1

loop_
  _symmetry_equiv_pos_as_xyz
  'x, y, z'

loop_
  _atom_site_label
  _atom_site_occupancy
  _atom_site_fract_x
  _atom_site_fract_y
  _atom_site_fract_z
  _atom_site_thermal_displace_type
  _atom_site_B_iso_or_equiv
  _atom_site_type_symbol
  O1       1.0000 0.21988  0.36137  0.40115  Biso   1.000  O
  O2       1.0000 0.23409  0.38946  0.31041  Biso   1.000  O
  C1       1.0000 0.24467  0.38754  0.36182  Biso   1.000  C
  C2       1.0000 0.29164  0.41901  0.38024  Biso   1.000  C
  C3       1.0000 0.32180  0.44703  0.33936  Biso   1.000  C
  H1       1.0000 0.31310  0.44670  0.30070  Biso   1.000  H
  C4       1.0000 0.36500  0.47562  0.35593  Biso   1.000  C
  H2       1.0000 0.38490  0.49480  0.32820  Biso   1.000  H
  C5       1.0000 0.37901  0.47629  0.41184  Biso   1.000  C
  C6       1.0000 0.34851  0.44805  0.45304  Biso   1.000  C
  H3       1.0000 0.35720  0.44820  0.49170  Biso   1.000  H
  C7       1.0000 0.30519  0.41962  0.43623  Biso   1.000  C
  H4       1.0000 0.28510  0.40070  0.46390  Biso   1.000  H
  C8       1.0000 0.42608  0.50472  0.43023  Biso   1.000  C
  C9       1.0000 0.44574  0.48631  0.46400  Biso   1.000  C
  H5       1.0000 0.42880  0.45700  0.47530  Biso   1.000  H
  H6       1.0000 0.43520  0.60950  0.43630  Biso   1.000  H
  O3       1.0000 0.88655  0.69470  0.73448  Biso   1.000  O
  O4       1.0000 0.90076  0.72279  0.64374  Biso   1.000  O
  C10      1.0000 0.91134  0.72087  0.69515  Biso   1.000  C
  C11      1.0000 0.95831  0.75234  0.71357  Biso   1.000  C
  C12      1.0000 0.98847  0.78036  0.67269  Biso   1.000  C
  H7       1.0000 0.97977  0.78003  0.63403  Biso   1.000  H
  C13      1.0000 0.03167  0.80895  0.68926  Biso   1.000  C
  H8       1.0000 0.05157  0.82813  0.66153  Biso   1.000  H
  C14      1.0000 0.04568  0.80962  0.74517  Biso   1.000  C
  C15      1.0000 0.01518  0.78138  0.78637  Biso   1.000  C
  H9       1.0000 0.02387  0.78153  0.82503  Biso   1.000  H
  C16      1.0000 0.97186  0.75295  0.76956  Biso   1.000  C
  H10      1.0000 0.95177  0.73403  0.79723  Biso   1.000  H
  C17      1.0000 0.09275  0.83805  0.76356  Biso   1.000  C
  C18      1.0000 0.11241  0.81964  0.79733  Biso   1.000  C
  H11      1.0000 0.09547  0.79033  0.80863  Biso   1.000  H
  H12      1.0000 0.10187  0.94283  0.76963  Biso   1.000  H
  O5       1.0000 0.55321  0.02804  0.06782  Biso   1.000  O
  O6       1.0000 0.56742  0.05613  0.97708  Biso   1.000  O
  C19      1.0000 0.57800  0.05421  0.02849  Biso   1.000  C
  C20      1.0000 0.62497  0.08568  0.04691  Biso   1.000  C
  C21      1.0000 0.65513  0.11370  0.00603  Biso   1.000  C
  H13      1.0000 0.64643  0.11337  0.96737  Biso   1.000  H
  C22      1.0000 0.69833  0.14229  0.02260  Biso   1.000  C
  H14      1.0000 0.71823  0.16147  0.99487  Biso   1.000  H
  C23      1.0000 0.71234  0.14296  0.07851  Biso   1.000  C
  C24      1.0000 0.68184  0.11472  0.11971  Biso   1.000  C
  H15      1.0000 0.69053  0.11487  0.15837  Biso   1.000  H
  C25      1.0000 0.63852  0.08629  0.10290  Biso   1.000  C
  H16      1.0000 0.61843  0.06737  0.13057  Biso   1.000  H
  C26      1.0000 0.75941  0.17139  0.09690  Biso   1.000  C
  C27      1.0000 0.77907  0.15298  0.13067  Biso   1.000  C
  H17      1.0000 0.76213  0.12367  0.14197  Biso   1.000  H
  H18      1.0000 0.76853  0.27617  0.10297  Biso   1.000  H
  O7       1.0000 0.63863  0.85851  0.40115  Biso   1.000  O
  O8       1.0000 0.61054  0.84463  0.31041  Biso   1.000  O
  C28      1.0000 0.61246  0.85713  0.36182  Biso   1.000  C
  C29      1.0000 0.58099  0.87263  0.38024  Biso   1.000  C
  C30      1.0000 0.55297  0.87477  0.33936  Biso   1.000  C
  H19      1.0000 0.55330  0.86640  0.30070  Biso   1.000  H
  C31      1.0000 0.52438  0.88938  0.35593  Biso   1.000  C
  H20      1.0000 0.50520  0.89010  0.32820  Biso   1.000  H
  C32      1.0000 0.52371  0.90272  0.41184  Biso   1.000  C
  C33      1.0000 0.55195  0.90046  0.45304  Biso   1.000  C
  H21      1.0000 0.55180  0.90900  0.49170  Biso   1.000  H
  C34      1.0000 0.58038  0.88557  0.43623  Biso   1.000  C
  H22      1.0000 0.59930  0.88440  0.46390  Biso   1.000  H
  C35      1.0000 0.49528  0.92136  0.43023  Biso   1.000  C
  C36      1.0000 0.51369  0.95943  0.46400  Biso   1.000  C
  H23      1.0000 0.54300  0.97180  0.47530  Biso   1.000  H
  H24      1.0000 0.39050  0.82570  0.43630  Biso   1.000  H
  O9       1.0000 0.30530  0.19184  0.73448  Biso   1.000  O
  O10      1.0000 0.27721  0.17796  0.64374  Biso   1.000  O
  C37      1.0000 0.27913  0.19046  0.69515  Biso   1.000  C
  C38      1.0000 0.24766  0.20596  0.71357  Biso   1.000  C
  C39      1.0000 0.21964  0.20810  0.67269  Biso   1.000  C
  H25      1.0000 0.21997  0.19973  0.63403  Biso   1.000  H
  C40      1.0000 0.19105  0.22271  0.68926  Biso   1.000  C
  H26      1.0000 0.17187  0.22343  0.66153  Biso   1.000  H
  C41      1.0000 0.19038  0.23605  0.74517  Biso   1.000  C
  C42      1.0000 0.21862  0.23379  0.78637  Biso   1.000  C
  H27      1.0000 0.21847  0.24233  0.82503  Biso   1.000  H
  C43      1.0000 0.24705  0.21890  0.76956  Biso   1.000  C
  H28      1.0000 0.26597  0.21773  0.79723  Biso   1.000  H
  C44      1.0000 0.16195  0.25469  0.76356  Biso   1.000  C
  C45      1.0000 0.18036  0.29276  0.79733  Biso   1.000  C
  H29      1.0000 0.20967  0.30513  0.80863  Biso   1.000  H
  H30      1.0000 0.05717  0.15903  0.76963  Biso   1.000  H
  O11      1.0000 0.97196  0.52518  0.06782  Biso   1.000  O
  O12      1.0000 0.94387  0.51130  0.97708  Biso   1.000  O
  C46      1.0000 0.94579  0.52380  0.02849  Biso   1.000  C
  C47      1.0000 0.91432  0.53930  0.04691  Biso   1.000  C
  C48      1.0000 0.88630  0.54144  0.00603  Biso   1.000  C
  H31      1.0000 0.88663  0.53307  0.96737  Biso   1.000  H
  C49      1.0000 0.85771  0.55605  0.02260  Biso   1.000  C
  H32      1.0000 0.83853  0.55677  0.99487  Biso   1.000  H
  C50      1.0000 0.85704  0.56939  0.07851  Biso   1.000  C
  C51      1.0000 0.88528  0.56713  0.11971  Biso   1.000  C
  H33      1.0000 0.88513  0.57567  0.15837  Biso   1.000  H
  C52      1.0000 0.91371  0.55224  0.10290  Biso   1.000  C
  H34      1.0000 0.93263  0.55107  0.13057  Biso   1.000  H
  C53      1.0000 0.82861  0.58803  0.09690  Biso   1.000  C
  C54      1.0000 0.84702  0.62610  0.13067  Biso   1.000  C
  H35      1.0000 0.87633  0.63847  0.14197  Biso   1.000  H
  H36      1.0000 0.72383  0.49237  0.10297  Biso   1.000  H
  O13      1.0000 0.14149  0.78012  0.40115  Biso   1.000  O
  O14      1.0000 0.15537  0.76591  0.31041  Biso   1.000  O
  C55      1.0000 0.14287  0.75533  0.36182  Biso   1.000  C
  C56      1.0000 0.12737  0.70836  0.38024  Biso   1.000  C
  C57      1.0000 0.12523  0.67820  0.33936  Biso   1.000  C
  H37      1.0000 0.13360  0.68690  0.30070  Biso   1.000  H
  C58      1.0000 0.11062  0.63500  0.35593  Biso   1.000  C
  H38      1.0000 0.10990  0.61510  0.32820  Biso   1.000  H
  C59      1.0000 0.09728  0.62099  0.41184  Biso   1.000  C
  C60      1.0000 0.09954  0.65149  0.45304  Biso   1.000  C
  H39      1.0000 0.09100  0.64280  0.49170  Biso   1.000  H
  C61      1.0000 0.11443  0.69481  0.43623  Biso   1.000  C
  H40      1.0000 0.11560  0.71490  0.46390  Biso   1.000  H
  C62      1.0000 0.07864  0.57392  0.43023  Biso   1.000  C
  C63      1.0000 0.04057  0.55426  0.46400  Biso   1.000  C
  H41      1.0000 0.02820  0.57120  0.47530  Biso   1.000  H
  H42      1.0000 0.17430  0.56480  0.43630  Biso   1.000  H
  O15      1.0000 0.80816  0.11345  0.73448  Biso   1.000  O
  O16      1.0000 0.82204  0.09924  0.64374  Biso   1.000  O
  C64      1.0000 0.80954  0.08866  0.69515  Biso   1.000  C
  C65      1.0000 0.79404  0.04169  0.71357  Biso   1.000  C
  C66      1.0000 0.79190  0.01153  0.67269  Biso   1.000  C
  H43      1.0000 0.80027  0.02023  0.63403  Biso   1.000  H
  C67      1.0000 0.77729  0.96833  0.68926  Biso   1.000  C
  H44      1.0000 0.77657  0.94843  0.66153  Biso   1.000  H
  C68      1.0000 0.76395  0.95432  0.74517  Biso   1.000  C
  C69      1.0000 0.76621  0.98482  0.78637  Biso   1.000  C
  H45      1.0000 0.75767  0.97613  0.82503  Biso   1.000  H
  C70      1.0000 0.78110  0.02814  0.76956  Biso   1.000  C
  H46      1.0000 0.78227  0.04823  0.79723  Biso   1.000  H
  C71      1.0000 0.74531  0.90725  0.76356  Biso   1.000  C
  C72      1.0000 0.70724  0.88759  0.79733  Biso   1.000  C
  H47      1.0000 0.69487  0.90453  0.80863  Biso   1.000  H
  H48      1.0000 0.84097  0.89813  0.76963  Biso   1.000  H
  O17      1.0000 0.47482  0.44679  0.06782  Biso   1.000  O
  O18      1.0000 0.48870  0.43258  0.97708  Biso   1.000  O
  C73      1.0000 0.47620  0.42200  0.02849  Biso   1.000  C
  C74      1.0000 0.46070  0.37503  0.04691  Biso   1.000  C
  C75      1.0000 0.45856  0.34487  0.00603  Biso   1.000  C
  H49      1.0000 0.46693  0.35357  0.96737  Biso   1.000  H
  C76      1.0000 0.44395  0.30167  0.02260  Biso   1.000  C
  H50      1.0000 0.44323  0.28177  0.99487  Biso   1.000  H
  C77      1.0000 0.43061  0.28766  0.07851  Biso   1.000  C
  C78      1.0000 0.43287  0.31816  0.11971  Biso   1.000  C
  H51      1.0000 0.42433  0.30947  0.15837  Biso   1.000  H
  C79      1.0000 0.44776  0.36148  0.10290  Biso   1.000  C
  H52      1.0000 0.44893  0.38157  0.13057  Biso   1.000  H
  C80      1.0000 0.41197  0.24059  0.09690  Biso   1.000  C
  C81      1.0000 0.37390  0.22093  0.13067  Biso   1.000  C
  H53      1.0000 0.36153  0.23787  0.14197  Biso   1.000  H
  H54      1.0000 0.50763  0.23147  0.10297  Biso   1.000  H
  O19      1.0000 0.36137  0.21988  0.59885  Biso   1.000  O
  O20      1.0000 0.38946  0.23409  0.68959  Biso   1.000  O
  C82      1.0000 0.38754  0.24467  0.63818  Biso   1.000  C
  C83      1.0000 0.41901  0.29164  0.61976  Biso   1.000  C
  C84      1.0000 0.44703  0.32180  0.66064  Biso   1.000  C
  H55      1.0000 0.44670  0.31310  0.69930  Biso   1.000  H
  C85      1.0000 0.47562  0.36500  0.64407  Biso   1.000  C
  H56      1.0000 0.49480  0.38490  0.67180  Biso   1.000  H
  C86      1.0000 0.47629  0.37901  0.58816  Biso   1.000  C
  C87      1.0000 0.44805  0.34851  0.54696  Biso   1.000  C
  H57      1.0000 0.44820  0.35720  0.50830  Biso   1.000  H
  C88      1.0000 0.41962  0.30519  0.56377  Biso   1.000  C
  H58      1.0000 0.40070  0.28510  0.53610  Biso   1.000  H
  C89      1.0000 0.50472  0.42608  0.56977  Biso   1.000  C
  C90      1.0000 0.48631  0.44574  0.53600  Biso   1.000  C
  H59      1.0000 0.45700  0.42880  0.52470  Biso   1.000  H
  H60      1.0000 0.60950  0.43520  0.56370  Biso   1.000  H
  O21      1.0000 0.02804  0.55321  0.93218  Biso   1.000  O
  O22      1.0000 0.05613  0.56742  0.02292  Biso   1.000  O
  C91      1.0000 0.05421  0.57800  0.97151  Biso   1.000  C
  C92      1.0000 0.08568  0.62497  0.95309  Biso   1.000  C
  C93      1.0000 0.11370  0.65513  0.99397  Biso   1.000  C
  H61      1.0000 0.11337  0.64643  0.03263  Biso   1.000  H
  C94      1.0000 0.14229  0.69833  0.97740  Biso   1.000  C
  H62      1.0000 0.16147  0.71823  0.00513  Biso   1.000  H
  C95      1.0000 0.14296  0.71234  0.92149  Biso   1.000  C
  C96      1.0000 0.11472  0.68184  0.88029  Biso   1.000  C
  H63      1.0000 0.11487  0.69053  0.84163  Biso   1.000  H
  C97      1.0000 0.08629  0.63852  0.89710  Biso   1.000  C
  H64      1.0000 0.06737  0.61843  0.86943  Biso   1.000  H
  C98      1.0000 0.17139  0.75941  0.90310  Biso   1.000  C
  C99      1.0000 0.15298  0.77907  0.86933  Biso   1.000  C
  H65      1.0000 0.12367  0.76213  0.85803  Biso   1.000  H
  H66      1.0000 0.27617  0.76853  0.89703  Biso   1.000  H
  O23      1.0000 0.69470  0.88655  0.26552  Biso   1.000  O
  O24      1.0000 0.72279  0.90076  0.35626  Biso   1.000  O
  C100     1.0000 0.72087  0.91134  0.30485  Biso   1.000  C
  C101     1.0000 0.75234  0.95831  0.28643  Biso   1.000  C
  C102     1.0000 0.78036  0.98847  0.32731  Biso   1.000  C
  H67      1.0000 0.78003  0.97977  0.36597  Biso   1.000  H
  C103     1.0000 0.80895  0.03167  0.31074  Biso   1.000  C
  H68      1.0000 0.82813  0.05157  0.33847  Biso   1.000  H
  C104     1.0000 0.80962  0.04568  0.25483  Biso   1.000  C
  C105     1.0000 0.78138  0.01518  0.21363  Biso   1.000  C
  H69      1.0000 0.78153  0.02387  0.17497  Biso   1.000  H
  C106     1.0000 0.75295  0.97186  0.23044  Biso   1.000  C
  H70      1.0000 0.73403  0.95177  0.20277  Biso   1.000  H
  C107     1.0000 0.83805  0.09275  0.23644  Biso   1.000  C
  C108     1.0000 0.81964  0.11241  0.20267  Biso   1.000  C
  H71      1.0000 0.79033  0.09547  0.19137  Biso   1.000  H
  H72      1.0000 0.94283  0.10187  0.23037  Biso   1.000  H
  O25      1.0000 0.85851  0.63863  0.59885  Biso   1.000  O
  O26      1.0000 0.84463  0.61054  0.68959  Biso   1.000  O
  C109     1.0000 0.85713  0.61246  0.63818  Biso   1.000  C
  C110     1.0000 0.87263  0.58099  0.61976  Biso   1.000  C
  C111     1.0000 0.87477  0.55297  0.66064  Biso   1.000  C
  H73      1.0000 0.86640  0.55330  0.69930  Biso   1.000  H
  C112     1.0000 0.88938  0.52438  0.64407  Biso   1.000  C
  H74      1.0000 0.89010  0.50520  0.67180  Biso   1.000  H
  C113     1.0000 0.90272  0.52371  0.58816  Biso   1.000  C
  C114     1.0000 0.90046  0.55195  0.54696  Biso   1.000  C
  H75      1.0000 0.90900  0.55180  0.50830  Biso   1.000  H
  C115     1.0000 0.88557  0.58038  0.56377  Biso   1.000  C
  H76      1.0000 0.88440  0.59930  0.53610  Biso   1.000  H
  C116     1.0000 0.92136  0.49528  0.56977  Biso   1.000  C
  C117     1.0000 0.95943  0.51369  0.53600  Biso   1.000  C
  H77      1.0000 0.97180  0.54300  0.52470  Biso   1.000  H
  H78      1.0000 0.82570  0.39050  0.56370  Biso   1.000  H
  O27      1.0000 0.52518  0.97196  0.93218  Biso   1.000  O
  O28      1.0000 0.51130  0.94387  0.02292  Biso   1.000  O
  C118     1.0000 0.52380  0.94579  0.97151  Biso   1.000  C
  C119     1.0000 0.53930  0.91432  0.95309  Biso   1.000  C
  C120     1.0000 0.54144  0.88630  0.99397  Biso   1.000  C
  H79      1.0000 0.53307  0.88663  0.03263  Biso   1.000  H
  C121     1.0000 0.55605  0.85771  0.97740  Biso   1.000  C
  H80      1.0000 0.55677  0.83853  0.00513  Biso   1.000  H
  C122     1.0000 0.56939  0.85704  0.92149  Biso   1.000  C
  C123     1.0000 0.56713  0.88528  0.88029  Biso   1.000  C
  H81      1.0000 0.57567  0.88513  0.84163  Biso   1.000  H
  C124     1.0000 0.55224  0.91371  0.89710  Biso   1.000  C
  H82      1.0000 0.55107  0.93263  0.86943  Biso   1.000  H
  C125     1.0000 0.58803  0.82861  0.90310  Biso   1.000  C
  C126     1.0000 0.62610  0.84702  0.86933  Biso   1.000  C
  H83      1.0000 0.63847  0.87633  0.85803  Biso   1.000  H
  H84      1.0000 0.49237  0.72383  0.89703  Biso   1.000  H
  O29      1.0000 0.19184  0.30530  0.26552  Biso   1.000  O
  O30      1.0000 0.17796  0.27721  0.35626  Biso   1.000  O
  C127     1.0000 0.19046  0.27913  0.30485  Biso   1.000  C
  C128     1.0000 0.20596  0.24766  0.28643  Biso   1.000  C
  C129     1.0000 0.20810  0.21964  0.32731  Biso   1.000  C
  H85      1.0000 0.19973  0.21997  0.36597  Biso   1.000  H
  C130     1.0000 0.22271  0.19105  0.31074  Biso   1.000  C
  H86      1.0000 0.22343  0.17187  0.33847  Biso   1.000  H
  C131     1.0000 0.23605  0.19038  0.25483  Biso   1.000  C
  C132     1.0000 0.23379  0.21862  0.21363  Biso   1.000  C
  H87      1.0000 0.24233  0.21847  0.17497  Biso   1.000  H
  C133     1.0000 0.21890  0.24705  0.23044  Biso   1.000  C
  H88      1.0000 0.21773  0.26597  0.20277  Biso   1.000  H
  C134     1.0000 0.25469  0.16195  0.23644  Biso   1.000  C
  C135     1.0000 0.29276  0.18036  0.20267  Biso   1.000  C
  H89      1.0000 0.30513  0.20967  0.19137  Biso   1.000  H
  H90      1.0000 0.15903  0.05717  0.23037  Biso   1.000  H
  O31      1.0000 0.78012  0.14149  0.59885  Biso   1.000  O
  O32      1.0000 0.76591  0.15537  0.68959  Biso   1.000  O
  C136     1.0000 0.75533  0.14287  0.63818  Biso   1.000  C
  C137     1.0000 0.70836  0.12737  0.61976  Biso   1.000  C
  C138     1.0000 0.67820  0.12523  0.66064  Biso   1.000  C
  H91      1.0000 0.68690  0.13360  0.69930  Biso   1.000  H
  C139     1.0000 0.63500  0.11062  0.64407  Biso   1.000  C
  H92      1.0000 0.61510  0.10990  0.67180  Biso   1.000  H
  C140     1.0000 0.62099  0.09728  0.58816  Biso   1.000  C
  C141     1.0000 0.65149  0.09954  0.54696  Biso   1.000  C
  H93      1.0000 0.64280  0.09100  0.50830  Biso   1.000  H
  C142     1.0000 0.69481  0.11443  0.56377  Biso   1.000  C
  H94      1.0000 0.71490  0.11560  0.53610  Biso   1.000  H
  C143     1.0000 0.57392  0.07864  0.56977  Biso   1.000  C
  C144     1.0000 0.55426  0.04057  0.53600  Biso   1.000  C
  H95      1.0000 0.57120  0.02820  0.52470  Biso   1.000  H
  H96      1.0000 0.56480  0.17430  0.56370  Biso   1.000  H
  O33      1.0000 0.44679  0.47482  0.93218  Biso   1.000  O
  O34      1.0000 0.43258  0.48870  0.02292  Biso   1.000  O
  C145     1.0000 0.42200  0.47620  0.97151  Biso   1.000  C
  C146     1.0000 0.37503  0.46070  0.95309  Biso   1.000  C
  C147     1.0000 0.34487  0.45856  0.99397  Biso   1.000  C
  H97      1.0000 0.35357  0.46693  0.03263  Biso   1.000  H
  C148     1.0000 0.30167  0.44395  0.97740  Biso   1.000  C
  H98      1.0000 0.28177  0.44323  0.00513  Biso   1.000  H
  C149     1.0000 0.28766  0.43061  0.92149  Biso   1.000  C
  C150     1.0000 0.31816  0.43287  0.88029  Biso   1.000  C
  H99      1.0000 0.30947  0.42433  0.84163  Biso   1.000  H
  C151     1.0000 0.36148  0.44776  0.89710  Biso   1.000  C
  H100     1.0000 0.38157  0.44893  0.86943  Biso   1.000  H
  C152     1.0000 0.24059  0.41197  0.90310  Biso   1.000  C
  C153     1.0000 0.22093  0.37390  0.86933  Biso   1.000  C
  H101     1.0000 0.23787  0.36153  0.85803  Biso   1.000  H
  H102     1.0000 0.23147  0.50763  0.89703  Biso   1.000  H
  O35      1.0000 0.11345  0.80816  0.26552  Biso   1.000  O
  O36      1.0000 0.09924  0.82204  0.35626  Biso   1.000  O
  C154     1.0000 0.08866  0.80954  0.30485  Biso   1.000  C
  C155     1.0000 0.04169  0.79404  0.28643  Biso   1.000  C
  C156     1.0000 0.01153  0.79190  0.32731  Biso   1.000  C
  H103     1.0000 0.02023  0.80027  0.36597  Biso   1.000  H
  C157     1.0000 0.96833  0.77729  0.31074  Biso   1.000  C
  H104     1.0000 0.94843  0.77657  0.33847  Biso   1.000  H
  C158     1.0000 0.95432  0.76395  0.25483  Biso   1.000  C
  C159     1.0000 0.98482  0.76621  0.21363  Biso   1.000  C
  H105     1.0000 0.97613  0.75767  0.17497  Biso   1.000  H
  C160     1.0000 0.02814  0.78110  0.23044  Biso   1.000  C
  H106     1.0000 0.04823  0.78227  0.20277  Biso   1.000  H
  C161     1.0000 0.90725  0.74531  0.23644  Biso   1.000  C
  C162     1.0000 0.88759  0.70724  0.20267  Biso   1.000  C
  H107     1.0000 0.90453  0.69487  0.19137  Biso   1.000  H
  H108     1.0000 0.89813  0.84097  0.23037  Biso   1.000  H
  O37      1.0000 0.78012  0.63863  0.59885  Biso   1.000  O
  O38      1.0000 0.76591  0.61054  0.68959  Biso   1.000  O
  C163     1.0000 0.75533  0.61246  0.63818  Biso   1.000  C
  C164     1.0000 0.70836  0.58099  0.61976  Biso   1.000  C
  C165     1.0000 0.67820  0.55297  0.66064  Biso   1.000  C
  H109     1.0000 0.68690  0.55330  0.69930  Biso   1.000  H
  C166     1.0000 0.63500  0.52438  0.64407  Biso   1.000  C
  H110     1.0000 0.61510  0.50520  0.67180  Biso   1.000  H
  C167     1.0000 0.62099  0.52371  0.58816  Biso   1.000  C
  C168     1.0000 0.65149  0.55195  0.54696  Biso   1.000  C
  H111     1.0000 0.64280  0.55180  0.50830  Biso   1.000  H
  C169     1.0000 0.69481  0.58038  0.56377  Biso   1.000  C
  H112     1.0000 0.71490  0.59930  0.53610  Biso   1.000  H
  C170     1.0000 0.57392  0.49528  0.56977  Biso   1.000  C
  C171     1.0000 0.55426  0.51369  0.53600  Biso   1.000  C
  H113     1.0000 0.57120  0.54300  0.52470  Biso   1.000  H
  H114     1.0000 0.56480  0.39050  0.56370  Biso   1.000  H
  O39      1.0000 0.44679  0.97196  0.93218  Biso   1.000  O
  O40      1.0000 0.43258  0.94387  0.02292  Biso   1.000  O
  C172     1.0000 0.42200  0.94579  0.97151  Biso   1.000  C
  C173     1.0000 0.37503  0.91432  0.95309  Biso   1.000  C
  C174     1.0000 0.34487  0.88630  0.99397  Biso   1.000  C
  H115     1.0000 0.35357  0.88663  0.03263  Biso   1.000  H
  C175     1.0000 0.30167  0.85771  0.97740  Biso   1.000  C
  H116     1.0000 0.28177  0.83853  0.00513  Biso   1.000  H
  C176     1.0000 0.28766  0.85704  0.92149  Biso   1.000  C
  C177     1.0000 0.31816  0.88528  0.88029  Biso   1.000  C
  H117     1.0000 0.30947  0.88513  0.84163  Biso   1.000  H
  C178     1.0000 0.36148  0.91371  0.89710  Biso   1.000  C
  H118     1.0000 0.38157  0.93263  0.86943  Biso   1.000  H
  C179     1.0000 0.24059  0.82861  0.90310  Biso   1.000  C
  C180     1.0000 0.22093  0.84702  0.86933  Biso   1.000  C
  H119     1.0000 0.23787  0.87633  0.85803  Biso   1.000  H
  H120     1.0000 0.23147  0.72383  0.89703  Biso   1.000  H
  O41      1.0000 0.11345  0.30530  0.26552  Biso   1.000  O
  O42      1.0000 0.09924  0.27721  0.35626  Biso   1.000  O
  C181     1.0000 0.08866  0.27913  0.30485  Biso   1.000  C
  C182     1.0000 0.04169  0.24766  0.28643  Biso   1.000  C
  C183     1.0000 0.01153  0.21964  0.32731  Biso   1.000  C
  H121     1.0000 0.02023  0.21997  0.36597  Biso   1.000  H
  C184     1.0000 0.96833  0.19105  0.31074  Biso   1.000  C
  H122     1.0000 0.94843  0.17187  0.33847  Biso   1.000  H
  C185     1.0000 0.95432  0.19038  0.25483  Biso   1.000  C
  C186     1.0000 0.98482  0.21862  0.21363  Biso   1.000  C
  H123     1.0000 0.97613  0.21847  0.17497  Biso   1.000  H
  C187     1.0000 0.02814  0.24705  0.23044  Biso   1.000  C
  H124     1.0000 0.04823  0.26597  0.20277  Biso   1.000  H
  C188     1.0000 0.90725  0.16195  0.23644  Biso   1.000  C
  C189     1.0000 0.88759  0.18036  0.20267  Biso   1.000  C
  H125     1.0000 0.90453  0.20967  0.19137  Biso   1.000  H
  H126     1.0000 0.89813  0.05717  0.23037  Biso   1.000  H
  O43      1.0000 0.36137  0.14149  0.59885  Biso   1.000  O
  O44      1.0000 0.38946  0.15537  0.68959  Biso   1.000  O
  C190     1.0000 0.38754  0.14287  0.63818  Biso   1.000  C
  C191     1.0000 0.41901  0.12737  0.61976  Biso   1.000  C
  C192     1.0000 0.44703  0.12523  0.66064  Biso   1.000  C
  H127     1.0000 0.44670  0.13360  0.69930  Biso   1.000  H
  C193     1.0000 0.47562  0.11062  0.64407  Biso   1.000  C
  H128     1.0000 0.49480  0.10990  0.67180  Biso   1.000  H
  C194     1.0000 0.47629  0.09728  0.58816  Biso   1.000  C
  C195     1.0000 0.44805  0.09954  0.54696  Biso   1.000  C
  H129     1.0000 0.44820  0.09100  0.50830  Biso   1.000  H
  C196     1.0000 0.41962  0.11443  0.56377  Biso   1.000  C
  H130     1.0000 0.40070  0.11560  0.53610  Biso   1.000  H
  C197     1.0000 0.50472  0.07864  0.56977  Biso   1.000  C
  C198     1.0000 0.48631  0.04057  0.53600  Biso   1.000  C
  H131     1.0000 0.45700  0.02820  0.52470  Biso   1.000  H
  H132     1.0000 0.60950  0.17430  0.56370  Biso   1.000  H
  O45      1.0000 0.02804  0.47482  0.93218  Biso   1.000  O
  O46      1.0000 0.05613  0.48870  0.02292  Biso   1.000  O
  C199     1.0000 0.05421  0.47620  0.97151  Biso   1.000  C
  C200     1.0000 0.08568  0.46070  0.95309  Biso   1.000  C
  C201     1.0000 0.11370  0.45856  0.99397  Biso   1.000  C
  H133     1.0000 0.11337  0.46693  0.03263  Biso   1.000  H
  C202     1.0000 0.14229  0.44395  0.97740  Biso   1.000  C
  H134     1.0000 0.16147  0.44323  0.00513  Biso   1.000  H
  C203     1.0000 0.14296  0.43061  0.92149  Biso   1.000  C
  C204     1.0000 0.11472  0.43287  0.88029  Biso   1.000  C
  H135     1.0000 0.11487  0.42433  0.84163  Biso   1.000  H
  C205     1.0000 0.08629  0.44776  0.89710  Biso   1.000  C
  H136     1.0000 0.06737  0.44893  0.86943  Biso   1.000  H
  C206     1.0000 0.17139  0.41197  0.90310  Biso   1.000  C
  C207     1.0000 0.15298  0.37390  0.86933  Biso   1.000  C
  H137     1.0000 0.12367  0.36153  0.85803  Biso   1.000  H
  H138     1.0000 0.27617  0.50763  0.89703  Biso   1.000  H
  O47      1.0000 0.69470  0.80816  0.26552  Biso   1.000  O
  O48      1.0000 0.72279  0.82204  0.35626  Biso   1.000  O
  C208     1.0000 0.72087  0.80954  0.30485  Biso   1.000  C
  C209     1.0000 0.75234  0.79404  0.28643  Biso   1.000  C
  C210     1.0000 0.78036  0.79190  0.32731  Biso   1.000  C
  H139     1.0000 0.78003  0.80027  0.36597  Biso   1.000  H
  C211     1.0000 0.80895  0.77729  0.31074  Biso   1.000  C
  H140     1.0000 0.82813  0.77657  0.33847  Biso   1.000  H
  C212     1.0000 0.80962  0.76395  0.25483  Biso   1.000  C
  C213     1.0000 0.78138  0.76621  0.21363  Biso   1.000  C
  H141     1.0000 0.78153  0.75767  0.17497  Biso   1.000  H
  C214     1.0000 0.75295  0.78110  0.23044  Biso   1.000  C
  H142     1.0000 0.73403  0.78227  0.20277  Biso   1.000  H
  C215     1.0000 0.83805  0.74531  0.23644  Biso   1.000  C
  C216     1.0000 0.81964  0.70724  0.20267  Biso   1.000  C
  H143     1.0000 0.79033  0.69487  0.19137  Biso   1.000  H
  H144     1.0000 0.94283  0.84097  0.23037  Biso   1.000  H
  O49      1.0000 0.85851  0.21988  0.59885  Biso   1.000  O
  O50      1.0000 0.84463  0.23409  0.68959  Biso   1.000  O
  C217     1.0000 0.85713  0.24467  0.63818  Biso   1.000  C
  C218     1.0000 0.87263  0.29164  0.61976  Biso   1.000  C
  C219     1.0000 0.87477  0.32180  0.66064  Biso   1.000  C
  H145     1.0000 0.86640  0.31310  0.69930  Biso   1.000  H
  C220     1.0000 0.88938  0.36500  0.64407  Biso   1.000  C
  H146     1.0000 0.89010  0.38490  0.67180  Biso   1.000  H
  C221     1.0000 0.90272  0.37901  0.58816  Biso   1.000  C
  C222     1.0000 0.90046  0.34851  0.54696  Biso   1.000  C
  H147     1.0000 0.90900  0.35720  0.50830  Biso   1.000  H
  C223     1.0000 0.88557  0.30519  0.56377  Biso   1.000  C
  H148     1.0000 0.88440  0.28510  0.53610  Biso   1.000  H
  C224     1.0000 0.92136  0.42608  0.56977  Biso   1.000  C
  C225     1.0000 0.95943  0.44574  0.53600  Biso   1.000  C
  H149     1.0000 0.97180  0.42880  0.52470  Biso   1.000  H
  H150     1.0000 0.82570  0.43520  0.56370  Biso   1.000  H
  O51      1.0000 0.52518  0.55321  0.93218  Biso   1.000  O
  O52      1.0000 0.51130  0.56742  0.02292  Biso   1.000  O
  C226     1.0000 0.52380  0.57800  0.97151  Biso   1.000  C
  C227     1.0000 0.53930  0.62497  0.95309  Biso   1.000  C
  C228     1.0000 0.54144  0.65513  0.99397  Biso   1.000  C
  H151     1.0000 0.53307  0.64643  0.03263  Biso   1.000  H
  C229     1.0000 0.55605  0.69833  0.97740  Biso   1.000  C
  H152     1.0000 0.55677  0.71823  0.00513  Biso   1.000  H
  C230     1.0000 0.56939  0.71234  0.92149  Biso   1.000  C
  C231     1.0000 0.56713  0.68184  0.88029  Biso   1.000  C
  H153     1.0000 0.57567  0.69053  0.84163  Biso   1.000  H
  C232     1.0000 0.55224  0.63852  0.89710  Biso   1.000  C
  H154     1.0000 0.55107  0.61843  0.86943  Biso   1.000  H
  C233     1.0000 0.58803  0.75941  0.90310  Biso   1.000  C
  C234     1.0000 0.62610  0.77907  0.86933  Biso   1.000  C
  H155     1.0000 0.63847  0.76213  0.85803  Biso   1.000  H
  H156     1.0000 0.49237  0.76853  0.89703  Biso   1.000  H
  O53      1.0000 0.19184  0.88655  0.26552  Biso   1.000  O
  O54      1.0000 0.17796  0.90076  0.35626  Biso   1.000  O
  C235     1.0000 0.19046  0.91134  0.30485  Biso   1.000  C
  C236     1.0000 0.20596  0.95831  0.28643  Biso   1.000  C
  C237     1.0000 0.20810  0.98847  0.32731  Biso   1.000  C
  H157     1.0000 0.19973  0.97977  0.36597  Biso   1.000  H
  C238     1.0000 0.22271  0.03167  0.31074  Biso   1.000  C
  H158     1.0000 0.22343  0.05157  0.33847  Biso   1.000  H
  C239     1.0000 0.23605  0.04568  0.25483  Biso   1.000  C
  C240     1.0000 0.23379  0.01518  0.21363  Biso   1.000  C
  H159     1.0000 0.24233  0.02387  0.17497  Biso   1.000  H
  C241     1.0000 0.21890  0.97186  0.23044  Biso   1.000  C
  H160     1.0000 0.21773  0.95177  0.20277  Biso   1.000  H
  C242     1.0000 0.25469  0.09275  0.23644  Biso   1.000  C
  C243     1.0000 0.29276  0.11241  0.20267  Biso   1.000  C
  H161     1.0000 0.30513  0.09547  0.19137  Biso   1.000  H
  H162     1.0000 0.15903  0.10187  0.23037  Biso   1.000  H
  O55      1.0000 0.63863  0.78012  0.40115  Biso   1.000  O
  O56      1.0000 0.61054  0.76591  0.31041  Biso   1.000  O
  C244     1.0000 0.61246  0.75533  0.36182  Biso   1.000  C
  C245     1.0000 0.58099  0.70836  0.38024  Biso   1.000  C
  C246     1.0000 0.55297  0.67820  0.33936  Biso   1.000  C
  H163     1.0000 0.55330  0.68690  0.30070  Biso   1.000  H
  C247     1.0000 0.52438  0.63500  0.35593  Biso   1.000  C
  H164     1.0000 0.50520  0.61510  0.32820  Biso   1.000  H
  C248     1.0000 0.52371  0.62099  0.41184  Biso   1.000  C
  C249     1.0000 0.55195  0.65149  0.45304  Biso   1.000  C
  H165     1.0000 0.55180  0.64280  0.49170  Biso   1.000  H
  C250     1.0000 0.58038  0.69481  0.43623  Biso   1.000  C
  H166     1.0000 0.59930  0.71490  0.46390  Biso   1.000  H
  C251     1.0000 0.49528  0.57392  0.43023  Biso   1.000  C
  C252     1.0000 0.51369  0.55426  0.46400  Biso   1.000  C
  H167     1.0000 0.54300  0.57120  0.47530  Biso   1.000  H
  H168     1.0000 0.39050  0.56480  0.43630  Biso   1.000  H
  O57      1.0000 0.30530  0.11345  0.73448  Biso   1.000  O
  O58      1.0000 0.27721  0.09924  0.64374  Biso   1.000  O
  C253     1.0000 0.27913  0.08866  0.69515  Biso   1.000  C
  C254     1.0000 0.24766  0.04169  0.71357  Biso   1.000  C
  C255     1.0000 0.21964  0.01153  0.67269  Biso   1.000  C
  H169     1.0000 0.21997  0.02023  0.63403  Biso   1.000  H
  C256     1.0000 0.19105  0.96833  0.68926  Biso   1.000  C
  H170     1.0000 0.17187  0.94843  0.66153  Biso   1.000  H
  C257     1.0000 0.19038  0.95432  0.74517  Biso   1.000  C
  C258     1.0000 0.21862  0.98482  0.78637  Biso   1.000  C
  H171     1.0000 0.21847  0.97613  0.82503  Biso   1.000  H
  C259     1.0000 0.24705  0.02814  0.76956  Biso   1.000  C
  H172     1.0000 0.26597  0.04823  0.79723  Biso   1.000  H
  C260     1.0000 0.16195  0.90725  0.76356  Biso   1.000  C
  C261     1.0000 0.18036  0.88759  0.79733  Biso   1.000  C
  H173     1.0000 0.20967  0.90453  0.80863  Biso   1.000  H
  H174     1.0000 0.05717  0.89813  0.76963  Biso   1.000  H
  O59      1.0000 0.97196  0.44679  0.06782  Biso   1.000  O
  O60      1.0000 0.94387  0.43258  0.97708  Biso   1.000  O
  C262     1.0000 0.94579  0.42200  0.02849  Biso   1.000  C
  C263     1.0000 0.91432  0.37503  0.04691  Biso   1.000  C
  C264     1.0000 0.88630  0.34487  0.00603  Biso   1.000  C
  H175     1.0000 0.88663  0.35357  0.96737  Biso   1.000  H
  C265     1.0000 0.85771  0.30167  0.02260  Biso   1.000  C
  H176     1.0000 0.83853  0.28177  0.99487  Biso   1.000  H
  C266     1.0000 0.85704  0.28766  0.07851  Biso   1.000  C
  C267     1.0000 0.88528  0.31816  0.11971  Biso   1.000  C
  H177     1.0000 0.88513  0.30947  0.15837  Biso   1.000  H
  C268     1.0000 0.91371  0.36148  0.10290  Biso   1.000  C
  H178     1.0000 0.93263  0.38157  0.13057  Biso   1.000  H
  C269     1.0000 0.82861  0.24059  0.09690  Biso   1.000  C
  C270     1.0000 0.84702  0.22093  0.13067  Biso   1.000  C
  H179     1.0000 0.87633  0.23787  0.14197  Biso   1.000  H
  H180     1.0000 0.72383  0.23147  0.10297  Biso   1.000  H
  O61      1.0000 0.14149  0.36137  0.40115  Biso   1.000  O
  O62      1.0000 0.15537  0.38946  0.31041  Biso   1.000  O
  C271     1.0000 0.14287  0.38754  0.36182  Biso   1.000  C
  C272     1.0000 0.12737  0.41901  0.38024  Biso   1.000  C
  C273     1.0000 0.12523  0.44703  0.33936  Biso   1.000  C
  H181     1.0000 0.13360  0.44670  0.30070  Biso   1.000  H
  C274     1.0000 0.11062  0.47562  0.35593  Biso   1.000  C
  H182     1.0000 0.10990  0.49480  0.32820  Biso   1.000  H
  C275     1.0000 0.09728  0.47629  0.41184  Biso   1.000  C
  C276     1.0000 0.09954  0.44805  0.45304  Biso   1.000  C
  H183     1.0000 0.09100  0.44820  0.49170  Biso   1.000  H
  C277     1.0000 0.11443  0.41962  0.43623  Biso   1.000  C
  H184     1.0000 0.11560  0.40070  0.46390  Biso   1.000  H
  C278     1.0000 0.07864  0.50472  0.43023  Biso   1.000  C
  C279     1.0000 0.04057  0.48631  0.46400  Biso   1.000  C
  H185     1.0000 0.02820  0.45700  0.47530  Biso   1.000  H
  H186     1.0000 0.17430  0.60950  0.43630  Biso   1.000  H
  O63      1.0000 0.80816  0.69470  0.73448  Biso   1.000  O
  O64      1.0000 0.82204  0.72279  0.64374  Biso   1.000  O
  C280     1.0000 0.80954  0.72087  0.69515  Biso   1.000  C
  C281     1.0000 0.79404  0.75234  0.71357  Biso   1.000  C
  C282     1.0000 0.79190  0.78036  0.67269  Biso   1.000  C
  H187     1.0000 0.80027  0.78003  0.63403  Biso   1.000  H
  C283     1.0000 0.77729  0.80895  0.68926  Biso   1.000  C
  H188     1.0000 0.77657  0.82813  0.66153  Biso   1.000  H
  C284     1.0000 0.76395  0.80962  0.74517  Biso   1.000  C
  C285     1.0000 0.76621  0.78138  0.78637  Biso   1.000  C
  H189     1.0000 0.75767  0.78153  0.82503  Biso   1.000  H
  C286     1.0000 0.78110  0.75295  0.76956  Biso   1.000  C
  H190     1.0000 0.78227  0.73403  0.79723  Biso   1.000  H
  C287     1.0000 0.74531  0.83805  0.76356  Biso   1.000  C
  C288     1.0000 0.70724  0.81964  0.79733  Biso   1.000  C
  H191     1.0000 0.69487  0.79033  0.80863  Biso   1.000  H
  H192     1.0000 0.84097  0.94283  0.76963  Biso   1.000  H
  O65      1.0000 0.47482  0.02804  0.06782  Biso   1.000  O
  O66      1.0000 0.48870  0.05613  0.97708  Biso   1.000  O
  C289     1.0000 0.47620  0.05421  0.02849  Biso   1.000  C
  C290     1.0000 0.46070  0.08568  0.04691  Biso   1.000  C
  C291     1.0000 0.45856  0.11370  0.00603  Biso   1.000  C
  H193     1.0000 0.46693  0.11337  0.96737  Biso   1.000  H
  C292     1.0000 0.44395  0.14229  0.02260  Biso   1.000  C
  H194     1.0000 0.44323  0.16147  0.99487  Biso   1.000  H
  C293     1.0000 0.43061  0.14296  0.07851  Biso   1.000  C
  C294     1.0000 0.43287  0.11472  0.11971  Biso   1.000  C
  H195     1.0000 0.42433  0.11487  0.15837  Biso   1.000  H
  C295     1.0000 0.44776  0.08629  0.10290  Biso   1.000  C
  H196     1.0000 0.44893  0.06737  0.13057  Biso   1.000  H
  C296     1.0000 0.41197  0.17139  0.09690  Biso   1.000  C
  C297     1.0000 0.37390  0.15298  0.13067  Biso   1.000  C
  H197     1.0000 0.36153  0.12367  0.14197  Biso   1.000  H
  H198     1.0000 0.50763  0.27617  0.10297  Biso   1.000  H
  O67      1.0000 0.21988  0.85851  0.40115  Biso   1.000  O
  O68      1.0000 0.23409  0.84463  0.31041  Biso   1.000  O
  C298     1.0000 0.24467  0.85713  0.36182  Biso   1.000  C
  C299     1.0000 0.29164  0.87263  0.38024  Biso   1.000  C
  C300     1.0000 0.32180  0.87477  0.33936  Biso   1.000  C
  H199     1.0000 0.31310  0.86640  0.30070  Biso   1.000  H
  C301     1.0000 0.36500  0.88938  0.35593  Biso   1.000  C
  H200     1.0000 0.38490  0.89010  0.32820  Biso   1.000  H
  C302     1.0000 0.37901  0.90272  0.41184  Biso   1.000  C
  C303     1.0000 0.34851  0.90046  0.45304  Biso   1.000  C
  H201     1.0000 0.35720  0.90900  0.49170  Biso   1.000  H
  C304     1.0000 0.30519  0.88557  0.43623  Biso   1.000  C
  H202     1.0000 0.28510  0.88440  0.46390  Biso   1.000  H
  C305     1.0000 0.42608  0.92136  0.43023  Biso   1.000  C
  C306     1.0000 0.44574  0.95943  0.46400  Biso   1.000  C
  H203     1.0000 0.42880  0.97180  0.47530  Biso   1.000  H
  H204     1.0000 0.43520  0.82570  0.43630  Biso   1.000  H
  O69      1.0000 0.88655  0.19184  0.73448  Biso   1.000  O
  O70      1.0000 0.90076  0.17796  0.64374  Biso   1.000  O
  C307     1.0000 0.91134  0.19046  0.69515  Biso   1.000  C
  C308     1.0000 0.95831  0.20596  0.71357  Biso   1.000  C
  C309     1.0000 0.98847  0.20810  0.67269  Biso   1.000  C
  H205     1.0000 0.97977  0.19973  0.63403  Biso   1.000  H
  C310     1.0000 0.03167  0.22271  0.68926  Biso   1.000  C
  H206     1.0000 0.05157  0.22343  0.66153  Biso   1.000  H
  C311     1.0000 0.04568  0.23605  0.74517  Biso   1.000  C
  C312     1.0000 0.01518  0.23379  0.78637  Biso   1.000  C
  H207     1.0000 0.02387  0.24233  0.82503  Biso   1.000  H
  C313     1.0000 0.97186  0.21890  0.76956  Biso   1.000  C
  H208     1.0000 0.95177  0.21773  0.79723  Biso   1.000  H
  C314     1.0000 0.09275  0.25469  0.76356  Biso   1.000  C
  C315     1.0000 0.11241  0.29276  0.79733  Biso   1.000  C
  H209     1.0000 0.09547  0.30513  0.80863  Biso   1.000  H
  H210     1.0000 0.10187  0.15903  0.76963  Biso   1.000  H
  O71      1.0000 0.55321  0.52518  0.06782  Biso   1.000  O
  O72      1.0000 0.56742  0.51130  0.97708  Biso   1.000  O
  C316     1.0000 0.57800  0.52380  0.02849  Biso   1.000  C
  C317     1.0000 0.62497  0.53930  0.04691  Biso   1.000  C
  C318     1.0000 0.65513  0.54144  0.00603  Biso   1.000  C
  H211     1.0000 0.64643  0.53307  0.96737  Biso   1.000  H
  C319     1.0000 0.69833  0.55605  0.02260  Biso   1.000  C
  H212     1.0000 0.71823  0.55677  0.99487  Biso   1.000  H
  C320     1.0000 0.71234  0.56939  0.07851  Biso   1.000  C
  C321     1.0000 0.68184  0.56713  0.11971  Biso   1.000  C
  H213     1.0000 0.69053  0.57567  0.15837  Biso   1.000  H
  C322     1.0000 0.63852  0.55224  0.10290  Biso   1.000  C
  H214     1.0000 0.61843  0.55107  0.13057  Biso   1.000  H
  C323     1.0000 0.75941  0.58803  0.09690  Biso   1.000  C
  C324     1.0000 0.77907  0.62610  0.13067  Biso   1.000  C
  H215     1.0000 0.76213  0.63847  0.14197  Biso   1.000  H
  H216     1.0000 0.76853  0.49237  0.10297  Biso   1.000  H
  Cu1      1.0000 0.15838  0.31675  0.38702  Biso   1.000  Cu
  Cu2      1.0000 0.82504  0.65008  0.72035  Biso   1.000  Cu
  Cu3      1.0000 0.49171  0.98342  0.05369  Biso   1.000  Cu
  Cu4      1.0000 0.68325  0.84162  0.38702  Biso   1.000  Cu
  Cu5      1.0000 0.34992  0.17496  0.72035  Biso   1.000  Cu
  Cu6      1.0000 0.01658  0.50829  0.05369  Biso   1.000  Cu
  Cu7      1.0000 0.15838  0.84162  0.38702  Biso   1.000  Cu
  Cu8      1.0000 0.82504  0.17496  0.72035  Biso   1.000  Cu
  Cu9      1.0000 0.49171  0.50829  0.05369  Biso   1.000  Cu
  Cu10     1.0000 0.31675  0.15838  0.61298  Biso   1.000  Cu
  Cu11     1.0000 0.98342  0.49171  0.94631  Biso   1.000  Cu
  Cu12     1.0000 0.65008  0.82504  0.27965  Biso   1.000  Cu
  Cu13     1.0000 0.84162  0.68325  0.61298  Biso   1.000  Cu
  Cu14     1.0000 0.50829  0.01658  0.94631  Biso   1.000  Cu
  Cu15     1.0000 0.17496  0.34992  0.27965  Biso   1.000  Cu
  Cu16     1.0000 0.84162  0.15838  0.61298  Biso   1.000  Cu
  Cu17     1.0000 0.50829  0.49171  0.94631  Biso   1.000  Cu
  Cu18     1.0000 0.17496  0.82504  0.27965  Biso   1.000  Cu
  O73      1.0000 0.43250  0.56750  0.37817  Biso   1.000  O
  C325     1.0000 0.49000  0.51000  0.48190  Biso   1.000  C
  C326     1.0000 0.45119  0.54881  0.41414  Biso   1.000  C
  C327     1.0000 0.41317  0.58683  0.41200  Biso   1.000  C
  H217     1.0000 0.40060  0.59940  0.38640  Biso   1.000  H
  O74      1.0000 0.09917  0.90083  0.71150  Biso   1.000  O
  C328     1.0000 0.15667  0.84333  0.81523  Biso   1.000  C
  C329     1.0000 0.11786  0.88214  0.74747  Biso   1.000  C
  C330     1.0000 0.07984  0.92016  0.74533  Biso   1.000  C
  H218     1.0000 0.06727  0.93273  0.71973  Biso   1.000  H
  O75      1.0000 0.76583  0.23417  0.04484  Biso   1.000  O
  C331     1.0000 0.82333  0.17667  0.14857  Biso   1.000  C
  C332     1.0000 0.78452  0.21548  0.08081  Biso   1.000  C
  C333     1.0000 0.74650  0.25350  0.07867  Biso   1.000  C
  H219     1.0000 0.73393  0.26607  0.05307  Biso   1.000  H
  O76      1.0000 0.43250  0.86500  0.37817  Biso   1.000  O
  C334     1.0000 0.49000  0.98000  0.48190  Biso   1.000  C
  C335     1.0000 0.45119  0.90238  0.41414  Biso   1.000  C
  C336     1.0000 0.41317  0.82634  0.41200  Biso   1.000  C
  H220     1.0000 0.40060  0.80120  0.38640  Biso   1.000  H
  O77      1.0000 0.09917  0.19833  0.71150  Biso   1.000  O
  C337     1.0000 0.15667  0.31333  0.81523  Biso   1.000  C
  C338     1.0000 0.11786  0.23571  0.74747  Biso   1.000  C
  C339     1.0000 0.07984  0.15967  0.74533  Biso   1.000  C
  H221     1.0000 0.06727  0.13453  0.71973  Biso   1.000  H
  O78      1.0000 0.76583  0.53167  0.04484  Biso   1.000  O
  C340     1.0000 0.82333  0.64667  0.14857  Biso   1.000  C
  C341     1.0000 0.78452  0.56905  0.08081  Biso   1.000  C
  C342     1.0000 0.74650  0.49301  0.07867  Biso   1.000  C
  H222     1.0000 0.73393  0.46787  0.05307  Biso   1.000  H
  O79      1.0000 0.13500  0.56750  0.37817  Biso   1.000  O
  C343     1.0000 0.02000  0.51000  0.48190  Biso   1.000  C
  C344     1.0000 0.09762  0.54881  0.41414  Biso   1.000  C
  C345     1.0000 0.17366  0.58683  0.41200  Biso   1.000  C
  H223     1.0000 0.19880  0.59940  0.38640  Biso   1.000  H
  O80      1.0000 0.80167  0.90083  0.71150  Biso   1.000  O
  C346     1.0000 0.68667  0.84333  0.81523  Biso   1.000  C
  C347     1.0000 0.76429  0.88214  0.74747  Biso   1.000  C
  C348     1.0000 0.84033  0.92016  0.74533  Biso   1.000  C
  H224     1.0000 0.86547  0.93273  0.71973  Biso   1.000  H
  O81      1.0000 0.46833  0.23417  0.04484  Biso   1.000  O
  C349     1.0000 0.35333  0.17667  0.14857  Biso   1.000  C
  C350     1.0000 0.43095  0.21548  0.08081  Biso   1.000  C
  C351     1.0000 0.50699  0.25350  0.07867  Biso   1.000  C
  H225     1.0000 0.53213  0.26607  0.05307  Biso   1.000  H
  O82      1.0000 0.56750  0.43250  0.62183  Biso   1.000  O
  C352     1.0000 0.51000  0.49000  0.51810  Biso   1.000  C
  C353     1.0000 0.54881  0.45119  0.58586  Biso   1.000  C
  C354     1.0000 0.58683  0.41317  0.58800  Biso   1.000  C
  H226     1.0000 0.59940  0.40060  0.61360  Biso   1.000  H
  O83      1.0000 0.23417  0.76583  0.95516  Biso   1.000  O
  C355     1.0000 0.17667  0.82333  0.85143  Biso   1.000  C
  C356     1.0000 0.21548  0.78452  0.91919  Biso   1.000  C
  C357     1.0000 0.25350  0.74650  0.92133  Biso   1.000  C
  H227     1.0000 0.26607  0.73393  0.94693  Biso   1.000  H
  O84      1.0000 0.90083  0.09917  0.28850  Biso   1.000  O
  C358     1.0000 0.84333  0.15667  0.18477  Biso   1.000  C
  C359     1.0000 0.88214  0.11786  0.25253  Biso   1.000  C
  C360     1.0000 0.92016  0.07984  0.25467  Biso   1.000  C
  H228     1.0000 0.93273  0.06727  0.28027  Biso   1.000  H
  O85      1.0000 0.86500  0.43250  0.62183  Biso   1.000  O
  C361     1.0000 0.98000  0.49000  0.51810  Biso   1.000  C
  C362     1.0000 0.90238  0.45119  0.58586  Biso   1.000  C
  C363     1.0000 0.82634  0.41317  0.58800  Biso   1.000  C
  H229     1.0000 0.80120  0.40060  0.61360  Biso   1.000  H
  O86      1.0000 0.53167  0.76583  0.95516  Biso   1.000  O
  C364     1.0000 0.64667  0.82333  0.85143  Biso   1.000  C
  C365     1.0000 0.56905  0.78452  0.91919  Biso   1.000  C
  C366     1.0000 0.49301  0.74650  0.92133  Biso   1.000  C
  H230     1.0000 0.46787  0.73393  0.94693  Biso   1.000  H
  O87      1.0000 0.19833  0.09917  0.28850  Biso   1.000  O
  C367     1.0000 0.31333  0.15667  0.18477  Biso   1.000  C
  C368     1.0000 0.23571  0.11786  0.25253  Biso   1.000  C
  C369     1.0000 0.15967  0.07984  0.25467  Biso   1.000  C
  H231     1.0000 0.13453  0.06727  0.28027  Biso   1.000  H
  O88      1.0000 0.56750  0.13500  0.62183  Biso   1.000  O
  C370     1.0000 0.51000  0.02000  0.51810  Biso   1.000  C
  C371     1.0000 0.54881  0.09762  0.58586  Biso   1.000  C
  C372     1.0000 0.58683  0.17366  0.58800  Biso   1.000  C
  H232     1.0000 0.59940  0.19880  0.61360  Biso   1.000  H
  O89      1.0000 0.23417  0.46833  0.95516  Biso   1.000  O
  C373     1.0000 0.17667  0.35333  0.85143  Biso   1.000  C
  C374     1.0000 0.21548  0.43095  0.91919  Biso   1.000  C
  C375     1.0000 0.25350  0.50699  0.92133  Biso   1.000  C
  H233     1.0000 0.26607  0.53213  0.94693  Biso   1.000  H
  O90      1.0000 0.90083  0.80167  0.28850  Biso   1.000  O
  C376     1.0000 0.84333  0.68667  0.18477  Biso   1.000  C
  C377     1.0000 0.88214  0.76429  0.25253  Biso   1.000  C
  C378     1.0000 0.92016  0.84033  0.25467  Biso   1.000  C
  H234     1.0000 0.93273  0.86547  0.28027  Biso   1.000  H
