data_image0
_cell_length_a       35.8332
_cell_length_b       35.8332
_cell_length_c       15.2142
_cell_angle_alpha    90
_cell_angle_beta     90
_cell_angle_gamma    120

_symmetry_space_group_name_H-M    "P 1"
_symmetry_int_tables_number       1

loop_
  _symmetry_equiv_pos_as_xyz
  'x, y, z'

loop_
  _atom_site_label
  _atom_site_occupancy
  _atom_site_fract_x
  _atom_site_fract_y
  _atom_site_fract_z
  _atom_site_thermal_displace_type
  _atom_site_B_iso_or_equiv
  _atom_site_type_symbol
  O1       1.0000 0.55758  0.03818  0.57812  Biso   1.000  O
  O2       1.0000 0.56365  0.05046  0.43280  Biso   1.000  O
  C1       1.0000 0.57837  0.05719  0.50840  Biso   1.000  C
  C2       1.0000 0.62517  0.08928  0.52240  Biso   1.000  C
  C3       1.0000 0.65227  0.10916  0.45580  Biso   1.000  C
  H1       1.0000 0.64160  0.10340  0.39730  Biso   1.000  H
  C4       1.0000 0.69580  0.13811  0.47000  Biso   1.000  C
  H2       1.0000 0.71380  0.15270  0.42120  Biso   1.000  H
  C5       1.0000 0.71297  0.14586  0.55100  Biso   1.000  C
  C6       1.0000 0.68498  0.12718  0.62110  Biso   1.000  C
  H3       1.0000 0.69580  0.13380  0.67940  Biso   1.000  H
  C7       1.0000 0.64155  0.09908  0.60750  Biso   1.000  C
  H4       1.0000 0.62290  0.08640  0.65640  Biso   1.000  H
  C8       1.0000 0.75991  0.17252  0.56910  Biso   1.000  C
  C9       1.0000 0.77986  0.15395  0.61730  Biso   1.000  C
  H5       1.0000 0.76330  0.12450  0.63350  Biso   1.000  H
  H6       1.0000 0.76990  0.27470  0.59970  Biso   1.000  H
  O3       1.0000 0.22425  0.37151  0.91145  Biso   1.000  O
  O4       1.0000 0.23032  0.38379  0.76613  Biso   1.000  O
  C10      1.0000 0.24504  0.39052  0.84173  Biso   1.000  C
  C11      1.0000 0.29184  0.42261  0.85573  Biso   1.000  C
  C12      1.0000 0.31894  0.44249  0.78913  Biso   1.000  C
  H7       1.0000 0.30827  0.43673  0.73063  Biso   1.000  H
  C13      1.0000 0.36247  0.47144  0.80333  Biso   1.000  C
  H8       1.0000 0.38047  0.48603  0.75453  Biso   1.000  H
  C14      1.0000 0.37964  0.47919  0.88433  Biso   1.000  C
  C15      1.0000 0.35165  0.46051  0.95443  Biso   1.000  C
  H9       1.0000 0.36247  0.46713  0.01273  Biso   1.000  H
  C16      1.0000 0.30822  0.43241  0.94083  Biso   1.000  C
  H10      1.0000 0.28957  0.41973  0.98973  Biso   1.000  H
  C17      1.0000 0.42658  0.50585  0.90243  Biso   1.000  C
  C18      1.0000 0.44653  0.48728  0.95063  Biso   1.000  C
  H11      1.0000 0.42997  0.45783  0.96683  Biso   1.000  H
  H12      1.0000 0.43657  0.60803  0.93303  Biso   1.000  H
  O5       1.0000 0.89091  0.70485  0.24479  Biso   1.000  O
  O6       1.0000 0.89698  0.71713  0.09947  Biso   1.000  O
  C19      1.0000 0.91170  0.72386  0.17507  Biso   1.000  C
  C20      1.0000 0.95850  0.75595  0.18907  Biso   1.000  C
  C21      1.0000 0.98560  0.77583  0.12247  Biso   1.000  C
  H13      1.0000 0.97493  0.77007  0.06397  Biso   1.000  H
  C22      1.0000 0.02913  0.80478  0.13667  Biso   1.000  C
  H14      1.0000 0.04713  0.81937  0.08787  Biso   1.000  H
  C23      1.0000 0.04630  0.81253  0.21767  Biso   1.000  C
  C24      1.0000 0.01831  0.79385  0.28777  Biso   1.000  C
  H15      1.0000 0.02913  0.80047  0.34607  Biso   1.000  H
  C25      1.0000 0.97488  0.76575  0.27417  Biso   1.000  C
  H16      1.0000 0.95623  0.75307  0.32307  Biso   1.000  H
  C26      1.0000 0.09324  0.83919  0.23577  Biso   1.000  C
  C27      1.0000 0.11319  0.82062  0.28397  Biso   1.000  C
  H17      1.0000 0.09663  0.79117  0.30017  Biso   1.000  H
  H18      1.0000 0.10323  0.94137  0.26637  Biso   1.000  H
  O7       1.0000 0.96182  0.51940  0.57812  Biso   1.000  O
  O8       1.0000 0.94954  0.51319  0.43280  Biso   1.000  O
  C28      1.0000 0.94281  0.52118  0.50840  Biso   1.000  C
  C29      1.0000 0.91072  0.53589  0.52240  Biso   1.000  C
  C30      1.0000 0.89084  0.54311  0.45580  Biso   1.000  C
  H19      1.0000 0.89660  0.53820  0.39730  Biso   1.000  H
  C31      1.0000 0.86189  0.55769  0.47000  Biso   1.000  C
  H20      1.0000 0.84730  0.56110  0.42120  Biso   1.000  H
  C32      1.0000 0.85414  0.56711  0.55100  Biso   1.000  C
  C33      1.0000 0.87282  0.55780  0.62110  Biso   1.000  C
  H21      1.0000 0.86620  0.56200  0.67940  Biso   1.000  H
  C34      1.0000 0.90092  0.54247  0.60750  Biso   1.000  C
  H22      1.0000 0.91360  0.53650  0.65640  Biso   1.000  H
  C35      1.0000 0.82748  0.58739  0.56910  Biso   1.000  C
  C36      1.0000 0.84605  0.62591  0.61730  Biso   1.000  C
  H23      1.0000 0.87550  0.63880  0.63350  Biso   1.000  H
  H24      1.0000 0.72530  0.49520  0.59970  Biso   1.000  H
  O9       1.0000 0.62849  0.85273  0.91145  Biso   1.000  O
  O10      1.0000 0.61621  0.84652  0.76613  Biso   1.000  O
  C37      1.0000 0.60948  0.85451  0.84173  Biso   1.000  C
  C38      1.0000 0.57739  0.86922  0.85573  Biso   1.000  C
  C39      1.0000 0.55751  0.87644  0.78913  Biso   1.000  C
  H25      1.0000 0.56327  0.87153  0.73063  Biso   1.000  H
  C40      1.0000 0.52856  0.89102  0.80333  Biso   1.000  C
  H26      1.0000 0.51397  0.89443  0.75453  Biso   1.000  H
  C41      1.0000 0.52081  0.90044  0.88433  Biso   1.000  C
  C42      1.0000 0.53949  0.89113  0.95443  Biso   1.000  C
  H27      1.0000 0.53287  0.89533  0.01273  Biso   1.000  H
  C43      1.0000 0.56759  0.87580  0.94083  Biso   1.000  C
  H28      1.0000 0.58027  0.86983  0.98973  Biso   1.000  H
  C44      1.0000 0.49415  0.92072  0.90243  Biso   1.000  C
  C45      1.0000 0.51272  0.95924  0.95063  Biso   1.000  C
  H29      1.0000 0.54217  0.97213  0.96683  Biso   1.000  H
  H30      1.0000 0.39197  0.82853  0.93303  Biso   1.000  H
  O11      1.0000 0.29515  0.18607  0.24479  Biso   1.000  O
  O12      1.0000 0.28287  0.17986  0.09947  Biso   1.000  O
  C46      1.0000 0.27614  0.18785  0.17507  Biso   1.000  C
  C47      1.0000 0.24405  0.20256  0.18907  Biso   1.000  C
  C48      1.0000 0.22417  0.20978  0.12247  Biso   1.000  C
  H31      1.0000 0.22993  0.20487  0.06397  Biso   1.000  H
  C49      1.0000 0.19522  0.22436  0.13667  Biso   1.000  C
  H32      1.0000 0.18063  0.22777  0.08787  Biso   1.000  H
  C50      1.0000 0.18747  0.23378  0.21767  Biso   1.000  C
  C51      1.0000 0.20615  0.22447  0.28777  Biso   1.000  C
  H33      1.0000 0.19953  0.22867  0.34607  Biso   1.000  H
  C52      1.0000 0.23425  0.20914  0.27417  Biso   1.000  C
  H34      1.0000 0.24693  0.20317  0.32307  Biso   1.000  H
  C53      1.0000 0.16081  0.25406  0.23577  Biso   1.000  C
  C54      1.0000 0.17938  0.29258  0.28397  Biso   1.000  C
  H35      1.0000 0.20883  0.30547  0.30017  Biso   1.000  H
  H36      1.0000 0.05863  0.16187  0.26637  Biso   1.000  H
  O13      1.0000 0.48060  0.44242  0.57812  Biso   1.000  O
  O14      1.0000 0.48681  0.43635  0.43280  Biso   1.000  O
  C55      1.0000 0.47882  0.42163  0.50840  Biso   1.000  C
  C56      1.0000 0.46411  0.37483  0.52240  Biso   1.000  C
  C57      1.0000 0.45689  0.34773  0.45580  Biso   1.000  C
  H37      1.0000 0.46180  0.35840  0.39730  Biso   1.000  H
  C58      1.0000 0.44231  0.30420  0.47000  Biso   1.000  C
  H38      1.0000 0.43890  0.28620  0.42120  Biso   1.000  H
  C59      1.0000 0.43289  0.28703  0.55100  Biso   1.000  C
  C60      1.0000 0.44220  0.31502  0.62110  Biso   1.000  C
  H39      1.0000 0.43800  0.30420  0.67940  Biso   1.000  H
  C61      1.0000 0.45753  0.35845  0.60750  Biso   1.000  C
  H40      1.0000 0.46350  0.37710  0.65640  Biso   1.000  H
  C62      1.0000 0.41261  0.24009  0.56910  Biso   1.000  C
  C63      1.0000 0.37409  0.22014  0.61730  Biso   1.000  C
  H41      1.0000 0.36120  0.23670  0.63350  Biso   1.000  H
  H42      1.0000 0.50480  0.23010  0.59970  Biso   1.000  H
  O15      1.0000 0.14727  0.77575  0.91145  Biso   1.000  O
  O16      1.0000 0.15348  0.76968  0.76613  Biso   1.000  O
  C64      1.0000 0.14549  0.75496  0.84173  Biso   1.000  C
  C65      1.0000 0.13078  0.70816  0.85573  Biso   1.000  C
  C66      1.0000 0.12356  0.68106  0.78913  Biso   1.000  C
  H43      1.0000 0.12847  0.69173  0.73063  Biso   1.000  H
  C67      1.0000 0.10898  0.63753  0.80333  Biso   1.000  C
  H44      1.0000 0.10557  0.61953  0.75453  Biso   1.000  H
  C68      1.0000 0.09956  0.62036  0.88433  Biso   1.000  C
  C69      1.0000 0.10887  0.64835  0.95443  Biso   1.000  C
  H45      1.0000 0.10467  0.63753  0.01273  Biso   1.000  H
  C70      1.0000 0.12420  0.69178  0.94083  Biso   1.000  C
  H46      1.0000 0.13017  0.71043  0.98973  Biso   1.000  H
  C71      1.0000 0.07928  0.57342  0.90243  Biso   1.000  C
  C72      1.0000 0.04076  0.55347  0.95063  Biso   1.000  C
  H47      1.0000 0.02787  0.57003  0.96683  Biso   1.000  H
  H48      1.0000 0.17147  0.56343  0.93303  Biso   1.000  H
  O17      1.0000 0.81393  0.10909  0.24479  Biso   1.000  O
  O18      1.0000 0.82014  0.10302  0.09947  Biso   1.000  O
  C73      1.0000 0.81215  0.08830  0.17507  Biso   1.000  C
  C74      1.0000 0.79744  0.04150  0.18907  Biso   1.000  C
  C75      1.0000 0.79022  0.01440  0.12247  Biso   1.000  C
  H49      1.0000 0.79513  0.02507  0.06397  Biso   1.000  H
  C76      1.0000 0.77564  0.97087  0.13667  Biso   1.000  C
  H50      1.0000 0.77223  0.95287  0.08787  Biso   1.000  H
  C77      1.0000 0.76622  0.95370  0.21767  Biso   1.000  C
  C78      1.0000 0.77553  0.98169  0.28777  Biso   1.000  C
  H51      1.0000 0.77133  0.97087  0.34607  Biso   1.000  H
  C79      1.0000 0.79086  0.02512  0.27417  Biso   1.000  C
  H52      1.0000 0.79683  0.04377  0.32307  Biso   1.000  H
  C80      1.0000 0.74594  0.90676  0.23577  Biso   1.000  C
  C81      1.0000 0.70742  0.88681  0.28397  Biso   1.000  C
  H53      1.0000 0.69453  0.90337  0.30017  Biso   1.000  H
  H54      1.0000 0.83813  0.89677  0.26637  Biso   1.000  H
  O19      1.0000 0.03818  0.55758  0.42188  Biso   1.000  O
  O20      1.0000 0.05046  0.56365  0.56720  Biso   1.000  O
  C82      1.0000 0.05719  0.57837  0.49160  Biso   1.000  C
  C83      1.0000 0.08928  0.62517  0.47760  Biso   1.000  C
  C84      1.0000 0.10916  0.65227  0.54420  Biso   1.000  C
  H55      1.0000 0.10340  0.64160  0.60270  Biso   1.000  H
  C85      1.0000 0.13811  0.69580  0.53000  Biso   1.000  C
  H56      1.0000 0.15270  0.71380  0.57880  Biso   1.000  H
  C86      1.0000 0.14586  0.71297  0.44900  Biso   1.000  C
  C87      1.0000 0.12718  0.68498  0.37890  Biso   1.000  C
  H57      1.0000 0.13380  0.69580  0.32060  Biso   1.000  H
  C88      1.0000 0.09908  0.64155  0.39250  Biso   1.000  C
  H58      1.0000 0.08640  0.62290  0.34360  Biso   1.000  H
  C89      1.0000 0.17252  0.75991  0.43090  Biso   1.000  C
  C90      1.0000 0.15395  0.77986  0.38270  Biso   1.000  C
  H59      1.0000 0.12450  0.76330  0.36650  Biso   1.000  H
  H60      1.0000 0.27470  0.76990  0.40030  Biso   1.000  H
  O21      1.0000 0.70485  0.89091  0.75521  Biso   1.000  O
  O22      1.0000 0.71713  0.89698  0.90053  Biso   1.000  O
  C91      1.0000 0.72386  0.91170  0.82493  Biso   1.000  C
  C92      1.0000 0.75595  0.95850  0.81093  Biso   1.000  C
  C93      1.0000 0.77583  0.98560  0.87753  Biso   1.000  C
  H61      1.0000 0.77007  0.97493  0.93603  Biso   1.000  H
  C94      1.0000 0.80478  0.02913  0.86333  Biso   1.000  C
  H62      1.0000 0.81937  0.04713  0.91213  Biso   1.000  H
  C95      1.0000 0.81253  0.04630  0.78233  Biso   1.000  C
  C96      1.0000 0.79385  0.01831  0.71223  Biso   1.000  C
  H63      1.0000 0.80047  0.02913  0.65393  Biso   1.000  H
  C97      1.0000 0.76575  0.97488  0.72583  Biso   1.000  C
  H64      1.0000 0.75307  0.95623  0.67693  Biso   1.000  H
  C98      1.0000 0.83919  0.09324  0.76423  Biso   1.000  C
  C99      1.0000 0.82062  0.11319  0.71603  Biso   1.000  C
  H65      1.0000 0.79117  0.09663  0.69983  Biso   1.000  H
  H66      1.0000 0.94137  0.10323  0.73363  Biso   1.000  H
  O23      1.0000 0.37151  0.22425  0.08855  Biso   1.000  O
  O24      1.0000 0.38379  0.23032  0.23387  Biso   1.000  O
  C100     1.0000 0.39052  0.24504  0.15827  Biso   1.000  C
  C101     1.0000 0.42261  0.29184  0.14427  Biso   1.000  C
  C102     1.0000 0.44249  0.31894  0.21087  Biso   1.000  C
  H67      1.0000 0.43673  0.30827  0.26937  Biso   1.000  H
  C103     1.0000 0.47144  0.36247  0.19667  Biso   1.000  C
  H68      1.0000 0.48603  0.38047  0.24547  Biso   1.000  H
  C104     1.0000 0.47919  0.37964  0.11567  Biso   1.000  C
  C105     1.0000 0.46051  0.35165  0.04557  Biso   1.000  C
  H69      1.0000 0.46713  0.36247  0.98727  Biso   1.000  H
  C106     1.0000 0.43241  0.30822  0.05917  Biso   1.000  C
  H70      1.0000 0.41973  0.28957  0.01027  Biso   1.000  H
  C107     1.0000 0.50585  0.42658  0.09757  Biso   1.000  C
  C108     1.0000 0.48728  0.44653  0.04937  Biso   1.000  C
  H71      1.0000 0.45783  0.42997  0.03317  Biso   1.000  H
  H72      1.0000 0.60803  0.43657  0.06697  Biso   1.000  H
  O25      1.0000 0.51940  0.96182  0.42188  Biso   1.000  O
  O26      1.0000 0.51319  0.94954  0.56720  Biso   1.000  O
  C109     1.0000 0.52118  0.94281  0.49160  Biso   1.000  C
  C110     1.0000 0.53589  0.91072  0.47760  Biso   1.000  C
  C111     1.0000 0.54311  0.89084  0.54420  Biso   1.000  C
  H73      1.0000 0.53820  0.89660  0.60270  Biso   1.000  H
  C112     1.0000 0.55769  0.86189  0.53000  Biso   1.000  C
  H74      1.0000 0.56110  0.84730  0.57880  Biso   1.000  H
  C113     1.0000 0.56711  0.85414  0.44900  Biso   1.000  C
  C114     1.0000 0.55780  0.87282  0.37890  Biso   1.000  C
  H75      1.0000 0.56200  0.86620  0.32060  Biso   1.000  H
  C115     1.0000 0.54247  0.90092  0.39250  Biso   1.000  C
  H76      1.0000 0.53650  0.91360  0.34360  Biso   1.000  H
  C116     1.0000 0.58739  0.82748  0.43090  Biso   1.000  C
  C117     1.0000 0.62591  0.84605  0.38270  Biso   1.000  C
  H77      1.0000 0.63880  0.87550  0.36650  Biso   1.000  H
  H78      1.0000 0.49520  0.72530  0.40030  Biso   1.000  H
  O27      1.0000 0.18607  0.29515  0.75521  Biso   1.000  O
  O28      1.0000 0.17986  0.28287  0.90053  Biso   1.000  O
  C118     1.0000 0.18785  0.27614  0.82493  Biso   1.000  C
  C119     1.0000 0.20256  0.24405  0.81093  Biso   1.000  C
  C120     1.0000 0.20978  0.22417  0.87753  Biso   1.000  C
  H79      1.0000 0.20487  0.22993  0.93603  Biso   1.000  H
  C121     1.0000 0.22436  0.19522  0.86333  Biso   1.000  C
  H80      1.0000 0.22777  0.18063  0.91213  Biso   1.000  H
  C122     1.0000 0.23378  0.18747  0.78233  Biso   1.000  C
  C123     1.0000 0.22447  0.20615  0.71223  Biso   1.000  C
  H81      1.0000 0.22867  0.19953  0.65393  Biso   1.000  H
  C124     1.0000 0.20914  0.23425  0.72583  Biso   1.000  C
  H82      1.0000 0.20317  0.24693  0.67693  Biso   1.000  H
  C125     1.0000 0.25406  0.16081  0.76423  Biso   1.000  C
  C126     1.0000 0.29258  0.17938  0.71603  Biso   1.000  C
  H83      1.0000 0.30547  0.20883  0.69983  Biso   1.000  H
  H84      1.0000 0.16187  0.05863  0.73363  Biso   1.000  H
  O29      1.0000 0.85273  0.62849  0.08855  Biso   1.000  O
  O30      1.0000 0.84652  0.61621  0.23387  Biso   1.000  O
  C127     1.0000 0.85451  0.60948  0.15827  Biso   1.000  C
  C128     1.0000 0.86922  0.57739  0.14427  Biso   1.000  C
  C129     1.0000 0.87644  0.55751  0.21087  Biso   1.000  C
  H85      1.0000 0.87153  0.56327  0.26937  Biso   1.000  H
  C130     1.0000 0.89102  0.52856  0.19667  Biso   1.000  C
  H86      1.0000 0.89443  0.51397  0.24547  Biso   1.000  H
  C131     1.0000 0.90044  0.52081  0.11567  Biso   1.000  C
  C132     1.0000 0.89113  0.53949  0.04557  Biso   1.000  C
  H87      1.0000 0.89533  0.53287  0.98727  Biso   1.000  H
  C133     1.0000 0.87580  0.56759  0.05917  Biso   1.000  C
  H88      1.0000 0.86983  0.58027  0.01027  Biso   1.000  H
  C134     1.0000 0.92072  0.49415  0.09757  Biso   1.000  C
  C135     1.0000 0.95924  0.51272  0.04937  Biso   1.000  C
  H89      1.0000 0.97213  0.54217  0.03317  Biso   1.000  H
  H90      1.0000 0.82853  0.39197  0.06697  Biso   1.000  H
  O31      1.0000 0.44242  0.48060  0.42188  Biso   1.000  O
  O32      1.0000 0.43635  0.48681  0.56720  Biso   1.000  O
  C136     1.0000 0.42163  0.47882  0.49160  Biso   1.000  C
  C137     1.0000 0.37483  0.46411  0.47760  Biso   1.000  C
  C138     1.0000 0.34773  0.45689  0.54420  Biso   1.000  C
  H91      1.0000 0.35840  0.46180  0.60270  Biso   1.000  H
  C139     1.0000 0.30420  0.44231  0.53000  Biso   1.000  C
  H92      1.0000 0.28620  0.43890  0.57880  Biso   1.000  H
  C140     1.0000 0.28703  0.43289  0.44900  Biso   1.000  C
  C141     1.0000 0.31502  0.44220  0.37890  Biso   1.000  C
  H93      1.0000 0.30420  0.43800  0.32060  Biso   1.000  H
  C142     1.0000 0.35845  0.45753  0.39250  Biso   1.000  C
  H94      1.0000 0.37710  0.46350  0.34360  Biso   1.000  H
  C143     1.0000 0.24009  0.41261  0.43090  Biso   1.000  C
  C144     1.0000 0.22014  0.37409  0.38270  Biso   1.000  C
  H95      1.0000 0.23670  0.36120  0.36650  Biso   1.000  H
  H96      1.0000 0.23010  0.50480  0.40030  Biso   1.000  H
  O33      1.0000 0.10909  0.81393  0.75521  Biso   1.000  O
  O34      1.0000 0.10302  0.82014  0.90053  Biso   1.000  O
  C145     1.0000 0.08830  0.81215  0.82493  Biso   1.000  C
  C146     1.0000 0.04150  0.79744  0.81093  Biso   1.000  C
  C147     1.0000 0.01440  0.79022  0.87753  Biso   1.000  C
  H97      1.0000 0.02507  0.79513  0.93603  Biso   1.000  H
  C148     1.0000 0.97087  0.77564  0.86333  Biso   1.000  C
  H98      1.0000 0.95287  0.77223  0.91213  Biso   1.000  H
  C149     1.0000 0.95370  0.76622  0.78233  Biso   1.000  C
  C150     1.0000 0.98169  0.77553  0.71223  Biso   1.000  C
  H99      1.0000 0.97087  0.77133  0.65393  Biso   1.000  H
  C151     1.0000 0.02512  0.79086  0.72583  Biso   1.000  C
  H100     1.0000 0.04377  0.79683  0.67693  Biso   1.000  H
  C152     1.0000 0.90676  0.74594  0.76423  Biso   1.000  C
  C153     1.0000 0.88681  0.70742  0.71603  Biso   1.000  C
  H101     1.0000 0.90337  0.69453  0.69983  Biso   1.000  H
  H102     1.0000 0.89677  0.83813  0.73363  Biso   1.000  H
  O35      1.0000 0.77575  0.14727  0.08855  Biso   1.000  O
  O36      1.0000 0.76968  0.15348  0.23387  Biso   1.000  O
  C154     1.0000 0.75496  0.14549  0.15827  Biso   1.000  C
  C155     1.0000 0.70816  0.13078  0.14427  Biso   1.000  C
  C156     1.0000 0.68106  0.12356  0.21087  Biso   1.000  C
  H103     1.0000 0.69173  0.12847  0.26937  Biso   1.000  H
  C157     1.0000 0.63753  0.10898  0.19667  Biso   1.000  C
  H104     1.0000 0.61953  0.10557  0.24547  Biso   1.000  H
  C158     1.0000 0.62036  0.09956  0.11567  Biso   1.000  C
  C159     1.0000 0.64835  0.10887  0.04557  Biso   1.000  C
  H105     1.0000 0.63753  0.10467  0.98727  Biso   1.000  H
  C160     1.0000 0.69178  0.12420  0.05917  Biso   1.000  C
  H106     1.0000 0.71043  0.13017  0.01027  Biso   1.000  H
  C161     1.0000 0.57342  0.07928  0.09757  Biso   1.000  C
  C162     1.0000 0.55347  0.04076  0.04937  Biso   1.000  C
  H107     1.0000 0.57003  0.02787  0.03317  Biso   1.000  H
  H108     1.0000 0.56343  0.17147  0.06697  Biso   1.000  H
  O37      1.0000 0.44242  0.96182  0.42188  Biso   1.000  O
  O38      1.0000 0.43635  0.94954  0.56720  Biso   1.000  O
  C163     1.0000 0.42163  0.94281  0.49160  Biso   1.000  C
  C164     1.0000 0.37483  0.91072  0.47760  Biso   1.000  C
  C165     1.0000 0.34773  0.89084  0.54420  Biso   1.000  C
  H109     1.0000 0.35840  0.89660  0.60270  Biso   1.000  H
  C166     1.0000 0.30420  0.86189  0.53000  Biso   1.000  C
  H110     1.0000 0.28620  0.84730  0.57880  Biso   1.000  H
  C167     1.0000 0.28703  0.85414  0.44900  Biso   1.000  C
  C168     1.0000 0.31502  0.87282  0.37890  Biso   1.000  C
  H111     1.0000 0.30420  0.86620  0.32060  Biso   1.000  H
  C169     1.0000 0.35845  0.90092  0.39250  Biso   1.000  C
  H112     1.0000 0.37710  0.91360  0.34360  Biso   1.000  H
  C170     1.0000 0.24009  0.82748  0.43090  Biso   1.000  C
  C171     1.0000 0.22014  0.84605  0.38270  Biso   1.000  C
  H113     1.0000 0.23670  0.87550  0.36650  Biso   1.000  H
  H114     1.0000 0.23010  0.72530  0.40030  Biso   1.000  H
  O39      1.0000 0.10909  0.29515  0.75521  Biso   1.000  O
  O40      1.0000 0.10302  0.28287  0.90053  Biso   1.000  O
  C172     1.0000 0.08830  0.27614  0.82493  Biso   1.000  C
  C173     1.0000 0.04150  0.24405  0.81093  Biso   1.000  C
  C174     1.0000 0.01440  0.22417  0.87753  Biso   1.000  C
  H115     1.0000 0.02507  0.22993  0.93603  Biso   1.000  H
  C175     1.0000 0.97087  0.19522  0.86333  Biso   1.000  C
  H116     1.0000 0.95287  0.18063  0.91213  Biso   1.000  H
  C176     1.0000 0.95370  0.18747  0.78233  Biso   1.000  C
  C177     1.0000 0.98169  0.20615  0.71223  Biso   1.000  C
  H117     1.0000 0.97087  0.19953  0.65393  Biso   1.000  H
  C178     1.0000 0.02512  0.23425  0.72583  Biso   1.000  C
  H118     1.0000 0.04377  0.24693  0.67693  Biso   1.000  H
  C179     1.0000 0.90676  0.16081  0.76423  Biso   1.000  C
  C180     1.0000 0.88681  0.17938  0.71603  Biso   1.000  C
  H119     1.0000 0.90337  0.20883  0.69983  Biso   1.000  H
  H120     1.0000 0.89677  0.05863  0.73363  Biso   1.000  H
  O41      1.0000 0.77575  0.62849  0.08855  Biso   1.000  O
  O42      1.0000 0.76968  0.61621  0.23387  Biso   1.000  O
  C181     1.0000 0.75496  0.60948  0.15827  Biso   1.000  C
  C182     1.0000 0.70816  0.57739  0.14427  Biso   1.000  C
  C183     1.0000 0.68106  0.55751  0.21087  Biso   1.000  C
  H121     1.0000 0.69173  0.56327  0.26937  Biso   1.000  H
  C184     1.0000 0.63753  0.52856  0.19667  Biso   1.000  C
  H122     1.0000 0.61953  0.51397  0.24547  Biso   1.000  H
  C185     1.0000 0.62036  0.52081  0.11567  Biso   1.000  C
  C186     1.0000 0.64835  0.53949  0.04557  Biso   1.000  C
  H123     1.0000 0.63753  0.53287  0.98727  Biso   1.000  H
  C187     1.0000 0.69178  0.56759  0.05917  Biso   1.000  C
  H124     1.0000 0.71043  0.58027  0.01027  Biso   1.000  H
  C188     1.0000 0.57342  0.49415  0.09757  Biso   1.000  C
  C189     1.0000 0.55347  0.51272  0.04937  Biso   1.000  C
  H125     1.0000 0.57003  0.54217  0.03317  Biso   1.000  H
  H126     1.0000 0.56343  0.39197  0.06697  Biso   1.000  H
  O43      1.0000 0.03818  0.48060  0.42188  Biso   1.000  O
  O44      1.0000 0.05046  0.48681  0.56720  Biso   1.000  O
  C190     1.0000 0.05719  0.47882  0.49160  Biso   1.000  C
  C191     1.0000 0.08928  0.46411  0.47760  Biso   1.000  C
  C192     1.0000 0.10916  0.45689  0.54420  Biso   1.000  C
  H127     1.0000 0.10340  0.46180  0.60270  Biso   1.000  H
  C193     1.0000 0.13811  0.44231  0.53000  Biso   1.000  C
  H128     1.0000 0.15270  0.43890  0.57880  Biso   1.000  H
  C194     1.0000 0.14586  0.43289  0.44900  Biso   1.000  C
  C195     1.0000 0.12718  0.44220  0.37890  Biso   1.000  C
  H129     1.0000 0.13380  0.43800  0.32060  Biso   1.000  H
  C196     1.0000 0.09908  0.45753  0.39250  Biso   1.000  C
  H130     1.0000 0.08640  0.46350  0.34360  Biso   1.000  H
  C197     1.0000 0.17252  0.41261  0.43090  Biso   1.000  C
  C198     1.0000 0.15395  0.37409  0.38270  Biso   1.000  C
  H131     1.0000 0.12450  0.36120  0.36650  Biso   1.000  H
  H132     1.0000 0.27470  0.50480  0.40030  Biso   1.000  H
  O45      1.0000 0.70485  0.81393  0.75521  Biso   1.000  O
  O46      1.0000 0.71713  0.82014  0.90053  Biso   1.000  O
  C199     1.0000 0.72386  0.81215  0.82493  Biso   1.000  C
  C200     1.0000 0.75595  0.79744  0.81093  Biso   1.000  C
  C201     1.0000 0.77583  0.79022  0.87753  Biso   1.000  C
  H133     1.0000 0.77007  0.79513  0.93603  Biso   1.000  H
  C202     1.0000 0.80478  0.77564  0.86333  Biso   1.000  C
  H134     1.0000 0.81937  0.77223  0.91213  Biso   1.000  H
  C203     1.0000 0.81253  0.76622  0.78233  Biso   1.000  C
  C204     1.0000 0.79385  0.77553  0.71223  Biso   1.000  C
  H135     1.0000 0.80047  0.77133  0.65393  Biso   1.000  H
  C205     1.0000 0.76575  0.79086  0.72583  Biso   1.000  C
  H136     1.0000 0.75307  0.79683  0.67693  Biso   1.000  H
  C206     1.0000 0.83919  0.74594  0.76423  Biso   1.000  C
  C207     1.0000 0.82062  0.70742  0.71603  Biso   1.000  C
  H137     1.0000 0.79117  0.69453  0.69983  Biso   1.000  H
  H138     1.0000 0.94137  0.83813  0.73363  Biso   1.000  H
  O47      1.0000 0.37151  0.14727  0.08855  Biso   1.000  O
  O48      1.0000 0.38379  0.15348  0.23387  Biso   1.000  O
  C208     1.0000 0.39052  0.14549  0.15827  Biso   1.000  C
  C209     1.0000 0.42261  0.13078  0.14427  Biso   1.000  C
  C210     1.0000 0.44249  0.12356  0.21087  Biso   1.000  C
  H139     1.0000 0.43673  0.12847  0.26937  Biso   1.000  H
  C211     1.0000 0.47144  0.10898  0.19667  Biso   1.000  C
  H140     1.0000 0.48603  0.10557  0.24547  Biso   1.000  H
  C212     1.0000 0.47919  0.09956  0.11567  Biso   1.000  C
  C213     1.0000 0.46051  0.10887  0.04557  Biso   1.000  C
  H141     1.0000 0.46713  0.10467  0.98727  Biso   1.000  H
  C214     1.0000 0.43241  0.12420  0.05917  Biso   1.000  C
  H142     1.0000 0.41973  0.13017  0.01027  Biso   1.000  H
  C215     1.0000 0.50585  0.07928  0.09757  Biso   1.000  C
  C216     1.0000 0.48728  0.04076  0.04937  Biso   1.000  C
  H143     1.0000 0.45783  0.02787  0.03317  Biso   1.000  H
  H144     1.0000 0.60803  0.17147  0.06697  Biso   1.000  H
  O49      1.0000 0.51940  0.55758  0.42188  Biso   1.000  O
  O50      1.0000 0.51319  0.56365  0.56720  Biso   1.000  O
  C217     1.0000 0.52118  0.57837  0.49160  Biso   1.000  C
  C218     1.0000 0.53589  0.62517  0.47760  Biso   1.000  C
  C219     1.0000 0.54311  0.65227  0.54420  Biso   1.000  C
  H145     1.0000 0.53820  0.64160  0.60270  Biso   1.000  H
  C220     1.0000 0.55769  0.69580  0.53000  Biso   1.000  C
  H146     1.0000 0.56110  0.71380  0.57880  Biso   1.000  H
  C221     1.0000 0.56711  0.71297  0.44900  Biso   1.000  C
  C222     1.0000 0.55780  0.68498  0.37890  Biso   1.000  C
  H147     1.0000 0.56200  0.69580  0.32060  Biso   1.000  H
  C223     1.0000 0.54247  0.64155  0.39250  Biso   1.000  C
  H148     1.0000 0.53650  0.62290  0.34360  Biso   1.000  H
  C224     1.0000 0.58739  0.75991  0.43090  Biso   1.000  C
  C225     1.0000 0.62591  0.77986  0.38270  Biso   1.000  C
  H149     1.0000 0.63880  0.76330  0.36650  Biso   1.000  H
  H150     1.0000 0.49520  0.76990  0.40030  Biso   1.000  H
  O51      1.0000 0.18607  0.89091  0.75521  Biso   1.000  O
  O52      1.0000 0.17986  0.89698  0.90053  Biso   1.000  O
  C226     1.0000 0.18785  0.91170  0.82493  Biso   1.000  C
  C227     1.0000 0.20256  0.95850  0.81093  Biso   1.000  C
  C228     1.0000 0.20978  0.98560  0.87753  Biso   1.000  C
  H151     1.0000 0.20487  0.97493  0.93603  Biso   1.000  H
  C229     1.0000 0.22436  0.02913  0.86333  Biso   1.000  C
  H152     1.0000 0.22777  0.04713  0.91213  Biso   1.000  H
  C230     1.0000 0.23378  0.04630  0.78233  Biso   1.000  C
  C231     1.0000 0.22447  0.01831  0.71223  Biso   1.000  C
  H153     1.0000 0.22867  0.02913  0.65393  Biso   1.000  H
  C232     1.0000 0.20914  0.97488  0.72583  Biso   1.000  C
  H154     1.0000 0.20317  0.95623  0.67693  Biso   1.000  H
  C233     1.0000 0.25406  0.09324  0.76423  Biso   1.000  C
  C234     1.0000 0.29258  0.11319  0.71603  Biso   1.000  C
  H155     1.0000 0.30547  0.09663  0.69983  Biso   1.000  H
  H156     1.0000 0.16187  0.10323  0.73363  Biso   1.000  H
  O53      1.0000 0.85273  0.22425  0.08855  Biso   1.000  O
  O54      1.0000 0.84652  0.23032  0.23387  Biso   1.000  O
  C235     1.0000 0.85451  0.24504  0.15827  Biso   1.000  C
  C236     1.0000 0.86922  0.29184  0.14427  Biso   1.000  C
  C237     1.0000 0.87644  0.31894  0.21087  Biso   1.000  C
  H157     1.0000 0.87153  0.30827  0.26937  Biso   1.000  H
  C238     1.0000 0.89102  0.36247  0.19667  Biso   1.000  C
  H158     1.0000 0.89443  0.38047  0.24547  Biso   1.000  H
  C239     1.0000 0.90044  0.37964  0.11567  Biso   1.000  C
  C240     1.0000 0.89113  0.35165  0.04557  Biso   1.000  C
  H159     1.0000 0.89533  0.36247  0.98727  Biso   1.000  H
  C241     1.0000 0.87580  0.30822  0.05917  Biso   1.000  C
  H160     1.0000 0.86983  0.28957  0.01027  Biso   1.000  H
  C242     1.0000 0.92072  0.42658  0.09757  Biso   1.000  C
  C243     1.0000 0.95924  0.44653  0.04937  Biso   1.000  C
  H161     1.0000 0.97213  0.42997  0.03317  Biso   1.000  H
  H162     1.0000 0.82853  0.43657  0.06697  Biso   1.000  H
  O55      1.0000 0.96182  0.44242  0.57812  Biso   1.000  O
  O56      1.0000 0.94954  0.43635  0.43280  Biso   1.000  O
  C244     1.0000 0.94281  0.42163  0.50840  Biso   1.000  C
  C245     1.0000 0.91072  0.37483  0.52240  Biso   1.000  C
  C246     1.0000 0.89084  0.34773  0.45580  Biso   1.000  C
  H163     1.0000 0.89660  0.35840  0.39730  Biso   1.000  H
  C247     1.0000 0.86189  0.30420  0.47000  Biso   1.000  C
  H164     1.0000 0.84730  0.28620  0.42120  Biso   1.000  H
  C248     1.0000 0.85414  0.28703  0.55100  Biso   1.000  C
  C249     1.0000 0.87282  0.31502  0.62110  Biso   1.000  C
  H165     1.0000 0.86620  0.30420  0.67940  Biso   1.000  H
  C250     1.0000 0.90092  0.35845  0.60750  Biso   1.000  C
  H166     1.0000 0.91360  0.37710  0.65640  Biso   1.000  H
  C251     1.0000 0.82748  0.24009  0.56910  Biso   1.000  C
  C252     1.0000 0.84605  0.22014  0.61730  Biso   1.000  C
  H167     1.0000 0.87550  0.23670  0.63350  Biso   1.000  H
  H168     1.0000 0.72530  0.23010  0.59970  Biso   1.000  H
  O57      1.0000 0.62849  0.77575  0.91145  Biso   1.000  O
  O58      1.0000 0.61621  0.76968  0.76613  Biso   1.000  O
  C253     1.0000 0.60948  0.75496  0.84173  Biso   1.000  C
  C254     1.0000 0.57739  0.70816  0.85573  Biso   1.000  C
  C255     1.0000 0.55751  0.68106  0.78913  Biso   1.000  C
  H169     1.0000 0.56327  0.69173  0.73063  Biso   1.000  H
  C256     1.0000 0.52856  0.63753  0.80333  Biso   1.000  C
  H170     1.0000 0.51397  0.61953  0.75453  Biso   1.000  H
  C257     1.0000 0.52081  0.62036  0.88433  Biso   1.000  C
  C258     1.0000 0.53949  0.64835  0.95443  Biso   1.000  C
  H171     1.0000 0.53287  0.63753  0.01273  Biso   1.000  H
  C259     1.0000 0.56759  0.69178  0.94083  Biso   1.000  C
  H172     1.0000 0.58027  0.71043  0.98973  Biso   1.000  H
  C260     1.0000 0.49415  0.57342  0.90243  Biso   1.000  C
  C261     1.0000 0.51272  0.55347  0.95063  Biso   1.000  C
  H173     1.0000 0.54217  0.57003  0.96683  Biso   1.000  H
  H174     1.0000 0.39197  0.56343  0.93303  Biso   1.000  H
  O59      1.0000 0.29515  0.10909  0.24479  Biso   1.000  O
  O60      1.0000 0.28287  0.10302  0.09947  Biso   1.000  O
  C262     1.0000 0.27614  0.08830  0.17507  Biso   1.000  C
  C263     1.0000 0.24405  0.04150  0.18907  Biso   1.000  C
  C264     1.0000 0.22417  0.01440  0.12247  Biso   1.000  C
  H175     1.0000 0.22993  0.02507  0.06397  Biso   1.000  H
  C265     1.0000 0.19522  0.97087  0.13667  Biso   1.000  C
  H176     1.0000 0.18063  0.95287  0.08787  Biso   1.000  H
  C266     1.0000 0.18747  0.95370  0.21767  Biso   1.000  C
  C267     1.0000 0.20615  0.98169  0.28777  Biso   1.000  C
  H177     1.0000 0.19953  0.97087  0.34607  Biso   1.000  H
  C268     1.0000 0.23425  0.02512  0.27417  Biso   1.000  C
  H178     1.0000 0.24693  0.04377  0.32307  Biso   1.000  H
  C269     1.0000 0.16081  0.90676  0.23577  Biso   1.000  C
  C270     1.0000 0.17938  0.88681  0.28397  Biso   1.000  C
  H179     1.0000 0.20883  0.90337  0.30017  Biso   1.000  H
  H180     1.0000 0.05863  0.89677  0.26637  Biso   1.000  H
  O61      1.0000 0.48060  0.03818  0.57812  Biso   1.000  O
  O62      1.0000 0.48681  0.05046  0.43280  Biso   1.000  O
  C271     1.0000 0.47882  0.05719  0.50840  Biso   1.000  C
  C272     1.0000 0.46411  0.08928  0.52240  Biso   1.000  C
  C273     1.0000 0.45689  0.10916  0.45580  Biso   1.000  C
  H181     1.0000 0.46180  0.10340  0.39730  Biso   1.000  H
  C274     1.0000 0.44231  0.13811  0.47000  Biso   1.000  C
  H182     1.0000 0.43890  0.15270  0.42120  Biso   1.000  H
  C275     1.0000 0.43289  0.14586  0.55100  Biso   1.000  C
  C276     1.0000 0.44220  0.12718  0.62110  Biso   1.000  C
  H183     1.0000 0.43800  0.13380  0.67940  Biso   1.000  H
  C277     1.0000 0.45753  0.09908  0.60750  Biso   1.000  C
  H184     1.0000 0.46350  0.08640  0.65640  Biso   1.000  H
  C278     1.0000 0.41261  0.17252  0.56910  Biso   1.000  C
  C279     1.0000 0.37409  0.15395  0.61730  Biso   1.000  C
  H185     1.0000 0.36120  0.12450  0.63350  Biso   1.000  H
  H186     1.0000 0.50480  0.27470  0.59970  Biso   1.000  H
  O63      1.0000 0.14727  0.37151  0.91145  Biso   1.000  O
  O64      1.0000 0.15348  0.38379  0.76613  Biso   1.000  O
  C280     1.0000 0.14549  0.39052  0.84173  Biso   1.000  C
  C281     1.0000 0.13078  0.42261  0.85573  Biso   1.000  C
  C282     1.0000 0.12356  0.44249  0.78913  Biso   1.000  C
  H187     1.0000 0.12847  0.43673  0.73063  Biso   1.000  H
  C283     1.0000 0.10898  0.47144  0.80333  Biso   1.000  C
  H188     1.0000 0.10557  0.48603  0.75453  Biso   1.000  H
  C284     1.0000 0.09956  0.47919  0.88433  Biso   1.000  C
  C285     1.0000 0.10887  0.46051  0.95443  Biso   1.000  C
  H189     1.0000 0.10467  0.46713  0.01273  Biso   1.000  H
  C286     1.0000 0.12420  0.43241  0.94083  Biso   1.000  C
  H190     1.0000 0.13017  0.41973  0.98973  Biso   1.000  H
  C287     1.0000 0.07928  0.50585  0.90243  Biso   1.000  C
  C288     1.0000 0.04076  0.48728  0.95063  Biso   1.000  C
  H191     1.0000 0.02787  0.45783  0.96683  Biso   1.000  H
  H192     1.0000 0.17147  0.60803  0.93303  Biso   1.000  H
  O65      1.0000 0.81393  0.70485  0.24479  Biso   1.000  O
  O66      1.0000 0.82014  0.71713  0.09947  Biso   1.000  O
  C289     1.0000 0.81215  0.72386  0.17507  Biso   1.000  C
  C290     1.0000 0.79744  0.75595  0.18907  Biso   1.000  C
  C291     1.0000 0.79022  0.77583  0.12247  Biso   1.000  C
  H193     1.0000 0.79513  0.77007  0.06397  Biso   1.000  H
  C292     1.0000 0.77564  0.80478  0.13667  Biso   1.000  C
  H194     1.0000 0.77223  0.81937  0.08787  Biso   1.000  H
  C293     1.0000 0.76622  0.81253  0.21767  Biso   1.000  C
  C294     1.0000 0.77553  0.79385  0.28777  Biso   1.000  C
  H195     1.0000 0.77133  0.80047  0.34607  Biso   1.000  H
  C295     1.0000 0.79086  0.76575  0.27417  Biso   1.000  C
  H196     1.0000 0.79683  0.75307  0.32307  Biso   1.000  H
  C296     1.0000 0.74594  0.83919  0.23577  Biso   1.000  C
  C297     1.0000 0.70742  0.82062  0.28397  Biso   1.000  C
  H197     1.0000 0.69453  0.79117  0.30017  Biso   1.000  H
  H198     1.0000 0.83813  0.94137  0.26637  Biso   1.000  H
  O67      1.0000 0.55758  0.51940  0.57812  Biso   1.000  O
  O68      1.0000 0.56365  0.51319  0.43280  Biso   1.000  O
  C298     1.0000 0.57837  0.52118  0.50840  Biso   1.000  C
  C299     1.0000 0.62517  0.53589  0.52240  Biso   1.000  C
  C300     1.0000 0.65227  0.54311  0.45580  Biso   1.000  C
  H199     1.0000 0.64160  0.53820  0.39730  Biso   1.000  H
  C301     1.0000 0.69580  0.55769  0.47000  Biso   1.000  C
  H200     1.0000 0.71380  0.56110  0.42120  Biso   1.000  H
  C302     1.0000 0.71297  0.56711  0.55100  Biso   1.000  C
  C303     1.0000 0.68498  0.55780  0.62110  Biso   1.000  C
  H201     1.0000 0.69580  0.56200  0.67940  Biso   1.000  H
  C304     1.0000 0.64155  0.54247  0.60750  Biso   1.000  C
  H202     1.0000 0.62290  0.53650  0.65640  Biso   1.000  H
  C305     1.0000 0.75991  0.58739  0.56910  Biso   1.000  C
  C306     1.0000 0.77986  0.62591  0.61730  Biso   1.000  C
  H203     1.0000 0.76330  0.63880  0.63350  Biso   1.000  H
  H204     1.0000 0.76990  0.49520  0.59970  Biso   1.000  H
  O69      1.0000 0.22425  0.85273  0.91145  Biso   1.000  O
  O70      1.0000 0.23032  0.84652  0.76613  Biso   1.000  O
  C307     1.0000 0.24504  0.85451  0.84173  Biso   1.000  C
  C308     1.0000 0.29184  0.86922  0.85573  Biso   1.000  C
  C309     1.0000 0.31894  0.87644  0.78913  Biso   1.000  C
  H205     1.0000 0.30827  0.87153  0.73063  Biso   1.000  H
  C310     1.0000 0.36247  0.89102  0.80333  Biso   1.000  C
  H206     1.0000 0.38047  0.89443  0.75453  Biso   1.000  H
  C311     1.0000 0.37964  0.90044  0.88433  Biso   1.000  C
  C312     1.0000 0.35165  0.89113  0.95443  Biso   1.000  C
  H207     1.0000 0.36247  0.89533  0.01273  Biso   1.000  H
  C313     1.0000 0.30822  0.87580  0.94083  Biso   1.000  C
  H208     1.0000 0.28957  0.86983  0.98973  Biso   1.000  H
  C314     1.0000 0.42658  0.92072  0.90243  Biso   1.000  C
  C315     1.0000 0.44653  0.95924  0.95063  Biso   1.000  C
  H209     1.0000 0.42997  0.97213  0.96683  Biso   1.000  H
  H210     1.0000 0.43657  0.82853  0.93303  Biso   1.000  H
  O71      1.0000 0.89091  0.18607  0.24479  Biso   1.000  O
  O72      1.0000 0.89698  0.17986  0.09947  Biso   1.000  O
  C316     1.0000 0.91170  0.18785  0.17507  Biso   1.000  C
  C317     1.0000 0.95850  0.20256  0.18907  Biso   1.000  C
  C318     1.0000 0.98560  0.20978  0.12247  Biso   1.000  C
  H211     1.0000 0.97493  0.20487  0.06397  Biso   1.000  H
  C319     1.0000 0.02913  0.22436  0.13667  Biso   1.000  C
  H212     1.0000 0.04713  0.22777  0.08787  Biso   1.000  H
  C320     1.0000 0.04630  0.23378  0.21767  Biso   1.000  C
  C321     1.0000 0.01831  0.22447  0.28777  Biso   1.000  C
  H213     1.0000 0.02913  0.22867  0.34607  Biso   1.000  H
  C322     1.0000 0.97488  0.20914  0.27417  Biso   1.000  C
  H214     1.0000 0.95623  0.20317  0.32307  Biso   1.000  H
  C323     1.0000 0.09324  0.25406  0.23577  Biso   1.000  C
  C324     1.0000 0.11319  0.29258  0.28397  Biso   1.000  C
  H215     1.0000 0.09663  0.30547  0.30017  Biso   1.000  H
  H216     1.0000 0.10323  0.16187  0.26637  Biso   1.000  H
  Cu1      1.0000 0.50335  0.00669  0.41408  Biso   1.000  Cu
  Cu2      1.0000 0.17001  0.34002  0.74741  Biso   1.000  Cu
  Cu3      1.0000 0.83668  0.67336  0.08075  Biso   1.000  Cu
  Cu4      1.0000 0.99331  0.49665  0.41408  Biso   1.000  Cu
  Cu5      1.0000 0.65998  0.82999  0.74741  Biso   1.000  Cu
  Cu6      1.0000 0.32664  0.16332  0.08075  Biso   1.000  Cu
  Cu7      1.0000 0.50335  0.49665  0.41408  Biso   1.000  Cu
  Cu8      1.0000 0.17001  0.82999  0.74741  Biso   1.000  Cu
  Cu9      1.0000 0.83668  0.16332  0.08075  Biso   1.000  Cu
  Cu10     1.0000 0.00669  0.50335  0.58592  Biso   1.000  Cu
  Cu11     1.0000 0.67336  0.83668  0.91925  Biso   1.000  Cu
  Cu12     1.0000 0.34002  0.17001  0.25259  Biso   1.000  Cu
  Cu13     1.0000 0.49665  0.99331  0.58592  Biso   1.000  Cu
  Cu14     1.0000 0.16332  0.32664  0.91925  Biso   1.000  Cu
  Cu15     1.0000 0.82999  0.65998  0.25259  Biso   1.000  Cu
  Cu16     1.0000 0.49665  0.50335  0.58592  Biso   1.000  Cu
  Cu17     1.0000 0.16332  0.83668  0.91925  Biso   1.000  Cu
  Cu18     1.0000 0.82999  0.17001  0.25259  Biso   1.000  Cu
  O73      1.0000 0.76509  0.23491  0.49960  Biso   1.000  O
  C325     1.0000 0.82296  0.17704  0.64220  Biso   1.000  C
  C326     1.0000 0.78448  0.21552  0.54550  Biso   1.000  C
  C327     1.0000 0.74682  0.25318  0.56260  Biso   1.000  C
  H217     1.0000 0.73320  0.26680  0.53010  Biso   1.000  H
  O74      1.0000 0.43176  0.56824  0.83293  Biso   1.000  O
  C328     1.0000 0.48963  0.51037  0.97553  Biso   1.000  C
  C329     1.0000 0.45115  0.54885  0.87883  Biso   1.000  C
  C330     1.0000 0.41349  0.58651  0.89593  Biso   1.000  C
  H218     1.0000 0.39987  0.60013  0.86343  Biso   1.000  H
  O75      1.0000 0.09842  0.90158  0.16627  Biso   1.000  O
  C331     1.0000 0.15629  0.84371  0.30887  Biso   1.000  C
  C332     1.0000 0.11781  0.88219  0.21217  Biso   1.000  C
  C333     1.0000 0.08015  0.91985  0.22927  Biso   1.000  C
  H219     1.0000 0.06653  0.93347  0.19677  Biso   1.000  H
  O76      1.0000 0.76509  0.53018  0.49960  Biso   1.000  O
  C334     1.0000 0.82296  0.64592  0.64220  Biso   1.000  C
  C335     1.0000 0.78448  0.56896  0.54550  Biso   1.000  C
  C336     1.0000 0.74682  0.49364  0.56260  Biso   1.000  C
  H220     1.0000 0.73320  0.46640  0.53010  Biso   1.000  H
  O77      1.0000 0.43176  0.86351  0.83293  Biso   1.000  O
  C337     1.0000 0.48963  0.97925  0.97553  Biso   1.000  C
  C338     1.0000 0.45115  0.90229  0.87883  Biso   1.000  C
  C339     1.0000 0.41349  0.82697  0.89593  Biso   1.000  C
  H221     1.0000 0.39987  0.79973  0.86343  Biso   1.000  H
  O78      1.0000 0.09842  0.19685  0.16627  Biso   1.000  O
  C340     1.0000 0.15629  0.31259  0.30887  Biso   1.000  C
  C341     1.0000 0.11781  0.23563  0.21217  Biso   1.000  C
  C342     1.0000 0.08015  0.16031  0.22927  Biso   1.000  C
  H222     1.0000 0.06653  0.13307  0.19677  Biso   1.000  H
  O79      1.0000 0.46982  0.23491  0.49960  Biso   1.000  O
  C343     1.0000 0.35408  0.17704  0.64220  Biso   1.000  C
  C344     1.0000 0.43104  0.21552  0.54550  Biso   1.000  C
  C345     1.0000 0.50636  0.25318  0.56260  Biso   1.000  C
  H223     1.0000 0.53360  0.26680  0.53010  Biso   1.000  H
  O80      1.0000 0.13649  0.56824  0.83293  Biso   1.000  O
  C346     1.0000 0.02075  0.51037  0.97553  Biso   1.000  C
  C347     1.0000 0.09771  0.54885  0.87883  Biso   1.000  C
  C348     1.0000 0.17303  0.58651  0.89593  Biso   1.000  C
  H224     1.0000 0.20027  0.60013  0.86343  Biso   1.000  H
  O81      1.0000 0.80315  0.90158  0.16627  Biso   1.000  O
  C349     1.0000 0.68741  0.84371  0.30887  Biso   1.000  C
  C350     1.0000 0.76437  0.88219  0.21217  Biso   1.000  C
  C351     1.0000 0.83969  0.91985  0.22927  Biso   1.000  C
  H225     1.0000 0.86693  0.93347  0.19677  Biso   1.000  H
  O82      1.0000 0.23491  0.76509  0.50040  Biso   1.000  O
  C352     1.0000 0.17704  0.82296  0.35780  Biso   1.000  C
  C353     1.0000 0.21552  0.78448  0.45450  Biso   1.000  C
  C354     1.0000 0.25318  0.74682  0.43740  Biso   1.000  C
  H226     1.0000 0.26680  0.73320  0.46990  Biso   1.000  H
  O83      1.0000 0.90158  0.09842  0.83373  Biso   1.000  O
  C355     1.0000 0.84371  0.15629  0.69113  Biso   1.000  C
  C356     1.0000 0.88219  0.11781  0.78783  Biso   1.000  C
  C357     1.0000 0.91985  0.08015  0.77073  Biso   1.000  C
  H227     1.0000 0.93347  0.06653  0.80323  Biso   1.000  H
  O84      1.0000 0.56824  0.43176  0.16707  Biso   1.000  O
  C358     1.0000 0.51037  0.48963  0.02447  Biso   1.000  C
  C359     1.0000 0.54885  0.45115  0.12117  Biso   1.000  C
  C360     1.0000 0.58651  0.41349  0.10407  Biso   1.000  C
  H228     1.0000 0.60013  0.39987  0.13657  Biso   1.000  H
  O85      1.0000 0.53018  0.76509  0.50040  Biso   1.000  O
  C361     1.0000 0.64592  0.82296  0.35780  Biso   1.000  C
  C362     1.0000 0.56896  0.78448  0.45450  Biso   1.000  C
  C363     1.0000 0.49364  0.74682  0.43740  Biso   1.000  C
  H229     1.0000 0.46640  0.73320  0.46990  Biso   1.000  H
  O86      1.0000 0.19685  0.09842  0.83373  Biso   1.000  O
  C364     1.0000 0.31259  0.15629  0.69113  Biso   1.000  C
  C365     1.0000 0.23563  0.11781  0.78783  Biso   1.000  C
  C366     1.0000 0.16031  0.08015  0.77073  Biso   1.000  C
  H230     1.0000 0.13307  0.06653  0.80323  Biso   1.000  H
  O87      1.0000 0.86351  0.43176  0.16707  Biso   1.000  O
  C367     1.0000 0.97925  0.48963  0.02447  Biso   1.000  C
  C368     1.0000 0.90229  0.45115  0.12117  Biso   1.000  C
  C369     1.0000 0.82697  0.41349  0.10407  Biso   1.000  C
  H231     1.0000 0.79973  0.39987  0.13657  Biso   1.000  H
  O88      1.0000 0.23491  0.46982  0.50040  Biso   1.000  O
  C370     1.0000 0.17704  0.35408  0.35780  Biso   1.000  C
  C371     1.0000 0.21552  0.43104  0.45450  Biso   1.000  C
  C372     1.0000 0.25318  0.50636  0.43740  Biso   1.000  C
  H232     1.0000 0.26680  0.53360  0.46990  Biso   1.000  H
  O89      1.0000 0.90158  0.80315  0.83373  Biso   1.000  O
  C373     1.0000 0.84371  0.68741  0.69113  Biso   1.000  C
  C374     1.0000 0.88219  0.76437  0.78783  Biso   1.000  C
  C375     1.0000 0.91985  0.83969  0.77073  Biso   1.000  C
  H233     1.0000 0.93347  0.86693  0.80323  Biso   1.000  H
  O90      1.0000 0.56824  0.13649  0.16707  Biso   1.000  O
  C376     1.0000 0.51037  0.02075  0.02447  Biso   1.000  C
  C377     1.0000 0.54885  0.09771  0.12117  Biso   1.000  C
  C378     1.0000 0.58651  0.17303  0.10407  Biso   1.000  C
  H234     1.0000 0.60013  0.20027  0.13657  Biso   1.000  H
