data_image0
_cell_length_a       34.8028
_cell_length_b       34.8028
_cell_length_c       24.2532
_cell_angle_alpha    90
_cell_angle_beta     90
_cell_angle_gamma    120

_symmetry_space_group_name_H-M    "P 1"
_symmetry_int_tables_number       1

loop_
  _symmetry_equiv_pos_as_xyz
  'x, y, z'

loop_
  _atom_site_label
  _atom_site_occupancy
  _atom_site_fract_x
  _atom_site_fract_y
  _atom_site_fract_z
  _atom_site_thermal_displace_type
  _atom_site_B_iso_or_equiv
  _atom_site_type_symbol
  O1       1.0000 0.52637  0.55284  0.43431  Biso   1.000  O
  O2       1.0000 0.51136  0.56810  0.51920  Biso   1.000  O
  C1       1.0000 0.52467  0.57813  0.47022  Biso   1.000  C
  C2       1.0000 0.54047  0.62521  0.45227  Biso   1.000  C
  C3       1.0000 0.54320  0.65639  0.48998  Biso   1.000  C
  H1       1.0000 0.53490  0.64810  0.52730  Biso   1.000  H
  C4       1.0000 0.55783  0.69926  0.47362  Biso   1.000  C
  H2       1.0000 0.55860  0.72000  0.49970  Biso   1.000  H
  C5       1.0000 0.57143  0.71289  0.42033  Biso   1.000  C
  C6       1.0000 0.56894  0.68157  0.38341  Biso   1.000  C
  H3       1.0000 0.57760  0.68990  0.34620  Biso   1.000  H
  C7       1.0000 0.55413  0.63828  0.39944  Biso   1.000  C
  H4       1.0000 0.55350  0.61750  0.37350  Biso   1.000  H
  C8       1.0000 0.58955  0.75987  0.40234  Biso   1.000  C
  C9       1.0000 0.62718  0.77949  0.36938  Biso   1.000  C
  H5       1.0000 0.64030  0.76230  0.35910  Biso   1.000  H
  H6       1.0000 0.49080  0.72240  0.40350  Biso   1.000  H
  O3       1.0000 0.19304  0.88617  0.76764  Biso   1.000  O
  O4       1.0000 0.17803  0.90143  0.85253  Biso   1.000  O
  C10      1.0000 0.19134  0.91146  0.80355  Biso   1.000  C
  C11      1.0000 0.20714  0.95854  0.78560  Biso   1.000  C
  C12      1.0000 0.20987  0.98972  0.82331  Biso   1.000  C
  H7       1.0000 0.20157  0.98143  0.86063  Biso   1.000  H
  C13      1.0000 0.22450  0.03259  0.80695  Biso   1.000  C
  H8       1.0000 0.22527  0.05333  0.83303  Biso   1.000  H
  C14      1.0000 0.23810  0.04622  0.75366  Biso   1.000  C
  C15      1.0000 0.23561  0.01490  0.71674  Biso   1.000  C
  H9       1.0000 0.24427  0.02323  0.67953  Biso   1.000  H
  C16      1.0000 0.22080  0.97161  0.73277  Biso   1.000  C
  H10      1.0000 0.22017  0.95083  0.70683  Biso   1.000  H
  C17      1.0000 0.25622  0.09320  0.73567  Biso   1.000  C
  C18      1.0000 0.29385  0.11282  0.70271  Biso   1.000  C
  H11      1.0000 0.30697  0.09563  0.69243  Biso   1.000  H
  H12      1.0000 0.15747  0.05573  0.73683  Biso   1.000  H
  O5       1.0000 0.85970  0.21951  0.10098  Biso   1.000  O
  O6       1.0000 0.84469  0.23477  0.18587  Biso   1.000  O
  C19      1.0000 0.85800  0.24480  0.13689  Biso   1.000  C
  C20      1.0000 0.87380  0.29188  0.11894  Biso   1.000  C
  C21      1.0000 0.87653  0.32306  0.15665  Biso   1.000  C
  H13      1.0000 0.86823  0.31477  0.19397  Biso   1.000  H
  C22      1.0000 0.89116  0.36593  0.14029  Biso   1.000  C
  H14      1.0000 0.89193  0.38667  0.16637  Biso   1.000  H
  C23      1.0000 0.90476  0.37956  0.08700  Biso   1.000  C
  C24      1.0000 0.90227  0.34824  0.05008  Biso   1.000  C
  H15      1.0000 0.91093  0.35657  0.01287  Biso   1.000  H
  C25      1.0000 0.88746  0.30495  0.06611  Biso   1.000  C
  H16      1.0000 0.88683  0.28417  0.04017  Biso   1.000  H
  C26      1.0000 0.92288  0.42654  0.06901  Biso   1.000  C
  C27      1.0000 0.96051  0.44616  0.03605  Biso   1.000  C
  H17      1.0000 0.97363  0.42897  0.02577  Biso   1.000  H
  H18      1.0000 0.82413  0.38907  0.07017  Biso   1.000  H
  O7       1.0000 0.44716  0.97353  0.43431  Biso   1.000  O
  O8       1.0000 0.43190  0.94326  0.51920  Biso   1.000  O
  C28      1.0000 0.42187  0.94654  0.47022  Biso   1.000  C
  C29      1.0000 0.37479  0.91526  0.45227  Biso   1.000  C
  C30      1.0000 0.34361  0.88681  0.48998  Biso   1.000  C
  H19      1.0000 0.35190  0.88680  0.52730  Biso   1.000  H
  C31      1.0000 0.30074  0.85857  0.47362  Biso   1.000  C
  H20      1.0000 0.28000  0.83860  0.49970  Biso   1.000  H
  C32      1.0000 0.28711  0.85854  0.42033  Biso   1.000  C
  C33      1.0000 0.31843  0.88737  0.38341  Biso   1.000  C
  H21      1.0000 0.31010  0.88770  0.34620  Biso   1.000  H
  C34      1.0000 0.36172  0.91585  0.39944  Biso   1.000  C
  H22      1.0000 0.38250  0.93600  0.37350  Biso   1.000  H
  C35      1.0000 0.24013  0.82968  0.40234  Biso   1.000  C
  C36      1.0000 0.22051  0.84769  0.36938  Biso   1.000  C
  H23      1.0000 0.23770  0.87800  0.35910  Biso   1.000  H
  H24      1.0000 0.27760  0.76840  0.40350  Biso   1.000  H
  O9       1.0000 0.11383  0.30686  0.76764  Biso   1.000  O
  O10      1.0000 0.09857  0.27659  0.85253  Biso   1.000  O
  C37      1.0000 0.08854  0.27987  0.80355  Biso   1.000  C
  C38      1.0000 0.04146  0.24859  0.78560  Biso   1.000  C
  C39      1.0000 0.01028  0.22014  0.82331  Biso   1.000  C
  H25      1.0000 0.01857  0.22013  0.86063  Biso   1.000  H
  C40      1.0000 0.96741  0.19190  0.80695  Biso   1.000  C
  H26      1.0000 0.94667  0.17193  0.83303  Biso   1.000  H
  C41      1.0000 0.95378  0.19187  0.75366  Biso   1.000  C
  C42      1.0000 0.98510  0.22070  0.71674  Biso   1.000  C
  H27      1.0000 0.97677  0.22103  0.67953  Biso   1.000  H
  C43      1.0000 0.02839  0.24918  0.73277  Biso   1.000  C
  H28      1.0000 0.04917  0.26933  0.70683  Biso   1.000  H
  C44      1.0000 0.90680  0.16301  0.73567  Biso   1.000  C
  C45      1.0000 0.88718  0.18102  0.70271  Biso   1.000  C
  H29      1.0000 0.90437  0.21133  0.69243  Biso   1.000  H
  H30      1.0000 0.94427  0.10173  0.73683  Biso   1.000  H
  O11      1.0000 0.78049  0.64020  0.10098  Biso   1.000  O
  O12      1.0000 0.76523  0.60993  0.18587  Biso   1.000  O
  C46      1.0000 0.75520  0.61321  0.13689  Biso   1.000  C
  C47      1.0000 0.70812  0.58193  0.11894  Biso   1.000  C
  C48      1.0000 0.67694  0.55348  0.15665  Biso   1.000  C
  H31      1.0000 0.68523  0.55347  0.19397  Biso   1.000  H
  C49      1.0000 0.63407  0.52524  0.14029  Biso   1.000  C
  H32      1.0000 0.61333  0.50527  0.16637  Biso   1.000  H
  C50      1.0000 0.62044  0.52521  0.08700  Biso   1.000  C
  C51      1.0000 0.65176  0.55404  0.05008  Biso   1.000  C
  H33      1.0000 0.64343  0.55437  0.01287  Biso   1.000  H
  C52      1.0000 0.69505  0.58252  0.06611  Biso   1.000  C
  H34      1.0000 0.71583  0.60267  0.04017  Biso   1.000  H
  C53      1.0000 0.57346  0.49635  0.06901  Biso   1.000  C
  C54      1.0000 0.55384  0.51436  0.03605  Biso   1.000  C
  H35      1.0000 0.57103  0.54467  0.02577  Biso   1.000  H
  H36      1.0000 0.61093  0.43507  0.07017  Biso   1.000  H
  O13      1.0000 0.02647  0.47363  0.43431  Biso   1.000  O
  O14      1.0000 0.05674  0.48864  0.51920  Biso   1.000  O
  C55      1.0000 0.05346  0.47533  0.47022  Biso   1.000  C
  C56      1.0000 0.08474  0.45953  0.45227  Biso   1.000  C
  C57      1.0000 0.11319  0.45680  0.48998  Biso   1.000  C
  H37      1.0000 0.11320  0.46510  0.52730  Biso   1.000  H
  C58      1.0000 0.14143  0.44217  0.47362  Biso   1.000  C
  H38      1.0000 0.16140  0.44140  0.49970  Biso   1.000  H
  C59      1.0000 0.14146  0.42857  0.42033  Biso   1.000  C
  C60      1.0000 0.11263  0.43106  0.38341  Biso   1.000  C
  H39      1.0000 0.11230  0.42240  0.34620  Biso   1.000  H
  C61      1.0000 0.08415  0.44587  0.39944  Biso   1.000  C
  H40      1.0000 0.06400  0.44650  0.37350  Biso   1.000  H
  C62      1.0000 0.17032  0.41045  0.40234  Biso   1.000  C
  C63      1.0000 0.15231  0.37282  0.36938  Biso   1.000  C
  H41      1.0000 0.12200  0.35970  0.35910  Biso   1.000  H
  H42      1.0000 0.23160  0.50920  0.40350  Biso   1.000  H
  O15      1.0000 0.69314  0.80696  0.76764  Biso   1.000  O
  O16      1.0000 0.72341  0.82197  0.85253  Biso   1.000  O
  C64      1.0000 0.72013  0.80866  0.80355  Biso   1.000  C
  C65      1.0000 0.75141  0.79286  0.78560  Biso   1.000  C
  C66      1.0000 0.77986  0.79013  0.82331  Biso   1.000  C
  H43      1.0000 0.77987  0.79843  0.86063  Biso   1.000  H
  C67      1.0000 0.80810  0.77550  0.80695  Biso   1.000  C
  H44      1.0000 0.82807  0.77473  0.83303  Biso   1.000  H
  C68      1.0000 0.80813  0.76190  0.75366  Biso   1.000  C
  C69      1.0000 0.77930  0.76439  0.71674  Biso   1.000  C
  H45      1.0000 0.77897  0.75573  0.67953  Biso   1.000  H
  C70      1.0000 0.75082  0.77920  0.73277  Biso   1.000  C
  H46      1.0000 0.73067  0.77983  0.70683  Biso   1.000  H
  C71      1.0000 0.83699  0.74378  0.73567  Biso   1.000  C
  C72      1.0000 0.81898  0.70615  0.70271  Biso   1.000  C
  H47      1.0000 0.78867  0.69303  0.69243  Biso   1.000  H
  H48      1.0000 0.89827  0.84253  0.73683  Biso   1.000  H
  O17      1.0000 0.35980  0.14030  0.10098  Biso   1.000  O
  O18      1.0000 0.39007  0.15531  0.18587  Biso   1.000  O
  C73      1.0000 0.38679  0.14200  0.13689  Biso   1.000  C
  C74      1.0000 0.41807  0.12620  0.11894  Biso   1.000  C
  C75      1.0000 0.44652  0.12347  0.15665  Biso   1.000  C
  H49      1.0000 0.44653  0.13177  0.19397  Biso   1.000  H
  C76      1.0000 0.47476  0.10884  0.14029  Biso   1.000  C
  H50      1.0000 0.49473  0.10807  0.16637  Biso   1.000  H
  C77      1.0000 0.47479  0.09524  0.08700  Biso   1.000  C
  C78      1.0000 0.44596  0.09773  0.05008  Biso   1.000  C
  H51      1.0000 0.44563  0.08907  0.01287  Biso   1.000  H
  C79      1.0000 0.41748  0.11254  0.06611  Biso   1.000  C
  H52      1.0000 0.39733  0.11317  0.04017  Biso   1.000  H
  C80      1.0000 0.50365  0.07712  0.06901  Biso   1.000  C
  C81      1.0000 0.48564  0.03949  0.03605  Biso   1.000  C
  H53      1.0000 0.45533  0.02637  0.02577  Biso   1.000  H
  H54      1.0000 0.56493  0.17587  0.07017  Biso   1.000  H
  O19      1.0000 0.55284  0.52637  0.56569  Biso   1.000  O
  O20      1.0000 0.56810  0.51136  0.48080  Biso   1.000  O
  C82      1.0000 0.57813  0.52467  0.52978  Biso   1.000  C
  C83      1.0000 0.62521  0.54047  0.54773  Biso   1.000  C
  C84      1.0000 0.65639  0.54320  0.51002  Biso   1.000  C
  H55      1.0000 0.64810  0.53490  0.47270  Biso   1.000  H
  C85      1.0000 0.69926  0.55783  0.52638  Biso   1.000  C
  H56      1.0000 0.72000  0.55860  0.50030  Biso   1.000  H
  C86      1.0000 0.71289  0.57143  0.57967  Biso   1.000  C
  C87      1.0000 0.68157  0.56894  0.61659  Biso   1.000  C
  H57      1.0000 0.68990  0.57760  0.65380  Biso   1.000  H
  C88      1.0000 0.63828  0.55413  0.60056  Biso   1.000  C
  H58      1.0000 0.61750  0.55350  0.62650  Biso   1.000  H
  C89      1.0000 0.75987  0.58955  0.59766  Biso   1.000  C
  C90      1.0000 0.77949  0.62718  0.63062  Biso   1.000  C
  H59      1.0000 0.76230  0.64030  0.64090  Biso   1.000  H
  H60      1.0000 0.72240  0.49080  0.59650  Biso   1.000  H
  O21      1.0000 0.21951  0.85970  0.89902  Biso   1.000  O
  O22      1.0000 0.23477  0.84469  0.81413  Biso   1.000  O
  C91      1.0000 0.24480  0.85800  0.86311  Biso   1.000  C
  C92      1.0000 0.29188  0.87380  0.88106  Biso   1.000  C
  C93      1.0000 0.32306  0.87653  0.84335  Biso   1.000  C
  H61      1.0000 0.31477  0.86823  0.80603  Biso   1.000  H
  C94      1.0000 0.36593  0.89116  0.85971  Biso   1.000  C
  H62      1.0000 0.38667  0.89193  0.83363  Biso   1.000  H
  C95      1.0000 0.37956  0.90476  0.91300  Biso   1.000  C
  C96      1.0000 0.34824  0.90227  0.94992  Biso   1.000  C
  H63      1.0000 0.35657  0.91093  0.98713  Biso   1.000  H
  C97      1.0000 0.30495  0.88746  0.93389  Biso   1.000  C
  H64      1.0000 0.28417  0.88683  0.95983  Biso   1.000  H
  C98      1.0000 0.42654  0.92288  0.93099  Biso   1.000  C
  C99      1.0000 0.44616  0.96051  0.96395  Biso   1.000  C
  H65      1.0000 0.42897  0.97363  0.97423  Biso   1.000  H
  H66      1.0000 0.38907  0.82413  0.92983  Biso   1.000  H
  O23      1.0000 0.88617  0.19304  0.23236  Biso   1.000  O
  O24      1.0000 0.90143  0.17803  0.14747  Biso   1.000  O
  C100     1.0000 0.91146  0.19134  0.19645  Biso   1.000  C
  C101     1.0000 0.95854  0.20714  0.21440  Biso   1.000  C
  C102     1.0000 0.98972  0.20987  0.17669  Biso   1.000  C
  H67      1.0000 0.98143  0.20157  0.13937  Biso   1.000  H
  C103     1.0000 0.03259  0.22450  0.19305  Biso   1.000  C
  H68      1.0000 0.05333  0.22527  0.16697  Biso   1.000  H
  C104     1.0000 0.04622  0.23810  0.24634  Biso   1.000  C
  C105     1.0000 0.01490  0.23561  0.28326  Biso   1.000  C
  H69      1.0000 0.02323  0.24427  0.32047  Biso   1.000  H
  C106     1.0000 0.97161  0.22080  0.26723  Biso   1.000  C
  H70      1.0000 0.95083  0.22017  0.29317  Biso   1.000  H
  C107     1.0000 0.09320  0.25622  0.26433  Biso   1.000  C
  C108     1.0000 0.11282  0.29385  0.29729  Biso   1.000  C
  H71      1.0000 0.09563  0.30697  0.30757  Biso   1.000  H
  H72      1.0000 0.05573  0.15747  0.26317  Biso   1.000  H
  O25      1.0000 0.97353  0.44716  0.56569  Biso   1.000  O
  O26      1.0000 0.94326  0.43190  0.48080  Biso   1.000  O
  C109     1.0000 0.94654  0.42187  0.52978  Biso   1.000  C
  C110     1.0000 0.91526  0.37479  0.54773  Biso   1.000  C
  C111     1.0000 0.88681  0.34361  0.51002  Biso   1.000  C
  H73      1.0000 0.88680  0.35190  0.47270  Biso   1.000  H
  C112     1.0000 0.85857  0.30074  0.52638  Biso   1.000  C
  H74      1.0000 0.83860  0.28000  0.50030  Biso   1.000  H
  C113     1.0000 0.85854  0.28711  0.57967  Biso   1.000  C
  C114     1.0000 0.88737  0.31843  0.61659  Biso   1.000  C
  H75      1.0000 0.88770  0.31010  0.65380  Biso   1.000  H
  C115     1.0000 0.91585  0.36172  0.60056  Biso   1.000  C
  H76      1.0000 0.93600  0.38250  0.62650  Biso   1.000  H
  C116     1.0000 0.82968  0.24013  0.59766  Biso   1.000  C
  C117     1.0000 0.84769  0.22051  0.63062  Biso   1.000  C
  H77      1.0000 0.87800  0.23770  0.64090  Biso   1.000  H
  H78      1.0000 0.76840  0.27760  0.59650  Biso   1.000  H
  O27      1.0000 0.64020  0.78049  0.89902  Biso   1.000  O
  O28      1.0000 0.60993  0.76523  0.81413  Biso   1.000  O
  C118     1.0000 0.61321  0.75520  0.86311  Biso   1.000  C
  C119     1.0000 0.58193  0.70812  0.88106  Biso   1.000  C
  C120     1.0000 0.55348  0.67694  0.84335  Biso   1.000  C
  H79      1.0000 0.55347  0.68523  0.80603  Biso   1.000  H
  C121     1.0000 0.52524  0.63407  0.85971  Biso   1.000  C
  H80      1.0000 0.50527  0.61333  0.83363  Biso   1.000  H
  C122     1.0000 0.52521  0.62044  0.91300  Biso   1.000  C
  C123     1.0000 0.55404  0.65176  0.94992  Biso   1.000  C
  H81      1.0000 0.55437  0.64343  0.98713  Biso   1.000  H
  C124     1.0000 0.58252  0.69505  0.93389  Biso   1.000  C
  H82      1.0000 0.60267  0.71583  0.95983  Biso   1.000  H
  C125     1.0000 0.49635  0.57346  0.93099  Biso   1.000  C
  C126     1.0000 0.51436  0.55384  0.96395  Biso   1.000  C
  H83      1.0000 0.54467  0.57103  0.97423  Biso   1.000  H
  H84      1.0000 0.43507  0.61093  0.92983  Biso   1.000  H
  O29      1.0000 0.30686  0.11383  0.23236  Biso   1.000  O
  O30      1.0000 0.27659  0.09857  0.14747  Biso   1.000  O
  C127     1.0000 0.27987  0.08854  0.19645  Biso   1.000  C
  C128     1.0000 0.24859  0.04146  0.21440  Biso   1.000  C
  C129     1.0000 0.22014  0.01028  0.17669  Biso   1.000  C
  H85      1.0000 0.22013  0.01857  0.13937  Biso   1.000  H
  C130     1.0000 0.19190  0.96741  0.19305  Biso   1.000  C
  H86      1.0000 0.17193  0.94667  0.16697  Biso   1.000  H
  C131     1.0000 0.19187  0.95378  0.24634  Biso   1.000  C
  C132     1.0000 0.22070  0.98510  0.28326  Biso   1.000  C
  H87      1.0000 0.22103  0.97677  0.32047  Biso   1.000  H
  C133     1.0000 0.24918  0.02839  0.26723  Biso   1.000  C
  H88      1.0000 0.26933  0.04917  0.29317  Biso   1.000  H
  C134     1.0000 0.16301  0.90680  0.26433  Biso   1.000  C
  C135     1.0000 0.18102  0.88718  0.29729  Biso   1.000  C
  H89      1.0000 0.21133  0.90437  0.30757  Biso   1.000  H
  H90      1.0000 0.10173  0.94427  0.26317  Biso   1.000  H
  O31      1.0000 0.47363  0.02647  0.56569  Biso   1.000  O
  O32      1.0000 0.48864  0.05674  0.48080  Biso   1.000  O
  C136     1.0000 0.47533  0.05346  0.52978  Biso   1.000  C
  C137     1.0000 0.45953  0.08474  0.54773  Biso   1.000  C
  C138     1.0000 0.45680  0.11319  0.51002  Biso   1.000  C
  H91      1.0000 0.46510  0.11320  0.47270  Biso   1.000  H
  C139     1.0000 0.44217  0.14143  0.52638  Biso   1.000  C
  H92      1.0000 0.44140  0.16140  0.50030  Biso   1.000  H
  C140     1.0000 0.42857  0.14146  0.57967  Biso   1.000  C
  C141     1.0000 0.43106  0.11263  0.61659  Biso   1.000  C
  H93      1.0000 0.42240  0.11230  0.65380  Biso   1.000  H
  C142     1.0000 0.44587  0.08415  0.60056  Biso   1.000  C
  H94      1.0000 0.44650  0.06400  0.62650  Biso   1.000  H
  C143     1.0000 0.41045  0.17032  0.59766  Biso   1.000  C
  C144     1.0000 0.37282  0.15231  0.63062  Biso   1.000  C
  H95      1.0000 0.35970  0.12200  0.64090  Biso   1.000  H
  H96      1.0000 0.50920  0.23160  0.59650  Biso   1.000  H
  O33      1.0000 0.14030  0.35980  0.89902  Biso   1.000  O
  O34      1.0000 0.15531  0.39007  0.81413  Biso   1.000  O
  C145     1.0000 0.14200  0.38679  0.86311  Biso   1.000  C
  C146     1.0000 0.12620  0.41807  0.88106  Biso   1.000  C
  C147     1.0000 0.12347  0.44652  0.84335  Biso   1.000  C
  H97      1.0000 0.13177  0.44653  0.80603  Biso   1.000  H
  C148     1.0000 0.10884  0.47476  0.85971  Biso   1.000  C
  H98      1.0000 0.10807  0.49473  0.83363  Biso   1.000  H
  C149     1.0000 0.09524  0.47479  0.91300  Biso   1.000  C
  C150     1.0000 0.09773  0.44596  0.94992  Biso   1.000  C
  H99      1.0000 0.08907  0.44563  0.98713  Biso   1.000  H
  C151     1.0000 0.11254  0.41748  0.93389  Biso   1.000  C
  H100     1.0000 0.11317  0.39733  0.95983  Biso   1.000  H
  C152     1.0000 0.07712  0.50365  0.93099  Biso   1.000  C
  C153     1.0000 0.03949  0.48564  0.96395  Biso   1.000  C
  H101     1.0000 0.02637  0.45533  0.97423  Biso   1.000  H
  H102     1.0000 0.17587  0.56493  0.92983  Biso   1.000  H
  O35      1.0000 0.80696  0.69314  0.23236  Biso   1.000  O
  O36      1.0000 0.82197  0.72341  0.14747  Biso   1.000  O
  C154     1.0000 0.80866  0.72013  0.19645  Biso   1.000  C
  C155     1.0000 0.79286  0.75141  0.21440  Biso   1.000  C
  C156     1.0000 0.79013  0.77986  0.17669  Biso   1.000  C
  H103     1.0000 0.79843  0.77987  0.13937  Biso   1.000  H
  C157     1.0000 0.77550  0.80810  0.19305  Biso   1.000  C
  H104     1.0000 0.77473  0.82807  0.16697  Biso   1.000  H
  C158     1.0000 0.76190  0.80813  0.24634  Biso   1.000  C
  C159     1.0000 0.76439  0.77930  0.28326  Biso   1.000  C
  H105     1.0000 0.75573  0.77897  0.32047  Biso   1.000  H
  C160     1.0000 0.77920  0.75082  0.26723  Biso   1.000  C
  H106     1.0000 0.77983  0.73067  0.29317  Biso   1.000  H
  C161     1.0000 0.74378  0.83699  0.26433  Biso   1.000  C
  C162     1.0000 0.70615  0.81898  0.29729  Biso   1.000  C
  H107     1.0000 0.69303  0.78867  0.30757  Biso   1.000  H
  H108     1.0000 0.84253  0.89827  0.26317  Biso   1.000  H
  O37      1.0000 0.47363  0.44716  0.56569  Biso   1.000  O
  O38      1.0000 0.48864  0.43190  0.48080  Biso   1.000  O
  C163     1.0000 0.47533  0.42187  0.52978  Biso   1.000  C
  C164     1.0000 0.45953  0.37479  0.54773  Biso   1.000  C
  C165     1.0000 0.45680  0.34361  0.51002  Biso   1.000  C
  H109     1.0000 0.46510  0.35190  0.47270  Biso   1.000  H
  C166     1.0000 0.44217  0.30074  0.52638  Biso   1.000  C
  H110     1.0000 0.44140  0.28000  0.50030  Biso   1.000  H
  C167     1.0000 0.42857  0.28711  0.57967  Biso   1.000  C
  C168     1.0000 0.43106  0.31843  0.61659  Biso   1.000  C
  H111     1.0000 0.42240  0.31010  0.65380  Biso   1.000  H
  C169     1.0000 0.44587  0.36172  0.60056  Biso   1.000  C
  H112     1.0000 0.44650  0.38250  0.62650  Biso   1.000  H
  C170     1.0000 0.41045  0.24013  0.59766  Biso   1.000  C
  C171     1.0000 0.37282  0.22051  0.63062  Biso   1.000  C
  H113     1.0000 0.35970  0.23770  0.64090  Biso   1.000  H
  H114     1.0000 0.50920  0.27760  0.59650  Biso   1.000  H
  O39      1.0000 0.14030  0.78049  0.89902  Biso   1.000  O
  O40      1.0000 0.15531  0.76523  0.81413  Biso   1.000  O
  C172     1.0000 0.14200  0.75520  0.86311  Biso   1.000  C
  C173     1.0000 0.12620  0.70812  0.88106  Biso   1.000  C
  C174     1.0000 0.12347  0.67694  0.84335  Biso   1.000  C
  H115     1.0000 0.13177  0.68523  0.80603  Biso   1.000  H
  C175     1.0000 0.10884  0.63407  0.85971  Biso   1.000  C
  H116     1.0000 0.10807  0.61333  0.83363  Biso   1.000  H
  C176     1.0000 0.09524  0.62044  0.91300  Biso   1.000  C
  C177     1.0000 0.09773  0.65176  0.94992  Biso   1.000  C
  H117     1.0000 0.08907  0.64343  0.98713  Biso   1.000  H
  C178     1.0000 0.11254  0.69505  0.93389  Biso   1.000  C
  H118     1.0000 0.11317  0.71583  0.95983  Biso   1.000  H
  C179     1.0000 0.07712  0.57346  0.93099  Biso   1.000  C
  C180     1.0000 0.03949  0.55384  0.96395  Biso   1.000  C
  H119     1.0000 0.02637  0.57103  0.97423  Biso   1.000  H
  H120     1.0000 0.17587  0.61093  0.92983  Biso   1.000  H
  O41      1.0000 0.80696  0.11383  0.23236  Biso   1.000  O
  O42      1.0000 0.82197  0.09857  0.14747  Biso   1.000  O
  C181     1.0000 0.80866  0.08854  0.19645  Biso   1.000  C
  C182     1.0000 0.79286  0.04146  0.21440  Biso   1.000  C
  C183     1.0000 0.79013  0.01028  0.17669  Biso   1.000  C
  H121     1.0000 0.79843  0.01857  0.13937  Biso   1.000  H
  C184     1.0000 0.77550  0.96741  0.19305  Biso   1.000  C
  H122     1.0000 0.77473  0.94667  0.16697  Biso   1.000  H
  C185     1.0000 0.76190  0.95378  0.24634  Biso   1.000  C
  C186     1.0000 0.76439  0.98510  0.28326  Biso   1.000  C
  H123     1.0000 0.75573  0.97677  0.32047  Biso   1.000  H
  C187     1.0000 0.77920  0.02839  0.26723  Biso   1.000  C
  H124     1.0000 0.77983  0.04917  0.29317  Biso   1.000  H
  C188     1.0000 0.74378  0.90680  0.26433  Biso   1.000  C
  C189     1.0000 0.70615  0.88718  0.29729  Biso   1.000  C
  H125     1.0000 0.69303  0.90437  0.30757  Biso   1.000  H
  H126     1.0000 0.84253  0.94427  0.26317  Biso   1.000  H
  O43      1.0000 0.55284  0.02647  0.56569  Biso   1.000  O
  O44      1.0000 0.56810  0.05674  0.48080  Biso   1.000  O
  C190     1.0000 0.57813  0.05346  0.52978  Biso   1.000  C
  C191     1.0000 0.62521  0.08474  0.54773  Biso   1.000  C
  C192     1.0000 0.65639  0.11319  0.51002  Biso   1.000  C
  H127     1.0000 0.64810  0.11320  0.47270  Biso   1.000  H
  C193     1.0000 0.69926  0.14143  0.52638  Biso   1.000  C
  H128     1.0000 0.72000  0.16140  0.50030  Biso   1.000  H
  C194     1.0000 0.71289  0.14146  0.57967  Biso   1.000  C
  C195     1.0000 0.68157  0.11263  0.61659  Biso   1.000  C
  H129     1.0000 0.68990  0.11230  0.65380  Biso   1.000  H
  C196     1.0000 0.63828  0.08415  0.60056  Biso   1.000  C
  H130     1.0000 0.61750  0.06400  0.62650  Biso   1.000  H
  C197     1.0000 0.75987  0.17032  0.59766  Biso   1.000  C
  C198     1.0000 0.77949  0.15231  0.63062  Biso   1.000  C
  H131     1.0000 0.76230  0.12200  0.64090  Biso   1.000  H
  H132     1.0000 0.72240  0.23160  0.59650  Biso   1.000  H
  O45      1.0000 0.21951  0.35980  0.89902  Biso   1.000  O
  O46      1.0000 0.23477  0.39007  0.81413  Biso   1.000  O
  C199     1.0000 0.24480  0.38679  0.86311  Biso   1.000  C
  C200     1.0000 0.29188  0.41807  0.88106  Biso   1.000  C
  C201     1.0000 0.32306  0.44652  0.84335  Biso   1.000  C
  H133     1.0000 0.31477  0.44653  0.80603  Biso   1.000  H
  C202     1.0000 0.36593  0.47476  0.85971  Biso   1.000  C
  H134     1.0000 0.38667  0.49473  0.83363  Biso   1.000  H
  C203     1.0000 0.37956  0.47479  0.91300  Biso   1.000  C
  C204     1.0000 0.34824  0.44596  0.94992  Biso   1.000  C
  H135     1.0000 0.35657  0.44563  0.98713  Biso   1.000  H
  C205     1.0000 0.30495  0.41748  0.93389  Biso   1.000  C
  H136     1.0000 0.28417  0.39733  0.95983  Biso   1.000  H
  C206     1.0000 0.42654  0.50365  0.93099  Biso   1.000  C
  C207     1.0000 0.44616  0.48564  0.96395  Biso   1.000  C
  H137     1.0000 0.42897  0.45533  0.97423  Biso   1.000  H
  H138     1.0000 0.38907  0.56493  0.92983  Biso   1.000  H
  O47      1.0000 0.88617  0.69314  0.23236  Biso   1.000  O
  O48      1.0000 0.90143  0.72341  0.14747  Biso   1.000  O
  C208     1.0000 0.91146  0.72013  0.19645  Biso   1.000  C
  C209     1.0000 0.95854  0.75141  0.21440  Biso   1.000  C
  C210     1.0000 0.98972  0.77986  0.17669  Biso   1.000  C
  H139     1.0000 0.98143  0.77987  0.13937  Biso   1.000  H
  C211     1.0000 0.03259  0.80810  0.19305  Biso   1.000  C
  H140     1.0000 0.05333  0.82807  0.16697  Biso   1.000  H
  C212     1.0000 0.04622  0.80813  0.24634  Biso   1.000  C
  C213     1.0000 0.01490  0.77930  0.28326  Biso   1.000  C
  H141     1.0000 0.02323  0.77897  0.32047  Biso   1.000  H
  C214     1.0000 0.97161  0.75082  0.26723  Biso   1.000  C
  H142     1.0000 0.95083  0.73067  0.29317  Biso   1.000  H
  C215     1.0000 0.09320  0.83699  0.26433  Biso   1.000  C
  C216     1.0000 0.11282  0.81898  0.29729  Biso   1.000  C
  H143     1.0000 0.09563  0.78867  0.30757  Biso   1.000  H
  H144     1.0000 0.05573  0.89827  0.26317  Biso   1.000  H
  O49      1.0000 0.97353  0.52637  0.56569  Biso   1.000  O
  O50      1.0000 0.94326  0.51136  0.48080  Biso   1.000  O
  C217     1.0000 0.94654  0.52467  0.52978  Biso   1.000  C
  C218     1.0000 0.91526  0.54047  0.54773  Biso   1.000  C
  C219     1.0000 0.88681  0.54320  0.51002  Biso   1.000  C
  H145     1.0000 0.88680  0.53490  0.47270  Biso   1.000  H
  C220     1.0000 0.85857  0.55783  0.52638  Biso   1.000  C
  H146     1.0000 0.83860  0.55860  0.50030  Biso   1.000  H
  C221     1.0000 0.85854  0.57143  0.57967  Biso   1.000  C
  C222     1.0000 0.88737  0.56894  0.61659  Biso   1.000  C
  H147     1.0000 0.88770  0.57760  0.65380  Biso   1.000  H
  C223     1.0000 0.91585  0.55413  0.60056  Biso   1.000  C
  H148     1.0000 0.93600  0.55350  0.62650  Biso   1.000  H
  C224     1.0000 0.82968  0.58955  0.59766  Biso   1.000  C
  C225     1.0000 0.84769  0.62718  0.63062  Biso   1.000  C
  H149     1.0000 0.87800  0.64030  0.64090  Biso   1.000  H
  H150     1.0000 0.76840  0.49080  0.59650  Biso   1.000  H
  O51      1.0000 0.64020  0.85970  0.89902  Biso   1.000  O
  O52      1.0000 0.60993  0.84469  0.81413  Biso   1.000  O
  C226     1.0000 0.61321  0.85800  0.86311  Biso   1.000  C
  C227     1.0000 0.58193  0.87380  0.88106  Biso   1.000  C
  C228     1.0000 0.55348  0.87653  0.84335  Biso   1.000  C
  H151     1.0000 0.55347  0.86823  0.80603  Biso   1.000  H
  C229     1.0000 0.52524  0.89116  0.85971  Biso   1.000  C
  H152     1.0000 0.50527  0.89193  0.83363  Biso   1.000  H
  C230     1.0000 0.52521  0.90476  0.91300  Biso   1.000  C
  C231     1.0000 0.55404  0.90227  0.94992  Biso   1.000  C
  H153     1.0000 0.55437  0.91093  0.98713  Biso   1.000  H
  C232     1.0000 0.58252  0.88746  0.93389  Biso   1.000  C
  H154     1.0000 0.60267  0.88683  0.95983  Biso   1.000  H
  C233     1.0000 0.49635  0.92288  0.93099  Biso   1.000  C
  C234     1.0000 0.51436  0.96051  0.96395  Biso   1.000  C
  H155     1.0000 0.54467  0.97363  0.97423  Biso   1.000  H
  H156     1.0000 0.43507  0.82413  0.92983  Biso   1.000  H
  O53      1.0000 0.30686  0.19304  0.23236  Biso   1.000  O
  O54      1.0000 0.27659  0.17803  0.14747  Biso   1.000  O
  C235     1.0000 0.27987  0.19134  0.19645  Biso   1.000  C
  C236     1.0000 0.24859  0.20714  0.21440  Biso   1.000  C
  C237     1.0000 0.22014  0.20987  0.17669  Biso   1.000  C
  H157     1.0000 0.22013  0.20157  0.13937  Biso   1.000  H
  C238     1.0000 0.19190  0.22450  0.19305  Biso   1.000  C
  H158     1.0000 0.17193  0.22527  0.16697  Biso   1.000  H
  C239     1.0000 0.19187  0.23810  0.24634  Biso   1.000  C
  C240     1.0000 0.22070  0.23561  0.28326  Biso   1.000  C
  H159     1.0000 0.22103  0.24427  0.32047  Biso   1.000  H
  C241     1.0000 0.24918  0.22080  0.26723  Biso   1.000  C
  H160     1.0000 0.26933  0.22017  0.29317  Biso   1.000  H
  C242     1.0000 0.16301  0.25622  0.26433  Biso   1.000  C
  C243     1.0000 0.18102  0.29385  0.29729  Biso   1.000  C
  H161     1.0000 0.21133  0.30697  0.30757  Biso   1.000  H
  H162     1.0000 0.10173  0.15747  0.26317  Biso   1.000  H
  O55      1.0000 0.44716  0.47363  0.43431  Biso   1.000  O
  O56      1.0000 0.43190  0.48864  0.51920  Biso   1.000  O
  C244     1.0000 0.42187  0.47533  0.47022  Biso   1.000  C
  C245     1.0000 0.37479  0.45953  0.45227  Biso   1.000  C
  C246     1.0000 0.34361  0.45680  0.48998  Biso   1.000  C
  H163     1.0000 0.35190  0.46510  0.52730  Biso   1.000  H
  C247     1.0000 0.30074  0.44217  0.47362  Biso   1.000  C
  H164     1.0000 0.28000  0.44140  0.49970  Biso   1.000  H
  C248     1.0000 0.28711  0.42857  0.42033  Biso   1.000  C
  C249     1.0000 0.31843  0.43106  0.38341  Biso   1.000  C
  H165     1.0000 0.31010  0.42240  0.34620  Biso   1.000  H
  C250     1.0000 0.36172  0.44587  0.39944  Biso   1.000  C
  H166     1.0000 0.38250  0.44650  0.37350  Biso   1.000  H
  C251     1.0000 0.24013  0.41045  0.40234  Biso   1.000  C
  C252     1.0000 0.22051  0.37282  0.36938  Biso   1.000  C
  H167     1.0000 0.23770  0.35970  0.35910  Biso   1.000  H
  H168     1.0000 0.27760  0.50920  0.40350  Biso   1.000  H
  O57      1.0000 0.11383  0.80696  0.76764  Biso   1.000  O
  O58      1.0000 0.09857  0.82197  0.85253  Biso   1.000  O
  C253     1.0000 0.08854  0.80866  0.80355  Biso   1.000  C
  C254     1.0000 0.04146  0.79286  0.78560  Biso   1.000  C
  C255     1.0000 0.01028  0.79013  0.82331  Biso   1.000  C
  H169     1.0000 0.01857  0.79843  0.86063  Biso   1.000  H
  C256     1.0000 0.96741  0.77550  0.80695  Biso   1.000  C
  H170     1.0000 0.94667  0.77473  0.83303  Biso   1.000  H
  C257     1.0000 0.95378  0.76190  0.75366  Biso   1.000  C
  C258     1.0000 0.98510  0.76439  0.71674  Biso   1.000  C
  H171     1.0000 0.97677  0.75573  0.67953  Biso   1.000  H
  C259     1.0000 0.02839  0.77920  0.73277  Biso   1.000  C
  H172     1.0000 0.04917  0.77983  0.70683  Biso   1.000  H
  C260     1.0000 0.90680  0.74378  0.73567  Biso   1.000  C
  C261     1.0000 0.88718  0.70615  0.70271  Biso   1.000  C
  H173     1.0000 0.90437  0.69303  0.69243  Biso   1.000  H
  H174     1.0000 0.94427  0.84253  0.73683  Biso   1.000  H
  O59      1.0000 0.78049  0.14030  0.10098  Biso   1.000  O
  O60      1.0000 0.76523  0.15531  0.18587  Biso   1.000  O
  C262     1.0000 0.75520  0.14200  0.13689  Biso   1.000  C
  C263     1.0000 0.70812  0.12620  0.11894  Biso   1.000  C
  C264     1.0000 0.67694  0.12347  0.15665  Biso   1.000  C
  H175     1.0000 0.68523  0.13177  0.19397  Biso   1.000  H
  C265     1.0000 0.63407  0.10884  0.14029  Biso   1.000  C
  H176     1.0000 0.61333  0.10807  0.16637  Biso   1.000  H
  C266     1.0000 0.62044  0.09524  0.08700  Biso   1.000  C
  C267     1.0000 0.65176  0.09773  0.05008  Biso   1.000  C
  H177     1.0000 0.64343  0.08907  0.01287  Biso   1.000  H
  C268     1.0000 0.69505  0.11254  0.06611  Biso   1.000  C
  H178     1.0000 0.71583  0.11317  0.04017  Biso   1.000  H
  C269     1.0000 0.57346  0.07712  0.06901  Biso   1.000  C
  C270     1.0000 0.55384  0.03949  0.03605  Biso   1.000  C
  H179     1.0000 0.57103  0.02637  0.02577  Biso   1.000  H
  H180     1.0000 0.61093  0.17587  0.07017  Biso   1.000  H
  O61      1.0000 0.02647  0.55284  0.43431  Biso   1.000  O
  O62      1.0000 0.05674  0.56810  0.51920  Biso   1.000  O
  C271     1.0000 0.05346  0.57813  0.47022  Biso   1.000  C
  C272     1.0000 0.08474  0.62521  0.45227  Biso   1.000  C
  C273     1.0000 0.11319  0.65639  0.48998  Biso   1.000  C
  H181     1.0000 0.11320  0.64810  0.52730  Biso   1.000  H
  C274     1.0000 0.14143  0.69926  0.47362  Biso   1.000  C
  H182     1.0000 0.16140  0.72000  0.49970  Biso   1.000  H
  C275     1.0000 0.14146  0.71289  0.42033  Biso   1.000  C
  C276     1.0000 0.11263  0.68157  0.38341  Biso   1.000  C
  H183     1.0000 0.11230  0.68990  0.34620  Biso   1.000  H
  C277     1.0000 0.08415  0.63828  0.39944  Biso   1.000  C
  H184     1.0000 0.06400  0.61750  0.37350  Biso   1.000  H
  C278     1.0000 0.17032  0.75987  0.40234  Biso   1.000  C
  C279     1.0000 0.15231  0.77949  0.36938  Biso   1.000  C
  H185     1.0000 0.12200  0.76230  0.35910  Biso   1.000  H
  H186     1.0000 0.23160  0.72240  0.40350  Biso   1.000  H
  O63      1.0000 0.69314  0.88617  0.76764  Biso   1.000  O
  O64      1.0000 0.72341  0.90143  0.85253  Biso   1.000  O
  C280     1.0000 0.72013  0.91146  0.80355  Biso   1.000  C
  C281     1.0000 0.75141  0.95854  0.78560  Biso   1.000  C
  C282     1.0000 0.77986  0.98972  0.82331  Biso   1.000  C
  H187     1.0000 0.77987  0.98143  0.86063  Biso   1.000  H
  C283     1.0000 0.80810  0.03259  0.80695  Biso   1.000  C
  H188     1.0000 0.82807  0.05333  0.83303  Biso   1.000  H
  C284     1.0000 0.80813  0.04622  0.75366  Biso   1.000  C
  C285     1.0000 0.77930  0.01490  0.71674  Biso   1.000  C
  H189     1.0000 0.77897  0.02323  0.67953  Biso   1.000  H
  C286     1.0000 0.75082  0.97161  0.73277  Biso   1.000  C
  H190     1.0000 0.73067  0.95083  0.70683  Biso   1.000  H
  C287     1.0000 0.83699  0.09320  0.73567  Biso   1.000  C
  C288     1.0000 0.81898  0.11282  0.70271  Biso   1.000  C
  H191     1.0000 0.78867  0.09563  0.69243  Biso   1.000  H
  H192     1.0000 0.89827  0.05573  0.73683  Biso   1.000  H
  O65      1.0000 0.35980  0.21951  0.10098  Biso   1.000  O
  O66      1.0000 0.39007  0.23477  0.18587  Biso   1.000  O
  C289     1.0000 0.38679  0.24480  0.13689  Biso   1.000  C
  C290     1.0000 0.41807  0.29188  0.11894  Biso   1.000  C
  C291     1.0000 0.44652  0.32306  0.15665  Biso   1.000  C
  H193     1.0000 0.44653  0.31477  0.19397  Biso   1.000  H
  C292     1.0000 0.47476  0.36593  0.14029  Biso   1.000  C
  H194     1.0000 0.49473  0.38667  0.16637  Biso   1.000  H
  C293     1.0000 0.47479  0.37956  0.08700  Biso   1.000  C
  C294     1.0000 0.44596  0.34824  0.05008  Biso   1.000  C
  H195     1.0000 0.44563  0.35657  0.01287  Biso   1.000  H
  C295     1.0000 0.41748  0.30495  0.06611  Biso   1.000  C
  H196     1.0000 0.39733  0.28417  0.04017  Biso   1.000  H
  C296     1.0000 0.50365  0.42654  0.06901  Biso   1.000  C
  C297     1.0000 0.48564  0.44616  0.03605  Biso   1.000  C
  H197     1.0000 0.45533  0.42897  0.02577  Biso   1.000  H
  H198     1.0000 0.56493  0.38907  0.07017  Biso   1.000  H
  O67      1.0000 0.52637  0.97353  0.43431  Biso   1.000  O
  O68      1.0000 0.51136  0.94326  0.51920  Biso   1.000  O
  C298     1.0000 0.52467  0.94654  0.47022  Biso   1.000  C
  C299     1.0000 0.54047  0.91526  0.45227  Biso   1.000  C
  C300     1.0000 0.54320  0.88681  0.48998  Biso   1.000  C
  H199     1.0000 0.53490  0.88680  0.52730  Biso   1.000  H
  C301     1.0000 0.55783  0.85857  0.47362  Biso   1.000  C
  H200     1.0000 0.55860  0.83860  0.49970  Biso   1.000  H
  C302     1.0000 0.57143  0.85854  0.42033  Biso   1.000  C
  C303     1.0000 0.56894  0.88737  0.38341  Biso   1.000  C
  H201     1.0000 0.57760  0.88770  0.34620  Biso   1.000  H
  C304     1.0000 0.55413  0.91585  0.39944  Biso   1.000  C
  H202     1.0000 0.55350  0.93600  0.37350  Biso   1.000  H
  C305     1.0000 0.58955  0.82968  0.40234  Biso   1.000  C
  C306     1.0000 0.62718  0.84769  0.36938  Biso   1.000  C
  H203     1.0000 0.64030  0.87800  0.35910  Biso   1.000  H
  H204     1.0000 0.49080  0.76840  0.40350  Biso   1.000  H
  O69      1.0000 0.19304  0.30686  0.76764  Biso   1.000  O
  O70      1.0000 0.17803  0.27659  0.85253  Biso   1.000  O
  C307     1.0000 0.19134  0.27987  0.80355  Biso   1.000  C
  C308     1.0000 0.20714  0.24859  0.78560  Biso   1.000  C
  C309     1.0000 0.20987  0.22014  0.82331  Biso   1.000  C
  H205     1.0000 0.20157  0.22013  0.86063  Biso   1.000  H
  C310     1.0000 0.22450  0.19190  0.80695  Biso   1.000  C
  H206     1.0000 0.22527  0.17193  0.83303  Biso   1.000  H
  C311     1.0000 0.23810  0.19187  0.75366  Biso   1.000  C
  C312     1.0000 0.23561  0.22070  0.71674  Biso   1.000  C
  H207     1.0000 0.24427  0.22103  0.67953  Biso   1.000  H
  C313     1.0000 0.22080  0.24918  0.73277  Biso   1.000  C
  H208     1.0000 0.22017  0.26933  0.70683  Biso   1.000  H
  C314     1.0000 0.25622  0.16301  0.73567  Biso   1.000  C
  C315     1.0000 0.29385  0.18102  0.70271  Biso   1.000  C
  H209     1.0000 0.30697  0.21133  0.69243  Biso   1.000  H
  H210     1.0000 0.15747  0.10173  0.73683  Biso   1.000  H
  O71      1.0000 0.85970  0.64020  0.10098  Biso   1.000  O
  O72      1.0000 0.84469  0.60993  0.18587  Biso   1.000  O
  C316     1.0000 0.85800  0.61321  0.13689  Biso   1.000  C
  C317     1.0000 0.87380  0.58193  0.11894  Biso   1.000  C
  C318     1.0000 0.87653  0.55348  0.15665  Biso   1.000  C
  H211     1.0000 0.86823  0.55347  0.19397  Biso   1.000  H
  C319     1.0000 0.89116  0.52524  0.14029  Biso   1.000  C
  H212     1.0000 0.89193  0.50527  0.16637  Biso   1.000  H
  C320     1.0000 0.90476  0.52521  0.08700  Biso   1.000  C
  C321     1.0000 0.90227  0.55404  0.05008  Biso   1.000  C
  H213     1.0000 0.91093  0.55437  0.01287  Biso   1.000  H
  C322     1.0000 0.88746  0.58252  0.06611  Biso   1.000  C
  H214     1.0000 0.88683  0.60267  0.04017  Biso   1.000  H
  C323     1.0000 0.92288  0.49635  0.06901  Biso   1.000  C
  C324     1.0000 0.96051  0.51436  0.03605  Biso   1.000  C
  H215     1.0000 0.97363  0.54467  0.02577  Biso   1.000  H
  H216     1.0000 0.82413  0.43507  0.07017  Biso   1.000  H
  Cu1      1.0000 0.50898  0.49102  0.45028  Biso   1.000  Cu
  Cu2      1.0000 0.17565  0.82435  0.78361  Biso   1.000  Cu
  Cu3      1.0000 0.84231  0.15769  0.11695  Biso   1.000  Cu
  Cu4      1.0000 0.50898  0.01796  0.45028  Biso   1.000  Cu
  Cu5      1.0000 0.17565  0.35129  0.78361  Biso   1.000  Cu
  Cu6      1.0000 0.84231  0.68463  0.11695  Biso   1.000  Cu
  Cu7      1.0000 0.98204  0.49102  0.45028  Biso   1.000  Cu
  Cu8      1.0000 0.64871  0.82435  0.78361  Biso   1.000  Cu
  Cu9      1.0000 0.31537  0.15769  0.11695  Biso   1.000  Cu
  Cu10     1.0000 0.49102  0.50898  0.54972  Biso   1.000  Cu
  Cu11     1.0000 0.15769  0.84231  0.88305  Biso   1.000  Cu
  Cu12     1.0000 0.82435  0.17565  0.21639  Biso   1.000  Cu
  Cu13     1.0000 0.01796  0.50898  0.54972  Biso   1.000  Cu
  Cu14     1.0000 0.68463  0.84231  0.88305  Biso   1.000  Cu
  Cu15     1.0000 0.35129  0.17565  0.21639  Biso   1.000  Cu
  Cu16     1.0000 0.49102  0.98204  0.54972  Biso   1.000  Cu
  Cu17     1.0000 0.15769  0.31537  0.88305  Biso   1.000  Cu
  Cu18     1.0000 0.82435  0.64871  0.21639  Biso   1.000  Cu
  O73      1.0000 0.53365  0.76683  0.45246  Biso   1.000  O
  C325     1.0000 0.64672  0.82336  0.35053  Biso   1.000  C
  C326     1.0000 0.57090  0.78545  0.41914  Biso   1.000  C
  C327     1.0000 0.49337  0.74669  0.42660  Biso   1.000  C
  H217     1.0000 0.46970  0.73485  0.45420  Biso   1.000  H
  O74      1.0000 0.20032  0.10016  0.78579  Biso   1.000  O
  C328     1.0000 0.31339  0.15669  0.68386  Biso   1.000  C
  C329     1.0000 0.23757  0.11878  0.75247  Biso   1.000  C
  C330     1.0000 0.16004  0.08002  0.75993  Biso   1.000  C
  H218     1.0000 0.13637  0.06818  0.78753  Biso   1.000  H
  O75      1.0000 0.86698  0.43349  0.11913  Biso   1.000  O
  C331     1.0000 0.98005  0.49003  0.01720  Biso   1.000  C
  C332     1.0000 0.90423  0.45212  0.08581  Biso   1.000  C
  C333     1.0000 0.82670  0.41335  0.09327  Biso   1.000  C
  H219     1.0000 0.80303  0.40152  0.12087  Biso   1.000  H
  O76      1.0000 0.23317  0.76683  0.45246  Biso   1.000  O
  C334     1.0000 0.17664  0.82336  0.35053  Biso   1.000  C
  C335     1.0000 0.21455  0.78545  0.41914  Biso   1.000  C
  C336     1.0000 0.25331  0.74669  0.42660  Biso   1.000  C
  H220     1.0000 0.26515  0.73485  0.45420  Biso   1.000  H
  O77      1.0000 0.89984  0.10016  0.78579  Biso   1.000  O
  C337     1.0000 0.84331  0.15669  0.68386  Biso   1.000  C
  C338     1.0000 0.88122  0.11878  0.75247  Biso   1.000  C
  C339     1.0000 0.91998  0.08002  0.75993  Biso   1.000  C
  H221     1.0000 0.93182  0.06818  0.78753  Biso   1.000  H
  O78      1.0000 0.56651  0.43349  0.11913  Biso   1.000  O
  C340     1.0000 0.50997  0.49003  0.01720  Biso   1.000  C
  C341     1.0000 0.54788  0.45212  0.08581  Biso   1.000  C
  C342     1.0000 0.58665  0.41335  0.09327  Biso   1.000  C
  H222     1.0000 0.59848  0.40152  0.12087  Biso   1.000  H
  O79      1.0000 0.23317  0.46635  0.45246  Biso   1.000  O
  C343     1.0000 0.17664  0.35328  0.35053  Biso   1.000  C
  C344     1.0000 0.21455  0.42910  0.41914  Biso   1.000  C
  C345     1.0000 0.25331  0.50663  0.42660  Biso   1.000  C
  H223     1.0000 0.26515  0.53030  0.45420  Biso   1.000  H
  O80      1.0000 0.89984  0.79968  0.78579  Biso   1.000  O
  C346     1.0000 0.84331  0.68661  0.68386  Biso   1.000  C
  C347     1.0000 0.88122  0.76243  0.75247  Biso   1.000  C
  C348     1.0000 0.91998  0.83996  0.75993  Biso   1.000  C
  H224     1.0000 0.93182  0.86363  0.78753  Biso   1.000  H
  O81      1.0000 0.56651  0.13302  0.11913  Biso   1.000  O
  C349     1.0000 0.50997  0.01995  0.01720  Biso   1.000  C
  C350     1.0000 0.54788  0.09577  0.08581  Biso   1.000  C
  C351     1.0000 0.58665  0.17330  0.09327  Biso   1.000  C
  H225     1.0000 0.59848  0.19697  0.12087  Biso   1.000  H
  O82      1.0000 0.76683  0.53365  0.54754  Biso   1.000  O
  C352     1.0000 0.82336  0.64672  0.64947  Biso   1.000  C
  C353     1.0000 0.78545  0.57090  0.58086  Biso   1.000  C
  C354     1.0000 0.74669  0.49337  0.57340  Biso   1.000  C
  H226     1.0000 0.73485  0.46970  0.54580  Biso   1.000  H
  O83      1.0000 0.43349  0.86698  0.88087  Biso   1.000  O
  C355     1.0000 0.49003  0.98005  0.98280  Biso   1.000  C
  C356     1.0000 0.45212  0.90423  0.91419  Biso   1.000  C
  C357     1.0000 0.41335  0.82670  0.90673  Biso   1.000  C
  H227     1.0000 0.40152  0.80303  0.87913  Biso   1.000  H
  O84      1.0000 0.10016  0.20032  0.21421  Biso   1.000  O
  C358     1.0000 0.15669  0.31339  0.31614  Biso   1.000  C
  C359     1.0000 0.11878  0.23757  0.24753  Biso   1.000  C
  C360     1.0000 0.08002  0.16004  0.24007  Biso   1.000  C
  H228     1.0000 0.06818  0.13637  0.21247  Biso   1.000  H
  O85      1.0000 0.76683  0.23317  0.54754  Biso   1.000  O
  C361     1.0000 0.82336  0.17664  0.64947  Biso   1.000  C
  C362     1.0000 0.78545  0.21455  0.58086  Biso   1.000  C
  C363     1.0000 0.74669  0.25331  0.57340  Biso   1.000  C
  H229     1.0000 0.73485  0.26515  0.54580  Biso   1.000  H
  O86      1.0000 0.43349  0.56651  0.88087  Biso   1.000  O
  C364     1.0000 0.49003  0.50997  0.98280  Biso   1.000  C
  C365     1.0000 0.45212  0.54788  0.91419  Biso   1.000  C
  C366     1.0000 0.41335  0.58665  0.90673  Biso   1.000  C
  H230     1.0000 0.40152  0.59848  0.87913  Biso   1.000  H
  O87      1.0000 0.10016  0.89984  0.21421  Biso   1.000  O
  C367     1.0000 0.15669  0.84331  0.31614  Biso   1.000  C
  C368     1.0000 0.11878  0.88122  0.24753  Biso   1.000  C
  C369     1.0000 0.08002  0.91998  0.24007  Biso   1.000  C
  H231     1.0000 0.06818  0.93182  0.21247  Biso   1.000  H
  O88      1.0000 0.46635  0.23317  0.54754  Biso   1.000  O
  C370     1.0000 0.35328  0.17664  0.64947  Biso   1.000  C
  C371     1.0000 0.42910  0.21455  0.58086  Biso   1.000  C
  C372     1.0000 0.50663  0.25331  0.57340  Biso   1.000  C
  H232     1.0000 0.53030  0.26515  0.54580  Biso   1.000  H
  O89      1.0000 0.13302  0.56651  0.88087  Biso   1.000  O
  C373     1.0000 0.01995  0.50997  0.98280  Biso   1.000  C
  C374     1.0000 0.09577  0.54788  0.91419  Biso   1.000  C
  C375     1.0000 0.17330  0.58665  0.90673  Biso   1.000  C
  H233     1.0000 0.19697  0.59848  0.87913  Biso   1.000  H
  O90      1.0000 0.79968  0.89984  0.21421  Biso   1.000  O
  C376     1.0000 0.68661  0.84331  0.31614  Biso   1.000  C
  C377     1.0000 0.76243  0.88122  0.24753  Biso   1.000  C
  C378     1.0000 0.83996  0.91998  0.24007  Biso   1.000  C
  H234     1.0000 0.86363  0.93182  0.21247  Biso   1.000  H
