data_image0
_cell_length_a       35.7968
_cell_length_b       35.7968
_cell_length_c       15.045
_cell_angle_alpha    90
_cell_angle_beta     90
_cell_angle_gamma    120

_symmetry_space_group_name_H-M    "P 1"
_symmetry_int_tables_number       1

loop_
  _symmetry_equiv_pos_as_xyz
  'x, y, z'

loop_
  _atom_site_label
  _atom_site_occupancy
  _atom_site_fract_x
  _atom_site_fract_y
  _atom_site_fract_z
  _atom_site_thermal_displace_type
  _atom_site_B_iso_or_equiv
  _atom_site_type_symbol
  O1       1.0000 0.55771  0.51916  0.58000  Biso   1.000  O
  O2       1.0000 0.56398  0.51357  0.43200  Biso   1.000  O
  C1       1.0000 0.57840  0.52155  0.50850  Biso   1.000  C
  C2       1.0000 0.62527  0.53587  0.52150  Biso   1.000  C
  C3       1.0000 0.65237  0.54340  0.45530  Biso   1.000  C
  H1       1.0000 0.64180  0.53840  0.39740  Biso   1.000  H
  C4       1.0000 0.69560  0.55820  0.46830  Biso   1.000  C
  H2       1.0000 0.71310  0.56200  0.41960  Biso   1.000  H
  C5       1.0000 0.71307  0.56744  0.55010  Biso   1.000  C
  C6       1.0000 0.68572  0.55840  0.62270  Biso   1.000  C
  H3       1.0000 0.69670  0.56290  0.68020  Biso   1.000  H
  C7       1.0000 0.64122  0.54242  0.60860  Biso   1.000  C
  H4       1.0000 0.62270  0.53630  0.65660  Biso   1.000  H
  C8       1.0000 0.75992  0.58742  0.56900  Biso   1.000  C
  C9       1.0000 0.77994  0.62609  0.61670  Biso   1.000  C
  H5       1.0000 0.76390  0.63900  0.63180  Biso   1.000  H
  H6       1.0000 0.72590  0.49560  0.60630  Biso   1.000  H
  O3       1.0000 0.22438  0.85249  0.91333  Biso   1.000  O
  O4       1.0000 0.23065  0.84690  0.76533  Biso   1.000  O
  C10      1.0000 0.24507  0.85488  0.84183  Biso   1.000  C
  C11      1.0000 0.29194  0.86920  0.85483  Biso   1.000  C
  C12      1.0000 0.31904  0.87673  0.78863  Biso   1.000  C
  H7       1.0000 0.30847  0.87173  0.73073  Biso   1.000  H
  C13      1.0000 0.36227  0.89153  0.80163  Biso   1.000  C
  H8       1.0000 0.37977  0.89533  0.75293  Biso   1.000  H
  C14      1.0000 0.37974  0.90077  0.88343  Biso   1.000  C
  C15      1.0000 0.35239  0.89173  0.95603  Biso   1.000  C
  H9       1.0000 0.36337  0.89623  0.01353  Biso   1.000  H
  C16      1.0000 0.30789  0.87575  0.94193  Biso   1.000  C
  H10      1.0000 0.28937  0.86963  0.98993  Biso   1.000  H
  C17      1.0000 0.42659  0.92075  0.90233  Biso   1.000  C
  C18      1.0000 0.44661  0.95942  0.95003  Biso   1.000  C
  H11      1.0000 0.43057  0.97233  0.96513  Biso   1.000  H
  H12      1.0000 0.39257  0.82893  0.93963  Biso   1.000  H
  O5       1.0000 0.89104  0.18583  0.24667  Biso   1.000  O
  O6       1.0000 0.89731  0.18024  0.09867  Biso   1.000  O
  C19      1.0000 0.91173  0.18822  0.17517  Biso   1.000  C
  C20      1.0000 0.95860  0.20254  0.18817  Biso   1.000  C
  C21      1.0000 0.98570  0.21007  0.12197  Biso   1.000  C
  H13      1.0000 0.97513  0.20507  0.06407  Biso   1.000  H
  C22      1.0000 0.02893  0.22487  0.13497  Biso   1.000  C
  H14      1.0000 0.04643  0.22867  0.08627  Biso   1.000  H
  C23      1.0000 0.04640  0.23411  0.21677  Biso   1.000  C
  C24      1.0000 0.01905  0.22507  0.28937  Biso   1.000  C
  H15      1.0000 0.03003  0.22957  0.34687  Biso   1.000  H
  C25      1.0000 0.97455  0.20909  0.27527  Biso   1.000  C
  H16      1.0000 0.95603  0.20297  0.32327  Biso   1.000  H
  C26      1.0000 0.09325  0.25409  0.23567  Biso   1.000  C
  C27      1.0000 0.11327  0.29276  0.28337  Biso   1.000  C
  H17      1.0000 0.09723  0.30567  0.29847  Biso   1.000  H
  H18      1.0000 0.05923  0.16227  0.27297  Biso   1.000  H
  O7       1.0000 0.48084  0.03855  0.58000  Biso   1.000  O
  O8       1.0000 0.48643  0.05041  0.43200  Biso   1.000  O
  C28      1.0000 0.47845  0.05685  0.50850  Biso   1.000  C
  C29      1.0000 0.46413  0.08940  0.52150  Biso   1.000  C
  C30      1.0000 0.45660  0.10897  0.45530  Biso   1.000  C
  H19      1.0000 0.46160  0.10340  0.39740  Biso   1.000  H
  C31      1.0000 0.44180  0.13740  0.46830  Biso   1.000  C
  H20      1.0000 0.43800  0.15110  0.41960  Biso   1.000  H
  C32      1.0000 0.43256  0.14563  0.55010  Biso   1.000  C
  C33      1.0000 0.44160  0.12732  0.62270  Biso   1.000  C
  H21      1.0000 0.43710  0.13380  0.68020  Biso   1.000  H
  C34      1.0000 0.45758  0.09880  0.60860  Biso   1.000  C
  H22      1.0000 0.46370  0.08640  0.65660  Biso   1.000  H
  C35      1.0000 0.41258  0.17250  0.56900  Biso   1.000  C
  C36      1.0000 0.37391  0.15385  0.61670  Biso   1.000  C
  H23      1.0000 0.36100  0.12490  0.63180  Biso   1.000  H
  H24      1.0000 0.50440  0.23030  0.60630  Biso   1.000  H
  O9       1.0000 0.14751  0.37188  0.91333  Biso   1.000  O
  O10      1.0000 0.15310  0.38374  0.76533  Biso   1.000  O
  C37      1.0000 0.14512  0.39018  0.84183  Biso   1.000  C
  C38      1.0000 0.13080  0.42273  0.85483  Biso   1.000  C
  C39      1.0000 0.12327  0.44230  0.78863  Biso   1.000  C
  H25      1.0000 0.12827  0.43673  0.73073  Biso   1.000  H
  C40      1.0000 0.10847  0.47073  0.80163  Biso   1.000  C
  H26      1.0000 0.10467  0.48443  0.75293  Biso   1.000  H
  C41      1.0000 0.09923  0.47896  0.88343  Biso   1.000  C
  C42      1.0000 0.10827  0.46065  0.95603  Biso   1.000  C
  H27      1.0000 0.10377  0.46713  0.01353  Biso   1.000  H
  C43      1.0000 0.12425  0.43213  0.94193  Biso   1.000  C
  H28      1.0000 0.13037  0.41973  0.98993  Biso   1.000  H
  C44      1.0000 0.07925  0.50583  0.90233  Biso   1.000  C
  C45      1.0000 0.04058  0.48718  0.95003  Biso   1.000  C
  H29      1.0000 0.02767  0.45823  0.96513  Biso   1.000  H
  H30      1.0000 0.17107  0.56363  0.93963  Biso   1.000  H
  O11      1.0000 0.81417  0.70522  0.24667  Biso   1.000  O
  O12      1.0000 0.81976  0.71708  0.09867  Biso   1.000  O
  C46      1.0000 0.81178  0.72352  0.17517  Biso   1.000  C
  C47      1.0000 0.79746  0.75607  0.18817  Biso   1.000  C
  C48      1.0000 0.78993  0.77564  0.12197  Biso   1.000  C
  H31      1.0000 0.79493  0.77007  0.06407  Biso   1.000  H
  C49      1.0000 0.77513  0.80407  0.13497  Biso   1.000  C
  H32      1.0000 0.77133  0.81777  0.08627  Biso   1.000  H
  C50      1.0000 0.76589  0.81230  0.21677  Biso   1.000  C
  C51      1.0000 0.77493  0.79399  0.28937  Biso   1.000  C
  H33      1.0000 0.77043  0.80047  0.34687  Biso   1.000  H
  C52      1.0000 0.79091  0.76547  0.27527  Biso   1.000  C
  H34      1.0000 0.79703  0.75307  0.32327  Biso   1.000  H
  C53      1.0000 0.74591  0.83917  0.23567  Biso   1.000  C
  C54      1.0000 0.70724  0.82052  0.28337  Biso   1.000  C
  H35      1.0000 0.69433  0.79157  0.29847  Biso   1.000  H
  H36      1.0000 0.83773  0.89697  0.27297  Biso   1.000  H
  O13      1.0000 0.96145  0.44229  0.58000  Biso   1.000  O
  O14      1.0000 0.94959  0.43602  0.43200  Biso   1.000  O
  C55      1.0000 0.94315  0.42160  0.50850  Biso   1.000  C
  C56      1.0000 0.91060  0.37473  0.52150  Biso   1.000  C
  C57      1.0000 0.89103  0.34763  0.45530  Biso   1.000  C
  H37      1.0000 0.89660  0.35820  0.39740  Biso   1.000  H
  C58      1.0000 0.86260  0.30440  0.46830  Biso   1.000  C
  H38      1.0000 0.84890  0.28690  0.41960  Biso   1.000  H
  C59      1.0000 0.85437  0.28693  0.55010  Biso   1.000  C
  C60      1.0000 0.87268  0.31428  0.62270  Biso   1.000  C
  H39      1.0000 0.86620  0.30330  0.68020  Biso   1.000  H
  C61      1.0000 0.90120  0.35878  0.60860  Biso   1.000  C
  H40      1.0000 0.91360  0.37730  0.65660  Biso   1.000  H
  C62      1.0000 0.82750  0.24008  0.56900  Biso   1.000  C
  C63      1.0000 0.84615  0.22006  0.61670  Biso   1.000  C
  H41      1.0000 0.87510  0.23610  0.63180  Biso   1.000  H
  H42      1.0000 0.76970  0.27410  0.60630  Biso   1.000  H
  O15      1.0000 0.62812  0.77562  0.91333  Biso   1.000  O
  O16      1.0000 0.61626  0.76935  0.76533  Biso   1.000  O
  C64      1.0000 0.60982  0.75493  0.84183  Biso   1.000  C
  C65      1.0000 0.57727  0.70806  0.85483  Biso   1.000  C
  C66      1.0000 0.55770  0.68096  0.78863  Biso   1.000  C
  H43      1.0000 0.56327  0.69153  0.73073  Biso   1.000  H
  C67      1.0000 0.52927  0.63773  0.80163  Biso   1.000  C
  H44      1.0000 0.51557  0.62023  0.75293  Biso   1.000  H
  C68      1.0000 0.52104  0.62026  0.88343  Biso   1.000  C
  C69      1.0000 0.53935  0.64761  0.95603  Biso   1.000  C
  H45      1.0000 0.53287  0.63663  0.01353  Biso   1.000  H
  C70      1.0000 0.56787  0.69211  0.94193  Biso   1.000  C
  H46      1.0000 0.58027  0.71063  0.98993  Biso   1.000  H
  C71      1.0000 0.49417  0.57341  0.90233  Biso   1.000  C
  C72      1.0000 0.51282  0.55339  0.95003  Biso   1.000  C
  H47      1.0000 0.54177  0.56943  0.96513  Biso   1.000  H
  H48      1.0000 0.43637  0.60743  0.93963  Biso   1.000  H
  O17      1.0000 0.29478  0.10896  0.24667  Biso   1.000  O
  O18      1.0000 0.28292  0.10269  0.09867  Biso   1.000  O
  C73      1.0000 0.27648  0.08827  0.17517  Biso   1.000  C
  C74      1.0000 0.24393  0.04140  0.18817  Biso   1.000  C
  C75      1.0000 0.22436  0.01430  0.12197  Biso   1.000  C
  H49      1.0000 0.22993  0.02487  0.06407  Biso   1.000  H
  C76      1.0000 0.19593  0.97107  0.13497  Biso   1.000  C
  H50      1.0000 0.18223  0.95357  0.08627  Biso   1.000  H
  C77      1.0000 0.18770  0.95360  0.21677  Biso   1.000  C
  C78      1.0000 0.20601  0.98095  0.28937  Biso   1.000  C
  H51      1.0000 0.19953  0.96997  0.34687  Biso   1.000  H
  C79      1.0000 0.23453  0.02545  0.27527  Biso   1.000  C
  H52      1.0000 0.24693  0.04397  0.32327  Biso   1.000  H
  C80      1.0000 0.16083  0.90675  0.23567  Biso   1.000  C
  C81      1.0000 0.17948  0.88673  0.28337  Biso   1.000  C
  H53      1.0000 0.20843  0.90277  0.29847  Biso   1.000  H
  H54      1.0000 0.10303  0.94077  0.27297  Biso   1.000  H
  O19      1.0000 0.51916  0.55771  0.42000  Biso   1.000  O
  O20      1.0000 0.51357  0.56398  0.56800  Biso   1.000  O
  C82      1.0000 0.52155  0.57840  0.49150  Biso   1.000  C
  C83      1.0000 0.53587  0.62527  0.47850  Biso   1.000  C
  C84      1.0000 0.54340  0.65237  0.54470  Biso   1.000  C
  H55      1.0000 0.53840  0.64180  0.60260  Biso   1.000  H
  C85      1.0000 0.55820  0.69560  0.53170  Biso   1.000  C
  H56      1.0000 0.56200  0.71310  0.58040  Biso   1.000  H
  C86      1.0000 0.56744  0.71307  0.44990  Biso   1.000  C
  C87      1.0000 0.55840  0.68572  0.37730  Biso   1.000  C
  H57      1.0000 0.56290  0.69670  0.31980  Biso   1.000  H
  C88      1.0000 0.54242  0.64122  0.39140  Biso   1.000  C
  H58      1.0000 0.53630  0.62270  0.34340  Biso   1.000  H
  C89      1.0000 0.58742  0.75992  0.43100  Biso   1.000  C
  C90      1.0000 0.62609  0.77994  0.38330  Biso   1.000  C
  H59      1.0000 0.63900  0.76390  0.36820  Biso   1.000  H
  H60      1.0000 0.49560  0.72590  0.39370  Biso   1.000  H
  O21      1.0000 0.18583  0.89104  0.75333  Biso   1.000  O
  O22      1.0000 0.18024  0.89731  0.90133  Biso   1.000  O
  C91      1.0000 0.18822  0.91173  0.82483  Biso   1.000  C
  C92      1.0000 0.20254  0.95860  0.81183  Biso   1.000  C
  C93      1.0000 0.21007  0.98570  0.87803  Biso   1.000  C
  H61      1.0000 0.20507  0.97513  0.93593  Biso   1.000  H
  C94      1.0000 0.22487  0.02893  0.86503  Biso   1.000  C
  H62      1.0000 0.22867  0.04643  0.91373  Biso   1.000  H
  C95      1.0000 0.23411  0.04640  0.78323  Biso   1.000  C
  C96      1.0000 0.22507  0.01905  0.71063  Biso   1.000  C
  H63      1.0000 0.22957  0.03003  0.65313  Biso   1.000  H
  C97      1.0000 0.20909  0.97455  0.72473  Biso   1.000  C
  H64      1.0000 0.20297  0.95603  0.67673  Biso   1.000  H
  C98      1.0000 0.25409  0.09325  0.76433  Biso   1.000  C
  C99      1.0000 0.29276  0.11327  0.71663  Biso   1.000  C
  H65      1.0000 0.30567  0.09723  0.70153  Biso   1.000  H
  H66      1.0000 0.16227  0.05923  0.72703  Biso   1.000  H
  O23      1.0000 0.85249  0.22438  0.08667  Biso   1.000  O
  O24      1.0000 0.84690  0.23065  0.23467  Biso   1.000  O
  C100     1.0000 0.85488  0.24507  0.15817  Biso   1.000  C
  C101     1.0000 0.86920  0.29194  0.14517  Biso   1.000  C
  C102     1.0000 0.87673  0.31904  0.21137  Biso   1.000  C
  H67      1.0000 0.87173  0.30847  0.26927  Biso   1.000  H
  C103     1.0000 0.89153  0.36227  0.19837  Biso   1.000  C
  H68      1.0000 0.89533  0.37977  0.24707  Biso   1.000  H
  C104     1.0000 0.90077  0.37974  0.11657  Biso   1.000  C
  C105     1.0000 0.89173  0.35239  0.04397  Biso   1.000  C
  H69      1.0000 0.89623  0.36337  0.98647  Biso   1.000  H
  C106     1.0000 0.87575  0.30789  0.05807  Biso   1.000  C
  H70      1.0000 0.86963  0.28937  0.01007  Biso   1.000  H
  C107     1.0000 0.92075  0.42659  0.09767  Biso   1.000  C
  C108     1.0000 0.95942  0.44661  0.04997  Biso   1.000  C
  H71      1.0000 0.97233  0.43057  0.03487  Biso   1.000  H
  H72      1.0000 0.82893  0.39257  0.06037  Biso   1.000  H
  O25      1.0000 0.03855  0.48084  0.42000  Biso   1.000  O
  O26      1.0000 0.05041  0.48643  0.56800  Biso   1.000  O
  C109     1.0000 0.05685  0.47845  0.49150  Biso   1.000  C
  C110     1.0000 0.08940  0.46413  0.47850  Biso   1.000  C
  C111     1.0000 0.10897  0.45660  0.54470  Biso   1.000  C
  H73      1.0000 0.10340  0.46160  0.60260  Biso   1.000  H
  C112     1.0000 0.13740  0.44180  0.53170  Biso   1.000  C
  H74      1.0000 0.15110  0.43800  0.58040  Biso   1.000  H
  C113     1.0000 0.14563  0.43256  0.44990  Biso   1.000  C
  C114     1.0000 0.12732  0.44160  0.37730  Biso   1.000  C
  H75      1.0000 0.13380  0.43710  0.31980  Biso   1.000  H
  C115     1.0000 0.09880  0.45758  0.39140  Biso   1.000  C
  H76      1.0000 0.08640  0.46370  0.34340  Biso   1.000  H
  C116     1.0000 0.17250  0.41258  0.43100  Biso   1.000  C
  C117     1.0000 0.15385  0.37391  0.38330  Biso   1.000  C
  H77      1.0000 0.12490  0.36100  0.36820  Biso   1.000  H
  H78      1.0000 0.23030  0.50440  0.39370  Biso   1.000  H
  O27      1.0000 0.70522  0.81417  0.75333  Biso   1.000  O
  O28      1.0000 0.71708  0.81976  0.90133  Biso   1.000  O
  C118     1.0000 0.72352  0.81178  0.82483  Biso   1.000  C
  C119     1.0000 0.75607  0.79746  0.81183  Biso   1.000  C
  C120     1.0000 0.77564  0.78993  0.87803  Biso   1.000  C
  H79      1.0000 0.77007  0.79493  0.93593  Biso   1.000  H
  C121     1.0000 0.80407  0.77513  0.86503  Biso   1.000  C
  H80      1.0000 0.81777  0.77133  0.91373  Biso   1.000  H
  C122     1.0000 0.81230  0.76589  0.78323  Biso   1.000  C
  C123     1.0000 0.79399  0.77493  0.71063  Biso   1.000  C
  H81      1.0000 0.80047  0.77043  0.65313  Biso   1.000  H
  C124     1.0000 0.76547  0.79091  0.72473  Biso   1.000  C
  H82      1.0000 0.75307  0.79703  0.67673  Biso   1.000  H
  C125     1.0000 0.83917  0.74591  0.76433  Biso   1.000  C
  C126     1.0000 0.82052  0.70724  0.71663  Biso   1.000  C
  H83      1.0000 0.79157  0.69433  0.70153  Biso   1.000  H
  H84      1.0000 0.89697  0.83773  0.72703  Biso   1.000  H
  O29      1.0000 0.37188  0.14751  0.08667  Biso   1.000  O
  O30      1.0000 0.38374  0.15310  0.23467  Biso   1.000  O
  C127     1.0000 0.39018  0.14512  0.15817  Biso   1.000  C
  C128     1.0000 0.42273  0.13080  0.14517  Biso   1.000  C
  C129     1.0000 0.44230  0.12327  0.21137  Biso   1.000  C
  H85      1.0000 0.43673  0.12827  0.26927  Biso   1.000  H
  C130     1.0000 0.47073  0.10847  0.19837  Biso   1.000  C
  H86      1.0000 0.48443  0.10467  0.24707  Biso   1.000  H
  C131     1.0000 0.47896  0.09923  0.11657  Biso   1.000  C
  C132     1.0000 0.46065  0.10827  0.04397  Biso   1.000  C
  H87      1.0000 0.46713  0.10377  0.98647  Biso   1.000  H
  C133     1.0000 0.43213  0.12425  0.05807  Biso   1.000  C
  H88      1.0000 0.41973  0.13037  0.01007  Biso   1.000  H
  C134     1.0000 0.50583  0.07925  0.09767  Biso   1.000  C
  C135     1.0000 0.48718  0.04058  0.04997  Biso   1.000  C
  H89      1.0000 0.45823  0.02767  0.03487  Biso   1.000  H
  H90      1.0000 0.56363  0.17107  0.06037  Biso   1.000  H
  O31      1.0000 0.44229  0.96145  0.42000  Biso   1.000  O
  O32      1.0000 0.43602  0.94959  0.56800  Biso   1.000  O
  C136     1.0000 0.42160  0.94315  0.49150  Biso   1.000  C
  C137     1.0000 0.37473  0.91060  0.47850  Biso   1.000  C
  C138     1.0000 0.34763  0.89103  0.54470  Biso   1.000  C
  H91      1.0000 0.35820  0.89660  0.60260  Biso   1.000  H
  C139     1.0000 0.30440  0.86260  0.53170  Biso   1.000  C
  H92      1.0000 0.28690  0.84890  0.58040  Biso   1.000  H
  C140     1.0000 0.28693  0.85437  0.44990  Biso   1.000  C
  C141     1.0000 0.31428  0.87268  0.37730  Biso   1.000  C
  H93      1.0000 0.30330  0.86620  0.31980  Biso   1.000  H
  C142     1.0000 0.35878  0.90120  0.39140  Biso   1.000  C
  H94      1.0000 0.37730  0.91360  0.34340  Biso   1.000  H
  C143     1.0000 0.24008  0.82750  0.43100  Biso   1.000  C
  C144     1.0000 0.22006  0.84615  0.38330  Biso   1.000  C
  H95      1.0000 0.23610  0.87510  0.36820  Biso   1.000  H
  H96      1.0000 0.27410  0.76970  0.39370  Biso   1.000  H
  O33      1.0000 0.10896  0.29478  0.75333  Biso   1.000  O
  O34      1.0000 0.10269  0.28292  0.90133  Biso   1.000  O
  C145     1.0000 0.08827  0.27648  0.82483  Biso   1.000  C
  C146     1.0000 0.04140  0.24393  0.81183  Biso   1.000  C
  C147     1.0000 0.01430  0.22436  0.87803  Biso   1.000  C
  H97      1.0000 0.02487  0.22993  0.93593  Biso   1.000  H
  C148     1.0000 0.97107  0.19593  0.86503  Biso   1.000  C
  H98      1.0000 0.95357  0.18223  0.91373  Biso   1.000  H
  C149     1.0000 0.95360  0.18770  0.78323  Biso   1.000  C
  C150     1.0000 0.98095  0.20601  0.71063  Biso   1.000  C
  H99      1.0000 0.96997  0.19953  0.65313  Biso   1.000  H
  C151     1.0000 0.02545  0.23453  0.72473  Biso   1.000  C
  H100     1.0000 0.04397  0.24693  0.67673  Biso   1.000  H
  C152     1.0000 0.90675  0.16083  0.76433  Biso   1.000  C
  C153     1.0000 0.88673  0.17948  0.71663  Biso   1.000  C
  H101     1.0000 0.90277  0.20843  0.70153  Biso   1.000  H
  H102     1.0000 0.94077  0.10303  0.72703  Biso   1.000  H
  O35      1.0000 0.77562  0.62812  0.08667  Biso   1.000  O
  O36      1.0000 0.76935  0.61626  0.23467  Biso   1.000  O
  C154     1.0000 0.75493  0.60982  0.15817  Biso   1.000  C
  C155     1.0000 0.70806  0.57727  0.14517  Biso   1.000  C
  C156     1.0000 0.68096  0.55770  0.21137  Biso   1.000  C
  H103     1.0000 0.69153  0.56327  0.26927  Biso   1.000  H
  C157     1.0000 0.63773  0.52927  0.19837  Biso   1.000  C
  H104     1.0000 0.62023  0.51557  0.24707  Biso   1.000  H
  C158     1.0000 0.62026  0.52104  0.11657  Biso   1.000  C
  C159     1.0000 0.64761  0.53935  0.04397  Biso   1.000  C
  H105     1.0000 0.63663  0.53287  0.98647  Biso   1.000  H
  C160     1.0000 0.69211  0.56787  0.05807  Biso   1.000  C
  H106     1.0000 0.71063  0.58027  0.01007  Biso   1.000  H
  C161     1.0000 0.57341  0.49417  0.09767  Biso   1.000  C
  C162     1.0000 0.55339  0.51282  0.04997  Biso   1.000  C
  H107     1.0000 0.56943  0.54177  0.03487  Biso   1.000  H
  H108     1.0000 0.60743  0.43637  0.06037  Biso   1.000  H
  O37      1.0000 0.44229  0.48084  0.42000  Biso   1.000  O
  O38      1.0000 0.43602  0.48643  0.56800  Biso   1.000  O
  C163     1.0000 0.42160  0.47845  0.49150  Biso   1.000  C
  C164     1.0000 0.37473  0.46413  0.47850  Biso   1.000  C
  C165     1.0000 0.34763  0.45660  0.54470  Biso   1.000  C
  H109     1.0000 0.35820  0.46160  0.60260  Biso   1.000  H
  C166     1.0000 0.30440  0.44180  0.53170  Biso   1.000  C
  H110     1.0000 0.28690  0.43800  0.58040  Biso   1.000  H
  C167     1.0000 0.28693  0.43256  0.44990  Biso   1.000  C
  C168     1.0000 0.31428  0.44160  0.37730  Biso   1.000  C
  H111     1.0000 0.30330  0.43710  0.31980  Biso   1.000  H
  C169     1.0000 0.35878  0.45758  0.39140  Biso   1.000  C
  H112     1.0000 0.37730  0.46370  0.34340  Biso   1.000  H
  C170     1.0000 0.24008  0.41258  0.43100  Biso   1.000  C
  C171     1.0000 0.22006  0.37391  0.38330  Biso   1.000  C
  H113     1.0000 0.23610  0.36100  0.36820  Biso   1.000  H
  H114     1.0000 0.27410  0.50440  0.39370  Biso   1.000  H
  O39      1.0000 0.10896  0.81417  0.75333  Biso   1.000  O
  O40      1.0000 0.10269  0.81976  0.90133  Biso   1.000  O
  C172     1.0000 0.08827  0.81178  0.82483  Biso   1.000  C
  C173     1.0000 0.04140  0.79746  0.81183  Biso   1.000  C
  C174     1.0000 0.01430  0.78993  0.87803  Biso   1.000  C
  H115     1.0000 0.02487  0.79493  0.93593  Biso   1.000  H
  C175     1.0000 0.97107  0.77513  0.86503  Biso   1.000  C
  H116     1.0000 0.95357  0.77133  0.91373  Biso   1.000  H
  C176     1.0000 0.95360  0.76589  0.78323  Biso   1.000  C
  C177     1.0000 0.98095  0.77493  0.71063  Biso   1.000  C
  H117     1.0000 0.96997  0.77043  0.65313  Biso   1.000  H
  C178     1.0000 0.02545  0.79091  0.72473  Biso   1.000  C
  H118     1.0000 0.04397  0.79703  0.67673  Biso   1.000  H
  C179     1.0000 0.90675  0.74591  0.76433  Biso   1.000  C
  C180     1.0000 0.88673  0.70724  0.71663  Biso   1.000  C
  H119     1.0000 0.90277  0.69433  0.70153  Biso   1.000  H
  H120     1.0000 0.94077  0.83773  0.72703  Biso   1.000  H
  O41      1.0000 0.77562  0.14751  0.08667  Biso   1.000  O
  O42      1.0000 0.76935  0.15310  0.23467  Biso   1.000  O
  C181     1.0000 0.75493  0.14512  0.15817  Biso   1.000  C
  C182     1.0000 0.70806  0.13080  0.14517  Biso   1.000  C
  C183     1.0000 0.68096  0.12327  0.21137  Biso   1.000  C
  H121     1.0000 0.69153  0.12827  0.26927  Biso   1.000  H
  C184     1.0000 0.63773  0.10847  0.19837  Biso   1.000  C
  H122     1.0000 0.62023  0.10467  0.24707  Biso   1.000  H
  C185     1.0000 0.62026  0.09923  0.11657  Biso   1.000  C
  C186     1.0000 0.64761  0.10827  0.04397  Biso   1.000  C
  H123     1.0000 0.63663  0.10377  0.98647  Biso   1.000  H
  C187     1.0000 0.69211  0.12425  0.05807  Biso   1.000  C
  H124     1.0000 0.71063  0.13037  0.01007  Biso   1.000  H
  C188     1.0000 0.57341  0.07925  0.09767  Biso   1.000  C
  C189     1.0000 0.55339  0.04058  0.04997  Biso   1.000  C
  H125     1.0000 0.56943  0.02767  0.03487  Biso   1.000  H
  H126     1.0000 0.60743  0.17107  0.06037  Biso   1.000  H
  O43      1.0000 0.51916  0.96145  0.42000  Biso   1.000  O
  O44      1.0000 0.51357  0.94959  0.56800  Biso   1.000  O
  C190     1.0000 0.52155  0.94315  0.49150  Biso   1.000  C
  C191     1.0000 0.53587  0.91060  0.47850  Biso   1.000  C
  C192     1.0000 0.54340  0.89103  0.54470  Biso   1.000  C
  H127     1.0000 0.53840  0.89660  0.60260  Biso   1.000  H
  C193     1.0000 0.55820  0.86260  0.53170  Biso   1.000  C
  H128     1.0000 0.56200  0.84890  0.58040  Biso   1.000  H
  C194     1.0000 0.56744  0.85437  0.44990  Biso   1.000  C
  C195     1.0000 0.55840  0.87268  0.37730  Biso   1.000  C
  H129     1.0000 0.56290  0.86620  0.31980  Biso   1.000  H
  C196     1.0000 0.54242  0.90120  0.39140  Biso   1.000  C
  H130     1.0000 0.53630  0.91360  0.34340  Biso   1.000  H
  C197     1.0000 0.58742  0.82750  0.43100  Biso   1.000  C
  C198     1.0000 0.62609  0.84615  0.38330  Biso   1.000  C
  H131     1.0000 0.63900  0.87510  0.36820  Biso   1.000  H
  H132     1.0000 0.49560  0.76970  0.39370  Biso   1.000  H
  O45      1.0000 0.18583  0.29478  0.75333  Biso   1.000  O
  O46      1.0000 0.18024  0.28292  0.90133  Biso   1.000  O
  C199     1.0000 0.18822  0.27648  0.82483  Biso   1.000  C
  C200     1.0000 0.20254  0.24393  0.81183  Biso   1.000  C
  C201     1.0000 0.21007  0.22436  0.87803  Biso   1.000  C
  H133     1.0000 0.20507  0.22993  0.93593  Biso   1.000  H
  C202     1.0000 0.22487  0.19593  0.86503  Biso   1.000  C
  H134     1.0000 0.22867  0.18223  0.91373  Biso   1.000  H
  C203     1.0000 0.23411  0.18770  0.78323  Biso   1.000  C
  C204     1.0000 0.22507  0.20601  0.71063  Biso   1.000  C
  H135     1.0000 0.22957  0.19953  0.65313  Biso   1.000  H
  C205     1.0000 0.20909  0.23453  0.72473  Biso   1.000  C
  H136     1.0000 0.20297  0.24693  0.67673  Biso   1.000  H
  C206     1.0000 0.25409  0.16083  0.76433  Biso   1.000  C
  C207     1.0000 0.29276  0.17948  0.71663  Biso   1.000  C
  H137     1.0000 0.30567  0.20843  0.70153  Biso   1.000  H
  H138     1.0000 0.16227  0.10303  0.72703  Biso   1.000  H
  O47      1.0000 0.85249  0.62812  0.08667  Biso   1.000  O
  O48      1.0000 0.84690  0.61626  0.23467  Biso   1.000  O
  C208     1.0000 0.85488  0.60982  0.15817  Biso   1.000  C
  C209     1.0000 0.86920  0.57727  0.14517  Biso   1.000  C
  C210     1.0000 0.87673  0.55770  0.21137  Biso   1.000  C
  H139     1.0000 0.87173  0.56327  0.26927  Biso   1.000  H
  C211     1.0000 0.89153  0.52927  0.19837  Biso   1.000  C
  H140     1.0000 0.89533  0.51557  0.24707  Biso   1.000  H
  C212     1.0000 0.90077  0.52104  0.11657  Biso   1.000  C
  C213     1.0000 0.89173  0.53935  0.04397  Biso   1.000  C
  H141     1.0000 0.89623  0.53287  0.98647  Biso   1.000  H
  C214     1.0000 0.87575  0.56787  0.05807  Biso   1.000  C
  H142     1.0000 0.86963  0.58027  0.01007  Biso   1.000  H
  C215     1.0000 0.92075  0.49417  0.09767  Biso   1.000  C
  C216     1.0000 0.95942  0.51282  0.04997  Biso   1.000  C
  H143     1.0000 0.97233  0.54177  0.03487  Biso   1.000  H
  H144     1.0000 0.82893  0.43637  0.06037  Biso   1.000  H
  O49      1.0000 0.03855  0.55771  0.42000  Biso   1.000  O
  O50      1.0000 0.05041  0.56398  0.56800  Biso   1.000  O
  C217     1.0000 0.05685  0.57840  0.49150  Biso   1.000  C
  C218     1.0000 0.08940  0.62527  0.47850  Biso   1.000  C
  C219     1.0000 0.10897  0.65237  0.54470  Biso   1.000  C
  H145     1.0000 0.10340  0.64180  0.60260  Biso   1.000  H
  C220     1.0000 0.13740  0.69560  0.53170  Biso   1.000  C
  H146     1.0000 0.15110  0.71310  0.58040  Biso   1.000  H
  C221     1.0000 0.14563  0.71307  0.44990  Biso   1.000  C
  C222     1.0000 0.12732  0.68572  0.37730  Biso   1.000  C
  H147     1.0000 0.13380  0.69670  0.31980  Biso   1.000  H
  C223     1.0000 0.09880  0.64122  0.39140  Biso   1.000  C
  H148     1.0000 0.08640  0.62270  0.34340  Biso   1.000  H
  C224     1.0000 0.17250  0.75992  0.43100  Biso   1.000  C
  C225     1.0000 0.15385  0.77994  0.38330  Biso   1.000  C
  H149     1.0000 0.12490  0.76390  0.36820  Biso   1.000  H
  H150     1.0000 0.23030  0.72590  0.39370  Biso   1.000  H
  O51      1.0000 0.70522  0.89104  0.75333  Biso   1.000  O
  O52      1.0000 0.71708  0.89731  0.90133  Biso   1.000  O
  C226     1.0000 0.72352  0.91173  0.82483  Biso   1.000  C
  C227     1.0000 0.75607  0.95860  0.81183  Biso   1.000  C
  C228     1.0000 0.77564  0.98570  0.87803  Biso   1.000  C
  H151     1.0000 0.77007  0.97513  0.93593  Biso   1.000  H
  C229     1.0000 0.80407  0.02893  0.86503  Biso   1.000  C
  H152     1.0000 0.81777  0.04643  0.91373  Biso   1.000  H
  C230     1.0000 0.81230  0.04640  0.78323  Biso   1.000  C
  C231     1.0000 0.79399  0.01905  0.71063  Biso   1.000  C
  H153     1.0000 0.80047  0.03003  0.65313  Biso   1.000  H
  C232     1.0000 0.76547  0.97455  0.72473  Biso   1.000  C
  H154     1.0000 0.75307  0.95603  0.67673  Biso   1.000  H
  C233     1.0000 0.83917  0.09325  0.76433  Biso   1.000  C
  C234     1.0000 0.82052  0.11327  0.71663  Biso   1.000  C
  H155     1.0000 0.79157  0.09723  0.70153  Biso   1.000  H
  H156     1.0000 0.89697  0.05923  0.72703  Biso   1.000  H
  O53      1.0000 0.37188  0.22438  0.08667  Biso   1.000  O
  O54      1.0000 0.38374  0.23065  0.23467  Biso   1.000  O
  C235     1.0000 0.39018  0.24507  0.15817  Biso   1.000  C
  C236     1.0000 0.42273  0.29194  0.14517  Biso   1.000  C
  C237     1.0000 0.44230  0.31904  0.21137  Biso   1.000  C
  H157     1.0000 0.43673  0.30847  0.26927  Biso   1.000  H
  C238     1.0000 0.47073  0.36227  0.19837  Biso   1.000  C
  H158     1.0000 0.48443  0.37977  0.24707  Biso   1.000  H
  C239     1.0000 0.47896  0.37974  0.11657  Biso   1.000  C
  C240     1.0000 0.46065  0.35239  0.04397  Biso   1.000  C
  H159     1.0000 0.46713  0.36337  0.98647  Biso   1.000  H
  C241     1.0000 0.43213  0.30789  0.05807  Biso   1.000  C
  H160     1.0000 0.41973  0.28937  0.01007  Biso   1.000  H
  C242     1.0000 0.50583  0.42659  0.09767  Biso   1.000  C
  C243     1.0000 0.48718  0.44661  0.04997  Biso   1.000  C
  H161     1.0000 0.45823  0.43057  0.03487  Biso   1.000  H
  H162     1.0000 0.56363  0.39257  0.06037  Biso   1.000  H
  O55      1.0000 0.48084  0.44229  0.58000  Biso   1.000  O
  O56      1.0000 0.48643  0.43602  0.43200  Biso   1.000  O
  C244     1.0000 0.47845  0.42160  0.50850  Biso   1.000  C
  C245     1.0000 0.46413  0.37473  0.52150  Biso   1.000  C
  C246     1.0000 0.45660  0.34763  0.45530  Biso   1.000  C
  H163     1.0000 0.46160  0.35820  0.39740  Biso   1.000  H
  C247     1.0000 0.44180  0.30440  0.46830  Biso   1.000  C
  H164     1.0000 0.43800  0.28690  0.41960  Biso   1.000  H
  C248     1.0000 0.43256  0.28693  0.55010  Biso   1.000  C
  C249     1.0000 0.44160  0.31428  0.62270  Biso   1.000  C
  H165     1.0000 0.43710  0.30330  0.68020  Biso   1.000  H
  C250     1.0000 0.45758  0.35878  0.60860  Biso   1.000  C
  H166     1.0000 0.46370  0.37730  0.65660  Biso   1.000  H
  C251     1.0000 0.41258  0.24008  0.56900  Biso   1.000  C
  C252     1.0000 0.37391  0.22006  0.61670  Biso   1.000  C
  H167     1.0000 0.36100  0.23610  0.63180  Biso   1.000  H
  H168     1.0000 0.50440  0.27410  0.60630  Biso   1.000  H
  O57      1.0000 0.14751  0.77562  0.91333  Biso   1.000  O
  O58      1.0000 0.15310  0.76935  0.76533  Biso   1.000  O
  C253     1.0000 0.14512  0.75493  0.84183  Biso   1.000  C
  C254     1.0000 0.13080  0.70806  0.85483  Biso   1.000  C
  C255     1.0000 0.12327  0.68096  0.78863  Biso   1.000  C
  H169     1.0000 0.12827  0.69153  0.73073  Biso   1.000  H
  C256     1.0000 0.10847  0.63773  0.80163  Biso   1.000  C
  H170     1.0000 0.10467  0.62023  0.75293  Biso   1.000  H
  C257     1.0000 0.09923  0.62026  0.88343  Biso   1.000  C
  C258     1.0000 0.10827  0.64761  0.95603  Biso   1.000  C
  H171     1.0000 0.10377  0.63663  0.01353  Biso   1.000  H
  C259     1.0000 0.12425  0.69211  0.94193  Biso   1.000  C
  H172     1.0000 0.13037  0.71063  0.98993  Biso   1.000  H
  C260     1.0000 0.07925  0.57341  0.90233  Biso   1.000  C
  C261     1.0000 0.04058  0.55339  0.95003  Biso   1.000  C
  H173     1.0000 0.02767  0.56943  0.96513  Biso   1.000  H
  H174     1.0000 0.17107  0.60743  0.93963  Biso   1.000  H
  O59      1.0000 0.81417  0.10896  0.24667  Biso   1.000  O
  O60      1.0000 0.81976  0.10269  0.09867  Biso   1.000  O
  C262     1.0000 0.81178  0.08827  0.17517  Biso   1.000  C
  C263     1.0000 0.79746  0.04140  0.18817  Biso   1.000  C
  C264     1.0000 0.78993  0.01430  0.12197  Biso   1.000  C
  H175     1.0000 0.79493  0.02487  0.06407  Biso   1.000  H
  C265     1.0000 0.77513  0.97107  0.13497  Biso   1.000  C
  H176     1.0000 0.77133  0.95357  0.08627  Biso   1.000  H
  C266     1.0000 0.76589  0.95360  0.21677  Biso   1.000  C
  C267     1.0000 0.77493  0.98095  0.28937  Biso   1.000  C
  H177     1.0000 0.77043  0.96997  0.34687  Biso   1.000  H
  C268     1.0000 0.79091  0.02545  0.27527  Biso   1.000  C
  H178     1.0000 0.79703  0.04397  0.32327  Biso   1.000  H
  C269     1.0000 0.74591  0.90675  0.23567  Biso   1.000  C
  C270     1.0000 0.70724  0.88673  0.28337  Biso   1.000  C
  H179     1.0000 0.69433  0.90277  0.29847  Biso   1.000  H
  H180     1.0000 0.83773  0.94077  0.27297  Biso   1.000  H
  O61      1.0000 0.96145  0.51916  0.58000  Biso   1.000  O
  O62      1.0000 0.94959  0.51357  0.43200  Biso   1.000  O
  C271     1.0000 0.94315  0.52155  0.50850  Biso   1.000  C
  C272     1.0000 0.91060  0.53587  0.52150  Biso   1.000  C
  C273     1.0000 0.89103  0.54340  0.45530  Biso   1.000  C
  H181     1.0000 0.89660  0.53840  0.39740  Biso   1.000  H
  C274     1.0000 0.86260  0.55820  0.46830  Biso   1.000  C
  H182     1.0000 0.84890  0.56200  0.41960  Biso   1.000  H
  C275     1.0000 0.85437  0.56744  0.55010  Biso   1.000  C
  C276     1.0000 0.87268  0.55840  0.62270  Biso   1.000  C
  H183     1.0000 0.86620  0.56290  0.68020  Biso   1.000  H
  C277     1.0000 0.90120  0.54242  0.60860  Biso   1.000  C
  H184     1.0000 0.91360  0.53630  0.65660  Biso   1.000  H
  C278     1.0000 0.82750  0.58742  0.56900  Biso   1.000  C
  C279     1.0000 0.84615  0.62609  0.61670  Biso   1.000  C
  H185     1.0000 0.87510  0.63900  0.63180  Biso   1.000  H
  H186     1.0000 0.76970  0.49560  0.60630  Biso   1.000  H
  O63      1.0000 0.62812  0.85249  0.91333  Biso   1.000  O
  O64      1.0000 0.61626  0.84690  0.76533  Biso   1.000  O
  C280     1.0000 0.60982  0.85488  0.84183  Biso   1.000  C
  C281     1.0000 0.57727  0.86920  0.85483  Biso   1.000  C
  C282     1.0000 0.55770  0.87673  0.78863  Biso   1.000  C
  H187     1.0000 0.56327  0.87173  0.73073  Biso   1.000  H
  C283     1.0000 0.52927  0.89153  0.80163  Biso   1.000  C
  H188     1.0000 0.51557  0.89533  0.75293  Biso   1.000  H
  C284     1.0000 0.52104  0.90077  0.88343  Biso   1.000  C
  C285     1.0000 0.53935  0.89173  0.95603  Biso   1.000  C
  H189     1.0000 0.53287  0.89623  0.01353  Biso   1.000  H
  C286     1.0000 0.56787  0.87575  0.94193  Biso   1.000  C
  H190     1.0000 0.58027  0.86963  0.98993  Biso   1.000  H
  C287     1.0000 0.49417  0.92075  0.90233  Biso   1.000  C
  C288     1.0000 0.51282  0.95942  0.95003  Biso   1.000  C
  H191     1.0000 0.54177  0.97233  0.96513  Biso   1.000  H
  H192     1.0000 0.43637  0.82893  0.93963  Biso   1.000  H
  O65      1.0000 0.29478  0.18583  0.24667  Biso   1.000  O
  O66      1.0000 0.28292  0.18024  0.09867  Biso   1.000  O
  C289     1.0000 0.27648  0.18822  0.17517  Biso   1.000  C
  C290     1.0000 0.24393  0.20254  0.18817  Biso   1.000  C
  C291     1.0000 0.22436  0.21007  0.12197  Biso   1.000  C
  H193     1.0000 0.22993  0.20507  0.06407  Biso   1.000  H
  C292     1.0000 0.19593  0.22487  0.13497  Biso   1.000  C
  H194     1.0000 0.18223  0.22867  0.08627  Biso   1.000  H
  C293     1.0000 0.18770  0.23411  0.21677  Biso   1.000  C
  C294     1.0000 0.20601  0.22507  0.28937  Biso   1.000  C
  H195     1.0000 0.19953  0.22957  0.34687  Biso   1.000  H
  C295     1.0000 0.23453  0.20909  0.27527  Biso   1.000  C
  H196     1.0000 0.24693  0.20297  0.32327  Biso   1.000  H
  C296     1.0000 0.16083  0.25409  0.23567  Biso   1.000  C
  C297     1.0000 0.17948  0.29276  0.28337  Biso   1.000  C
  H197     1.0000 0.20843  0.30567  0.29847  Biso   1.000  H
  H198     1.0000 0.10303  0.16227  0.27297  Biso   1.000  H
  O67      1.0000 0.55771  0.03855  0.58000  Biso   1.000  O
  O68      1.0000 0.56398  0.05041  0.43200  Biso   1.000  O
  C298     1.0000 0.57840  0.05685  0.50850  Biso   1.000  C
  C299     1.0000 0.62527  0.08940  0.52150  Biso   1.000  C
  C300     1.0000 0.65237  0.10897  0.45530  Biso   1.000  C
  H199     1.0000 0.64180  0.10340  0.39740  Biso   1.000  H
  C301     1.0000 0.69560  0.13740  0.46830  Biso   1.000  C
  H200     1.0000 0.71310  0.15110  0.41960  Biso   1.000  H
  C302     1.0000 0.71307  0.14563  0.55010  Biso   1.000  C
  C303     1.0000 0.68572  0.12732  0.62270  Biso   1.000  C
  H201     1.0000 0.69670  0.13380  0.68020  Biso   1.000  H
  C304     1.0000 0.64122  0.09880  0.60860  Biso   1.000  C
  H202     1.0000 0.62270  0.08640  0.65660  Biso   1.000  H
  C305     1.0000 0.75992  0.17250  0.56900  Biso   1.000  C
  C306     1.0000 0.77994  0.15385  0.61670  Biso   1.000  C
  H203     1.0000 0.76390  0.12490  0.63180  Biso   1.000  H
  H204     1.0000 0.72590  0.23030  0.60630  Biso   1.000  H
  O69      1.0000 0.22438  0.37188  0.91333  Biso   1.000  O
  O70      1.0000 0.23065  0.38374  0.76533  Biso   1.000  O
  C307     1.0000 0.24507  0.39018  0.84183  Biso   1.000  C
  C308     1.0000 0.29194  0.42273  0.85483  Biso   1.000  C
  C309     1.0000 0.31904  0.44230  0.78863  Biso   1.000  C
  H205     1.0000 0.30847  0.43673  0.73073  Biso   1.000  H
  C310     1.0000 0.36227  0.47073  0.80163  Biso   1.000  C
  H206     1.0000 0.37977  0.48443  0.75293  Biso   1.000  H
  C311     1.0000 0.37974  0.47896  0.88343  Biso   1.000  C
  C312     1.0000 0.35239  0.46065  0.95603  Biso   1.000  C
  H207     1.0000 0.36337  0.46713  0.01353  Biso   1.000  H
  C313     1.0000 0.30789  0.43213  0.94193  Biso   1.000  C
  H208     1.0000 0.28937  0.41973  0.98993  Biso   1.000  H
  C314     1.0000 0.42659  0.50583  0.90233  Biso   1.000  C
  C315     1.0000 0.44661  0.48718  0.95003  Biso   1.000  C
  H209     1.0000 0.43057  0.45823  0.96513  Biso   1.000  H
  H210     1.0000 0.39257  0.56363  0.93963  Biso   1.000  H
  O71      1.0000 0.89104  0.70522  0.24667  Biso   1.000  O
  O72      1.0000 0.89731  0.71708  0.09867  Biso   1.000  O
  C316     1.0000 0.91173  0.72352  0.17517  Biso   1.000  C
  C317     1.0000 0.95860  0.75607  0.18817  Biso   1.000  C
  C318     1.0000 0.98570  0.77564  0.12197  Biso   1.000  C
  H211     1.0000 0.97513  0.77007  0.06407  Biso   1.000  H
  C319     1.0000 0.02893  0.80407  0.13497  Biso   1.000  C
  H212     1.0000 0.04643  0.81777  0.08627  Biso   1.000  H
  C320     1.0000 0.04640  0.81230  0.21677  Biso   1.000  C
  C321     1.0000 0.01905  0.79399  0.28937  Biso   1.000  C
  H213     1.0000 0.03003  0.80047  0.34687  Biso   1.000  H
  C322     1.0000 0.97455  0.76547  0.27527  Biso   1.000  C
  H214     1.0000 0.95603  0.75307  0.32327  Biso   1.000  H
  C323     1.0000 0.09325  0.83917  0.23567  Biso   1.000  C
  C324     1.0000 0.11327  0.82052  0.28337  Biso   1.000  C
  H215     1.0000 0.09723  0.79157  0.29847  Biso   1.000  H
  H216     1.0000 0.05923  0.89697  0.27297  Biso   1.000  H
  Cu1      1.0000 0.50328  0.49672  0.41356  Biso   1.000  Cu
  Cu2      1.0000 0.16995  0.83005  0.74689  Biso   1.000  Cu
  Cu3      1.0000 0.83661  0.16339  0.08023  Biso   1.000  Cu
  Cu4      1.0000 0.50328  0.00656  0.41356  Biso   1.000  Cu
  Cu5      1.0000 0.16995  0.33989  0.74689  Biso   1.000  Cu
  Cu6      1.0000 0.83661  0.67323  0.08023  Biso   1.000  Cu
  Cu7      1.0000 0.99344  0.49672  0.41356  Biso   1.000  Cu
  Cu8      1.0000 0.66011  0.83005  0.74689  Biso   1.000  Cu
  Cu9      1.0000 0.32677  0.16339  0.08023  Biso   1.000  Cu
  Cu10     1.0000 0.49672  0.50328  0.58644  Biso   1.000  Cu
  Cu11     1.0000 0.16339  0.83661  0.91977  Biso   1.000  Cu
  Cu12     1.0000 0.83005  0.16995  0.25311  Biso   1.000  Cu
  Cu13     1.0000 0.00656  0.50328  0.58644  Biso   1.000  Cu
  Cu14     1.0000 0.67323  0.83661  0.91977  Biso   1.000  Cu
  Cu15     1.0000 0.33989  0.16995  0.25311  Biso   1.000  Cu
  Cu16     1.0000 0.49672  0.99344  0.58644  Biso   1.000  Cu
  Cu17     1.0000 0.16339  0.32677  0.91977  Biso   1.000  Cu
  Cu18     1.0000 0.83005  0.66011  0.25311  Biso   1.000  Cu
  O73      1.0000 0.76517  0.53034  0.49940  Biso   1.000  O
  C325     1.0000 0.82295  0.64590  0.64240  Biso   1.000  C
  C326     1.0000 0.78458  0.56917  0.54510  Biso   1.000  C
  C327     1.0000 0.74665  0.49330  0.56980  Biso   1.000  C
  H217     1.0000 0.73295  0.46590  0.54000  Biso   1.000  H
  O74      1.0000 0.43184  0.86367  0.83273  Biso   1.000  O
  C328     1.0000 0.48962  0.97923  0.97573  Biso   1.000  C
  C329     1.0000 0.45125  0.90250  0.87843  Biso   1.000  C
  C330     1.0000 0.41332  0.82663  0.90313  Biso   1.000  C
  H218     1.0000 0.39962  0.79923  0.87333  Biso   1.000  H
  O75      1.0000 0.09850  0.19701  0.16607  Biso   1.000  O
  C331     1.0000 0.15628  0.31257  0.30907  Biso   1.000  C
  C332     1.0000 0.11792  0.23584  0.21177  Biso   1.000  C
  C333     1.0000 0.07998  0.15997  0.23647  Biso   1.000  C
  H219     1.0000 0.06628  0.13257  0.20667  Biso   1.000  H
  O76      1.0000 0.46966  0.23483  0.49940  Biso   1.000  O
  C334     1.0000 0.35410  0.17705  0.64240  Biso   1.000  C
  C335     1.0000 0.43083  0.21542  0.54510  Biso   1.000  C
  C336     1.0000 0.50670  0.25335  0.56980  Biso   1.000  C
  H220     1.0000 0.53410  0.26705  0.54000  Biso   1.000  H
  O77      1.0000 0.13633  0.56816  0.83273  Biso   1.000  O
  C337     1.0000 0.02077  0.51038  0.97573  Biso   1.000  C
  C338     1.0000 0.09750  0.54875  0.87843  Biso   1.000  C
  C339     1.0000 0.17337  0.58668  0.90313  Biso   1.000  C
  H221     1.0000 0.20077  0.60038  0.87333  Biso   1.000  H
  O78      1.0000 0.80299  0.90150  0.16607  Biso   1.000  O
  C340     1.0000 0.68743  0.84372  0.30907  Biso   1.000  C
  C341     1.0000 0.76416  0.88208  0.21177  Biso   1.000  C
  C342     1.0000 0.84003  0.92002  0.23647  Biso   1.000  C
  H222     1.0000 0.86743  0.93372  0.20667  Biso   1.000  H
  O79      1.0000 0.76517  0.23483  0.49940  Biso   1.000  O
  C343     1.0000 0.82295  0.17705  0.64240  Biso   1.000  C
  C344     1.0000 0.78458  0.21542  0.54510  Biso   1.000  C
  C345     1.0000 0.74665  0.25335  0.56980  Biso   1.000  C
  H223     1.0000 0.73295  0.26705  0.54000  Biso   1.000  H
  O80      1.0000 0.43184  0.56816  0.83273  Biso   1.000  O
  C346     1.0000 0.48962  0.51038  0.97573  Biso   1.000  C
  C347     1.0000 0.45125  0.54875  0.87843  Biso   1.000  C
  C348     1.0000 0.41332  0.58668  0.90313  Biso   1.000  C
  H224     1.0000 0.39962  0.60038  0.87333  Biso   1.000  H
  O81      1.0000 0.09850  0.90150  0.16607  Biso   1.000  O
  C349     1.0000 0.15628  0.84372  0.30907  Biso   1.000  C
  C350     1.0000 0.11792  0.88208  0.21177  Biso   1.000  C
  C351     1.0000 0.07998  0.92002  0.23647  Biso   1.000  C
  H225     1.0000 0.06628  0.93372  0.20667  Biso   1.000  H
  O82      1.0000 0.53034  0.76517  0.50060  Biso   1.000  O
  C352     1.0000 0.64590  0.82295  0.35760  Biso   1.000  C
  C353     1.0000 0.56917  0.78458  0.45490  Biso   1.000  C
  C354     1.0000 0.49330  0.74665  0.43020  Biso   1.000  C
  H226     1.0000 0.46590  0.73295  0.46000  Biso   1.000  H
  O83      1.0000 0.19701  0.09850  0.83393  Biso   1.000  O
  C355     1.0000 0.31257  0.15628  0.69093  Biso   1.000  C
  C356     1.0000 0.23584  0.11792  0.78823  Biso   1.000  C
  C357     1.0000 0.15997  0.07998  0.76353  Biso   1.000  C
  H227     1.0000 0.13257  0.06628  0.79333  Biso   1.000  H
  O84      1.0000 0.86367  0.43184  0.16727  Biso   1.000  O
  C358     1.0000 0.97923  0.48962  0.02427  Biso   1.000  C
  C359     1.0000 0.90250  0.45125  0.12157  Biso   1.000  C
  C360     1.0000 0.82663  0.41332  0.09687  Biso   1.000  C
  H228     1.0000 0.79923  0.39962  0.12667  Biso   1.000  H
  O85      1.0000 0.23483  0.46966  0.50060  Biso   1.000  O
  C361     1.0000 0.17705  0.35410  0.35760  Biso   1.000  C
  C362     1.0000 0.21542  0.43083  0.45490  Biso   1.000  C
  C363     1.0000 0.25335  0.50670  0.43020  Biso   1.000  C
  H229     1.0000 0.26705  0.53410  0.46000  Biso   1.000  H
  O86      1.0000 0.90150  0.80299  0.83393  Biso   1.000  O
  C364     1.0000 0.84372  0.68743  0.69093  Biso   1.000  C
  C365     1.0000 0.88208  0.76416  0.78823  Biso   1.000  C
  C366     1.0000 0.92002  0.84003  0.76353  Biso   1.000  C
  H230     1.0000 0.93372  0.86743  0.79333  Biso   1.000  H
  O87      1.0000 0.56816  0.13633  0.16727  Biso   1.000  O
  C367     1.0000 0.51038  0.02077  0.02427  Biso   1.000  C
  C368     1.0000 0.54875  0.09750  0.12157  Biso   1.000  C
  C369     1.0000 0.58668  0.17337  0.09687  Biso   1.000  C
  H231     1.0000 0.60038  0.20077  0.12667  Biso   1.000  H
  O88      1.0000 0.23483  0.76517  0.50060  Biso   1.000  O
  C370     1.0000 0.17705  0.82295  0.35760  Biso   1.000  C
  C371     1.0000 0.21542  0.78458  0.45490  Biso   1.000  C
  C372     1.0000 0.25335  0.74665  0.43020  Biso   1.000  C
  H232     1.0000 0.26705  0.73295  0.46000  Biso   1.000  H
  O89      1.0000 0.90150  0.09850  0.83393  Biso   1.000  O
  C373     1.0000 0.84372  0.15628  0.69093  Biso   1.000  C
  C374     1.0000 0.88208  0.11792  0.78823  Biso   1.000  C
  C375     1.0000 0.92002  0.07998  0.76353  Biso   1.000  C
  H233     1.0000 0.93372  0.06628  0.79333  Biso   1.000  H
  O90      1.0000 0.56816  0.43184  0.16727  Biso   1.000  O
  C376     1.0000 0.51038  0.48962  0.02427  Biso   1.000  C
  C377     1.0000 0.54875  0.45125  0.12157  Biso   1.000  C
  C378     1.0000 0.58668  0.41332  0.09687  Biso   1.000  C
  H234     1.0000 0.60038  0.39962  0.12667  Biso   1.000  H
