data_image0
_cell_length_a       35.0673
_cell_length_b       35.0673
_cell_length_c       22.397
_cell_angle_alpha    90
_cell_angle_beta     90
_cell_angle_gamma    120

_symmetry_space_group_name_H-M    "P 1"
_symmetry_int_tables_number       1

loop_
  _symmetry_equiv_pos_as_xyz
  'x, y, z'

loop_
  _atom_site_label
  _atom_site_occupancy
  _atom_site_fract_x
  _atom_site_fract_y
  _atom_site_fract_z
  _atom_site_thermal_displace_type
  _atom_site_B_iso_or_equiv
  _atom_site_type_symbol
  O1       1.0000 0.44694  0.47455  0.43314  Biso   1.000  O
  O2       1.0000 0.43291  0.48899  0.52176  Biso   1.000  O
  C1       1.0000 0.42176  0.47581  0.47030  Biso   1.000  C
  C2       1.0000 0.37527  0.46043  0.45320  Biso   1.000  C
  C3       1.0000 0.34473  0.45844  0.49460  Biso   1.000  C
  H1       1.0000 0.35290  0.46640  0.53420  Biso   1.000  H
  C4       1.0000 0.30184  0.44429  0.47590  Biso   1.000  C
  H2       1.0000 0.28210  0.44460  0.50350  Biso   1.000  H
  C5       1.0000 0.28744  0.43024  0.42030  Biso   1.000  C
  C6       1.0000 0.31826  0.43241  0.37960  Biso   1.000  C
  H3       1.0000 0.30970  0.42360  0.34040  Biso   1.000  H
  C7       1.0000 0.36168  0.44739  0.39600  Biso   1.000  C
  H4       1.0000 0.38170  0.44850  0.36780  Biso   1.000  H
  C8       1.0000 0.24048  0.41166  0.40290  Biso   1.000  C
  C9       1.0000 0.22045  0.37320  0.36960  Biso   1.000  C
  H5       1.0000 0.23700  0.36030  0.35830  Biso   1.000  H
  H6       1.0000 0.23060  0.50590  0.39910  Biso   1.000  H
  O3       1.0000 0.11361  0.80788  0.76647  Biso   1.000  O
  O4       1.0000 0.09958  0.82232  0.85509  Biso   1.000  O
  C10      1.0000 0.08843  0.80914  0.80363  Biso   1.000  C
  C11      1.0000 0.04194  0.79376  0.78653  Biso   1.000  C
  C12      1.0000 0.01140  0.79177  0.82793  Biso   1.000  C
  H7       1.0000 0.01957  0.79973  0.86753  Biso   1.000  H
  C13      1.0000 0.96851  0.77762  0.80923  Biso   1.000  C
  H8       1.0000 0.94877  0.77793  0.83683  Biso   1.000  H
  C14      1.0000 0.95411  0.76357  0.75363  Biso   1.000  C
  C15      1.0000 0.98493  0.76574  0.71293  Biso   1.000  C
  H9       1.0000 0.97637  0.75693  0.67373  Biso   1.000  H
  C16      1.0000 0.02835  0.78072  0.72933  Biso   1.000  C
  H10      1.0000 0.04837  0.78183  0.70113  Biso   1.000  H
  C17      1.0000 0.90715  0.74499  0.73623  Biso   1.000  C
  C18      1.0000 0.88712  0.70653  0.70293  Biso   1.000  C
  H11      1.0000 0.90367  0.69363  0.69163  Biso   1.000  H
  H12      1.0000 0.89727  0.83923  0.73243  Biso   1.000  H
  O5       1.0000 0.78027  0.14122  0.09981  Biso   1.000  O
  O6       1.0000 0.76624  0.15566  0.18843  Biso   1.000  O
  C19      1.0000 0.75509  0.14248  0.13697  Biso   1.000  C
  C20      1.0000 0.70860  0.12710  0.11987  Biso   1.000  C
  C21      1.0000 0.67806  0.12511  0.16127  Biso   1.000  C
  H13      1.0000 0.68623  0.13307  0.20087  Biso   1.000  H
  C22      1.0000 0.63517  0.11096  0.14257  Biso   1.000  C
  H14      1.0000 0.61543  0.11127  0.17017  Biso   1.000  H
  C23      1.0000 0.62077  0.09691  0.08697  Biso   1.000  C
  C24      1.0000 0.65159  0.09908  0.04627  Biso   1.000  C
  H15      1.0000 0.64303  0.09027  0.00707  Biso   1.000  H
  C25      1.0000 0.69501  0.11406  0.06267  Biso   1.000  C
  H16      1.0000 0.71503  0.11517  0.03447  Biso   1.000  H
  C26      1.0000 0.57381  0.07833  0.06957  Biso   1.000  C
  C27      1.0000 0.55378  0.03987  0.03627  Biso   1.000  C
  H17      1.0000 0.57033  0.02697  0.02497  Biso   1.000  H
  H18      1.0000 0.56393  0.17257  0.06577  Biso   1.000  H
  O7       1.0000 0.52545  0.97239  0.43314  Biso   1.000  O
  O8       1.0000 0.51101  0.94392  0.52176  Biso   1.000  O
  C28      1.0000 0.52419  0.94595  0.47030  Biso   1.000  C
  C29      1.0000 0.53957  0.91484  0.45320  Biso   1.000  C
  C30      1.0000 0.54156  0.88629  0.49460  Biso   1.000  C
  H19      1.0000 0.53360  0.88650  0.53420  Biso   1.000  H
  C31      1.0000 0.55571  0.85755  0.47590  Biso   1.000  C
  H20      1.0000 0.55540  0.83750  0.50350  Biso   1.000  H
  C32      1.0000 0.56976  0.85720  0.42030  Biso   1.000  C
  C33      1.0000 0.56759  0.88585  0.37960  Biso   1.000  C
  H21      1.0000 0.57640  0.88610  0.34040  Biso   1.000  H
  C34      1.0000 0.55261  0.91429  0.39600  Biso   1.000  C
  H22      1.0000 0.55150  0.93320  0.36780  Biso   1.000  H
  C35      1.0000 0.58834  0.82882  0.40290  Biso   1.000  C
  C36      1.0000 0.62680  0.84725  0.36960  Biso   1.000  C
  H23      1.0000 0.63970  0.87670  0.35830  Biso   1.000  H
  H24      1.0000 0.49410  0.72470  0.39910  Biso   1.000  H
  O9       1.0000 0.19212  0.30572  0.76647  Biso   1.000  O
  O10      1.0000 0.17768  0.27725  0.85509  Biso   1.000  O
  C37      1.0000 0.19086  0.27928  0.80363  Biso   1.000  C
  C38      1.0000 0.20624  0.24817  0.78653  Biso   1.000  C
  C39      1.0000 0.20823  0.21962  0.82793  Biso   1.000  C
  H25      1.0000 0.20027  0.21983  0.86753  Biso   1.000  H
  C40      1.0000 0.22238  0.19088  0.80923  Biso   1.000  C
  H26      1.0000 0.22207  0.17083  0.83683  Biso   1.000  H
  C41      1.0000 0.23643  0.19053  0.75363  Biso   1.000  C
  C42      1.0000 0.23426  0.21918  0.71293  Biso   1.000  C
  H27      1.0000 0.24307  0.21943  0.67373  Biso   1.000  H
  C43      1.0000 0.21928  0.24762  0.72933  Biso   1.000  C
  H28      1.0000 0.21817  0.26653  0.70113  Biso   1.000  H
  C44      1.0000 0.25501  0.16215  0.73623  Biso   1.000  C
  C45      1.0000 0.29347  0.18058  0.70293  Biso   1.000  C
  H29      1.0000 0.30637  0.21003  0.69163  Biso   1.000  H
  H30      1.0000 0.16077  0.05803  0.73243  Biso   1.000  H
  O11      1.0000 0.85878  0.63906  0.09981  Biso   1.000  O
  O12      1.0000 0.84434  0.61059  0.18843  Biso   1.000  O
  C46      1.0000 0.85752  0.61262  0.13697  Biso   1.000  C
  C47      1.0000 0.87290  0.58151  0.11987  Biso   1.000  C
  C48      1.0000 0.87489  0.55296  0.16127  Biso   1.000  C
  H31      1.0000 0.86693  0.55317  0.20087  Biso   1.000  H
  C49      1.0000 0.88904  0.52422  0.14257  Biso   1.000  C
  H32      1.0000 0.88873  0.50417  0.17017  Biso   1.000  H
  C50      1.0000 0.90309  0.52387  0.08697  Biso   1.000  C
  C51      1.0000 0.90092  0.55252  0.04627  Biso   1.000  C
  H33      1.0000 0.90973  0.55277  0.00707  Biso   1.000  H
  C52      1.0000 0.88594  0.58096  0.06267  Biso   1.000  C
  H34      1.0000 0.88483  0.59987  0.03447  Biso   1.000  H
  C53      1.0000 0.92167  0.49549  0.06957  Biso   1.000  C
  C54      1.0000 0.96013  0.51392  0.03627  Biso   1.000  C
  H35      1.0000 0.97303  0.54337  0.02497  Biso   1.000  H
  H36      1.0000 0.82743  0.39137  0.06577  Biso   1.000  H
  O13      1.0000 0.02761  0.55306  0.43314  Biso   1.000  O
  O14      1.0000 0.05608  0.56709  0.52176  Biso   1.000  O
  C55      1.0000 0.05405  0.57824  0.47030  Biso   1.000  C
  C56      1.0000 0.08516  0.62473  0.45320  Biso   1.000  C
  C57      1.0000 0.11371  0.65527  0.49460  Biso   1.000  C
  H37      1.0000 0.11350  0.64710  0.53420  Biso   1.000  H
  C58      1.0000 0.14245  0.69816  0.47590  Biso   1.000  C
  H38      1.0000 0.16250  0.71790  0.50350  Biso   1.000  H
  C59      1.0000 0.14280  0.71256  0.42030  Biso   1.000  C
  C60      1.0000 0.11415  0.68174  0.37960  Biso   1.000  C
  H39      1.0000 0.11390  0.69030  0.34040  Biso   1.000  H
  C61      1.0000 0.08571  0.63832  0.39600  Biso   1.000  C
  H40      1.0000 0.06680  0.61830  0.36780  Biso   1.000  H
  C62      1.0000 0.17118  0.75952  0.40290  Biso   1.000  C
  C63      1.0000 0.15275  0.77955  0.36960  Biso   1.000  C
  H41      1.0000 0.12330  0.76300  0.35830  Biso   1.000  H
  H42      1.0000 0.27530  0.76940  0.39910  Biso   1.000  H
  O15      1.0000 0.69428  0.88639  0.76647  Biso   1.000  O
  O16      1.0000 0.72275  0.90042  0.85509  Biso   1.000  O
  C64      1.0000 0.72072  0.91157  0.80363  Biso   1.000  C
  C65      1.0000 0.75183  0.95806  0.78653  Biso   1.000  C
  C66      1.0000 0.78038  0.98860  0.82793  Biso   1.000  C
  H43      1.0000 0.78017  0.98043  0.86753  Biso   1.000  H
  C67      1.0000 0.80912  0.03149  0.80923  Biso   1.000  C
  H44      1.0000 0.82917  0.05123  0.83683  Biso   1.000  H
  C68      1.0000 0.80947  0.04589  0.75363  Biso   1.000  C
  C69      1.0000 0.78082  0.01507  0.71293  Biso   1.000  C
  H45      1.0000 0.78057  0.02363  0.67373  Biso   1.000  H
  C70      1.0000 0.75238  0.97165  0.72933  Biso   1.000  C
  H46      1.0000 0.73347  0.95163  0.70113  Biso   1.000  H
  C71      1.0000 0.83785  0.09285  0.73623  Biso   1.000  C
  C72      1.0000 0.81942  0.11288  0.70293  Biso   1.000  C
  H47      1.0000 0.78997  0.09633  0.69163  Biso   1.000  H
  H48      1.0000 0.94197  0.10273  0.73243  Biso   1.000  H
  O17      1.0000 0.36094  0.21973  0.09981  Biso   1.000  O
  O18      1.0000 0.38941  0.23376  0.18843  Biso   1.000  O
  C73      1.0000 0.38738  0.24491  0.13697  Biso   1.000  C
  C74      1.0000 0.41849  0.29140  0.11987  Biso   1.000  C
  C75      1.0000 0.44704  0.32194  0.16127  Biso   1.000  C
  H49      1.0000 0.44683  0.31377  0.20087  Biso   1.000  H
  C76      1.0000 0.47578  0.36483  0.14257  Biso   1.000  C
  H50      1.0000 0.49583  0.38457  0.17017  Biso   1.000  H
  C77      1.0000 0.47613  0.37923  0.08697  Biso   1.000  C
  C78      1.0000 0.44748  0.34841  0.04627  Biso   1.000  C
  H51      1.0000 0.44723  0.35697  0.00707  Biso   1.000  H
  C79      1.0000 0.41904  0.30499  0.06267  Biso   1.000  C
  H52      1.0000 0.40013  0.28497  0.03447  Biso   1.000  H
  C80      1.0000 0.50451  0.42619  0.06957  Biso   1.000  C
  C81      1.0000 0.48608  0.44622  0.03627  Biso   1.000  C
  H53      1.0000 0.45663  0.42967  0.02497  Biso   1.000  H
  H54      1.0000 0.60863  0.43607  0.06577  Biso   1.000  H
  O19      1.0000 0.47455  0.44694  0.56686  Biso   1.000  O
  O20      1.0000 0.48899  0.43291  0.47824  Biso   1.000  O
  C82      1.0000 0.47581  0.42176  0.52970  Biso   1.000  C
  C83      1.0000 0.46043  0.37527  0.54680  Biso   1.000  C
  C84      1.0000 0.45844  0.34473  0.50540  Biso   1.000  C
  H55      1.0000 0.46640  0.35290  0.46580  Biso   1.000  H
  C85      1.0000 0.44429  0.30184  0.52410  Biso   1.000  C
  H56      1.0000 0.44460  0.28210  0.49650  Biso   1.000  H
  C86      1.0000 0.43024  0.28744  0.57970  Biso   1.000  C
  C87      1.0000 0.43241  0.31826  0.62040  Biso   1.000  C
  H57      1.0000 0.42360  0.30970  0.65960  Biso   1.000  H
  C88      1.0000 0.44739  0.36168  0.60400  Biso   1.000  C
  H58      1.0000 0.44850  0.38170  0.63220  Biso   1.000  H
  C89      1.0000 0.41166  0.24048  0.59710  Biso   1.000  C
  C90      1.0000 0.37320  0.22045  0.63040  Biso   1.000  C
  H59      1.0000 0.36030  0.23700  0.64170  Biso   1.000  H
  H60      1.0000 0.50590  0.23060  0.60090  Biso   1.000  H
  O21      1.0000 0.14122  0.78027  0.90019  Biso   1.000  O
  O22      1.0000 0.15566  0.76624  0.81157  Biso   1.000  O
  C91      1.0000 0.14248  0.75509  0.86303  Biso   1.000  C
  C92      1.0000 0.12710  0.70860  0.88013  Biso   1.000  C
  C93      1.0000 0.12511  0.67806  0.83873  Biso   1.000  C
  H61      1.0000 0.13307  0.68623  0.79913  Biso   1.000  H
  C94      1.0000 0.11096  0.63517  0.85743  Biso   1.000  C
  H62      1.0000 0.11127  0.61543  0.82983  Biso   1.000  H
  C95      1.0000 0.09691  0.62077  0.91303  Biso   1.000  C
  C96      1.0000 0.09908  0.65159  0.95373  Biso   1.000  C
  H63      1.0000 0.09027  0.64303  0.99293  Biso   1.000  H
  C97      1.0000 0.11406  0.69501  0.93733  Biso   1.000  C
  H64      1.0000 0.11517  0.71503  0.96553  Biso   1.000  H
  C98      1.0000 0.07833  0.57381  0.93043  Biso   1.000  C
  C99      1.0000 0.03987  0.55378  0.96373  Biso   1.000  C
  H65      1.0000 0.02697  0.57033  0.97503  Biso   1.000  H
  H66      1.0000 0.17257  0.56393  0.93423  Biso   1.000  H
  O23      1.0000 0.80788  0.11361  0.23353  Biso   1.000  O
  O24      1.0000 0.82232  0.09958  0.14491  Biso   1.000  O
  C100     1.0000 0.80914  0.08843  0.19637  Biso   1.000  C
  C101     1.0000 0.79376  0.04194  0.21347  Biso   1.000  C
  C102     1.0000 0.79177  0.01140  0.17207  Biso   1.000  C
  H67      1.0000 0.79973  0.01957  0.13247  Biso   1.000  H
  C103     1.0000 0.77762  0.96851  0.19077  Biso   1.000  C
  H68      1.0000 0.77793  0.94877  0.16317  Biso   1.000  H
  C104     1.0000 0.76357  0.95411  0.24637  Biso   1.000  C
  C105     1.0000 0.76574  0.98493  0.28707  Biso   1.000  C
  H69      1.0000 0.75693  0.97637  0.32627  Biso   1.000  H
  C106     1.0000 0.78072  0.02835  0.27067  Biso   1.000  C
  H70      1.0000 0.78183  0.04837  0.29887  Biso   1.000  H
  C107     1.0000 0.74499  0.90715  0.26377  Biso   1.000  C
  C108     1.0000 0.70653  0.88712  0.29707  Biso   1.000  C
  H71      1.0000 0.69363  0.90367  0.30837  Biso   1.000  H
  H72      1.0000 0.83923  0.89727  0.26757  Biso   1.000  H
  O25      1.0000 0.97239  0.52545  0.56686  Biso   1.000  O
  O26      1.0000 0.94392  0.51101  0.47824  Biso   1.000  O
  C109     1.0000 0.94595  0.52419  0.52970  Biso   1.000  C
  C110     1.0000 0.91484  0.53957  0.54680  Biso   1.000  C
  C111     1.0000 0.88629  0.54156  0.50540  Biso   1.000  C
  H73      1.0000 0.88650  0.53360  0.46580  Biso   1.000  H
  C112     1.0000 0.85755  0.55571  0.52410  Biso   1.000  C
  H74      1.0000 0.83750  0.55540  0.49650  Biso   1.000  H
  C113     1.0000 0.85720  0.56976  0.57970  Biso   1.000  C
  C114     1.0000 0.88585  0.56759  0.62040  Biso   1.000  C
  H75      1.0000 0.88610  0.57640  0.65960  Biso   1.000  H
  C115     1.0000 0.91429  0.55261  0.60400  Biso   1.000  C
  H76      1.0000 0.93320  0.55150  0.63220  Biso   1.000  H
  C116     1.0000 0.82882  0.58834  0.59710  Biso   1.000  C
  C117     1.0000 0.84725  0.62680  0.63040  Biso   1.000  C
  H77      1.0000 0.87670  0.63970  0.64170  Biso   1.000  H
  H78      1.0000 0.72470  0.49410  0.60090  Biso   1.000  H
  O27      1.0000 0.63906  0.85878  0.90019  Biso   1.000  O
  O28      1.0000 0.61059  0.84434  0.81157  Biso   1.000  O
  C118     1.0000 0.61262  0.85752  0.86303  Biso   1.000  C
  C119     1.0000 0.58151  0.87290  0.88013  Biso   1.000  C
  C120     1.0000 0.55296  0.87489  0.83873  Biso   1.000  C
  H79      1.0000 0.55317  0.86693  0.79913  Biso   1.000  H
  C121     1.0000 0.52422  0.88904  0.85743  Biso   1.000  C
  H80      1.0000 0.50417  0.88873  0.82983  Biso   1.000  H
  C122     1.0000 0.52387  0.90309  0.91303  Biso   1.000  C
  C123     1.0000 0.55252  0.90092  0.95373  Biso   1.000  C
  H81      1.0000 0.55277  0.90973  0.99293  Biso   1.000  H
  C124     1.0000 0.58096  0.88594  0.93733  Biso   1.000  C
  H82      1.0000 0.59987  0.88483  0.96553  Biso   1.000  H
  C125     1.0000 0.49549  0.92167  0.93043  Biso   1.000  C
  C126     1.0000 0.51392  0.96013  0.96373  Biso   1.000  C
  H83      1.0000 0.54337  0.97303  0.97503  Biso   1.000  H
  H84      1.0000 0.39137  0.82743  0.93423  Biso   1.000  H
  O29      1.0000 0.30572  0.19212  0.23353  Biso   1.000  O
  O30      1.0000 0.27725  0.17768  0.14491  Biso   1.000  O
  C127     1.0000 0.27928  0.19086  0.19637  Biso   1.000  C
  C128     1.0000 0.24817  0.20624  0.21347  Biso   1.000  C
  C129     1.0000 0.21962  0.20823  0.17207  Biso   1.000  C
  H85      1.0000 0.21983  0.20027  0.13247  Biso   1.000  H
  C130     1.0000 0.19088  0.22238  0.19077  Biso   1.000  C
  H86      1.0000 0.17083  0.22207  0.16317  Biso   1.000  H
  C131     1.0000 0.19053  0.23643  0.24637  Biso   1.000  C
  C132     1.0000 0.21918  0.23426  0.28707  Biso   1.000  C
  H87      1.0000 0.21943  0.24307  0.32627  Biso   1.000  H
  C133     1.0000 0.24762  0.21928  0.27067  Biso   1.000  C
  H88      1.0000 0.26653  0.21817  0.29887  Biso   1.000  H
  C134     1.0000 0.16215  0.25501  0.26377  Biso   1.000  C
  C135     1.0000 0.18058  0.29347  0.29707  Biso   1.000  C
  H89      1.0000 0.21003  0.30637  0.30837  Biso   1.000  H
  H90      1.0000 0.05803  0.16077  0.26757  Biso   1.000  H
  O31      1.0000 0.55306  0.02761  0.56686  Biso   1.000  O
  O32      1.0000 0.56709  0.05608  0.47824  Biso   1.000  O
  C136     1.0000 0.57824  0.05405  0.52970  Biso   1.000  C
  C137     1.0000 0.62473  0.08516  0.54680  Biso   1.000  C
  C138     1.0000 0.65527  0.11371  0.50540  Biso   1.000  C
  H91      1.0000 0.64710  0.11350  0.46580  Biso   1.000  H
  C139     1.0000 0.69816  0.14245  0.52410  Biso   1.000  C
  H92      1.0000 0.71790  0.16250  0.49650  Biso   1.000  H
  C140     1.0000 0.71256  0.14280  0.57970  Biso   1.000  C
  C141     1.0000 0.68174  0.11415  0.62040  Biso   1.000  C
  H93      1.0000 0.69030  0.11390  0.65960  Biso   1.000  H
  C142     1.0000 0.63832  0.08571  0.60400  Biso   1.000  C
  H94      1.0000 0.61830  0.06680  0.63220  Biso   1.000  H
  C143     1.0000 0.75952  0.17118  0.59710  Biso   1.000  C
  C144     1.0000 0.77955  0.15275  0.63040  Biso   1.000  C
  H95      1.0000 0.76300  0.12330  0.64170  Biso   1.000  H
  H96      1.0000 0.76940  0.27530  0.60090  Biso   1.000  H
  O33      1.0000 0.21973  0.36094  0.90019  Biso   1.000  O
  O34      1.0000 0.23376  0.38941  0.81157  Biso   1.000  O
  C145     1.0000 0.24491  0.38738  0.86303  Biso   1.000  C
  C146     1.0000 0.29140  0.41849  0.88013  Biso   1.000  C
  C147     1.0000 0.32194  0.44704  0.83873  Biso   1.000  C
  H97      1.0000 0.31377  0.44683  0.79913  Biso   1.000  H
  C148     1.0000 0.36483  0.47578  0.85743  Biso   1.000  C
  H98      1.0000 0.38457  0.49583  0.82983  Biso   1.000  H
  C149     1.0000 0.37923  0.47613  0.91303  Biso   1.000  C
  C150     1.0000 0.34841  0.44748  0.95373  Biso   1.000  C
  H99      1.0000 0.35697  0.44723  0.99293  Biso   1.000  H
  C151     1.0000 0.30499  0.41904  0.93733  Biso   1.000  C
  H100     1.0000 0.28497  0.40013  0.96553  Biso   1.000  H
  C152     1.0000 0.42619  0.50451  0.93043  Biso   1.000  C
  C153     1.0000 0.44622  0.48608  0.96373  Biso   1.000  C
  H101     1.0000 0.42967  0.45663  0.97503  Biso   1.000  H
  H102     1.0000 0.43607  0.60863  0.93423  Biso   1.000  H
  O35      1.0000 0.88639  0.69428  0.23353  Biso   1.000  O
  O36      1.0000 0.90042  0.72275  0.14491  Biso   1.000  O
  C154     1.0000 0.91157  0.72072  0.19637  Biso   1.000  C
  C155     1.0000 0.95806  0.75183  0.21347  Biso   1.000  C
  C156     1.0000 0.98860  0.78038  0.17207  Biso   1.000  C
  H103     1.0000 0.98043  0.78017  0.13247  Biso   1.000  H
  C157     1.0000 0.03149  0.80912  0.19077  Biso   1.000  C
  H104     1.0000 0.05123  0.82917  0.16317  Biso   1.000  H
  C158     1.0000 0.04589  0.80947  0.24637  Biso   1.000  C
  C159     1.0000 0.01507  0.78082  0.28707  Biso   1.000  C
  H105     1.0000 0.02363  0.78057  0.32627  Biso   1.000  H
  C160     1.0000 0.97165  0.75238  0.27067  Biso   1.000  C
  H106     1.0000 0.95163  0.73347  0.29887  Biso   1.000  H
  C161     1.0000 0.09285  0.83785  0.26377  Biso   1.000  C
  C162     1.0000 0.11288  0.81942  0.29707  Biso   1.000  C
  H107     1.0000 0.09633  0.78997  0.30837  Biso   1.000  H
  H108     1.0000 0.10273  0.94197  0.26757  Biso   1.000  H
  O37      1.0000 0.55306  0.52545  0.56686  Biso   1.000  O
  O38      1.0000 0.56709  0.51101  0.47824  Biso   1.000  O
  C163     1.0000 0.57824  0.52419  0.52970  Biso   1.000  C
  C164     1.0000 0.62473  0.53957  0.54680  Biso   1.000  C
  C165     1.0000 0.65527  0.54156  0.50540  Biso   1.000  C
  H109     1.0000 0.64710  0.53360  0.46580  Biso   1.000  H
  C166     1.0000 0.69816  0.55571  0.52410  Biso   1.000  C
  H110     1.0000 0.71790  0.55540  0.49650  Biso   1.000  H
  C167     1.0000 0.71256  0.56976  0.57970  Biso   1.000  C
  C168     1.0000 0.68174  0.56759  0.62040  Biso   1.000  C
  H111     1.0000 0.69030  0.57640  0.65960  Biso   1.000  H
  C169     1.0000 0.63832  0.55261  0.60400  Biso   1.000  C
  H112     1.0000 0.61830  0.55150  0.63220  Biso   1.000  H
  C170     1.0000 0.75952  0.58834  0.59710  Biso   1.000  C
  C171     1.0000 0.77955  0.62680  0.63040  Biso   1.000  C
  H113     1.0000 0.76300  0.63970  0.64170  Biso   1.000  H
  H114     1.0000 0.76940  0.49410  0.60090  Biso   1.000  H
  O39      1.0000 0.21973  0.85878  0.90019  Biso   1.000  O
  O40      1.0000 0.23376  0.84434  0.81157  Biso   1.000  O
  C172     1.0000 0.24491  0.85752  0.86303  Biso   1.000  C
  C173     1.0000 0.29140  0.87290  0.88013  Biso   1.000  C
  C174     1.0000 0.32194  0.87489  0.83873  Biso   1.000  C
  H115     1.0000 0.31377  0.86693  0.79913  Biso   1.000  H
  C175     1.0000 0.36483  0.88904  0.85743  Biso   1.000  C
  H116     1.0000 0.38457  0.88873  0.82983  Biso   1.000  H
  C176     1.0000 0.37923  0.90309  0.91303  Biso   1.000  C
  C177     1.0000 0.34841  0.90092  0.95373  Biso   1.000  C
  H117     1.0000 0.35697  0.90973  0.99293  Biso   1.000  H
  C178     1.0000 0.30499  0.88594  0.93733  Biso   1.000  C
  H118     1.0000 0.28497  0.88483  0.96553  Biso   1.000  H
  C179     1.0000 0.42619  0.92167  0.93043  Biso   1.000  C
  C180     1.0000 0.44622  0.96013  0.96373  Biso   1.000  C
  H119     1.0000 0.42967  0.97303  0.97503  Biso   1.000  H
  H120     1.0000 0.43607  0.82743  0.93423  Biso   1.000  H
  O41      1.0000 0.88639  0.19212  0.23353  Biso   1.000  O
  O42      1.0000 0.90042  0.17768  0.14491  Biso   1.000  O
  C181     1.0000 0.91157  0.19086  0.19637  Biso   1.000  C
  C182     1.0000 0.95806  0.20624  0.21347  Biso   1.000  C
  C183     1.0000 0.98860  0.20823  0.17207  Biso   1.000  C
  H121     1.0000 0.98043  0.20027  0.13247  Biso   1.000  H
  C184     1.0000 0.03149  0.22238  0.19077  Biso   1.000  C
  H122     1.0000 0.05123  0.22207  0.16317  Biso   1.000  H
  C185     1.0000 0.04589  0.23643  0.24637  Biso   1.000  C
  C186     1.0000 0.01507  0.23426  0.28707  Biso   1.000  C
  H123     1.0000 0.02363  0.24307  0.32627  Biso   1.000  H
  C187     1.0000 0.97165  0.21928  0.27067  Biso   1.000  C
  H124     1.0000 0.95163  0.21817  0.29887  Biso   1.000  H
  C188     1.0000 0.09285  0.25501  0.26377  Biso   1.000  C
  C189     1.0000 0.11288  0.29347  0.29707  Biso   1.000  C
  H125     1.0000 0.09633  0.30637  0.30837  Biso   1.000  H
  H126     1.0000 0.10273  0.16077  0.26757  Biso   1.000  H
  O43      1.0000 0.47455  0.02761  0.56686  Biso   1.000  O
  O44      1.0000 0.48899  0.05608  0.47824  Biso   1.000  O
  C190     1.0000 0.47581  0.05405  0.52970  Biso   1.000  C
  C191     1.0000 0.46043  0.08516  0.54680  Biso   1.000  C
  C192     1.0000 0.45844  0.11371  0.50540  Biso   1.000  C
  H127     1.0000 0.46640  0.11350  0.46580  Biso   1.000  H
  C193     1.0000 0.44429  0.14245  0.52410  Biso   1.000  C
  H128     1.0000 0.44460  0.16250  0.49650  Biso   1.000  H
  C194     1.0000 0.43024  0.14280  0.57970  Biso   1.000  C
  C195     1.0000 0.43241  0.11415  0.62040  Biso   1.000  C
  H129     1.0000 0.42360  0.11390  0.65960  Biso   1.000  H
  C196     1.0000 0.44739  0.08571  0.60400  Biso   1.000  C
  H130     1.0000 0.44850  0.06680  0.63220  Biso   1.000  H
  C197     1.0000 0.41166  0.17118  0.59710  Biso   1.000  C
  C198     1.0000 0.37320  0.15275  0.63040  Biso   1.000  C
  H131     1.0000 0.36030  0.12330  0.64170  Biso   1.000  H
  H132     1.0000 0.50590  0.27530  0.60090  Biso   1.000  H
  O45      1.0000 0.14122  0.36094  0.90019  Biso   1.000  O
  O46      1.0000 0.15566  0.38941  0.81157  Biso   1.000  O
  C199     1.0000 0.14248  0.38738  0.86303  Biso   1.000  C
  C200     1.0000 0.12710  0.41849  0.88013  Biso   1.000  C
  C201     1.0000 0.12511  0.44704  0.83873  Biso   1.000  C
  H133     1.0000 0.13307  0.44683  0.79913  Biso   1.000  H
  C202     1.0000 0.11096  0.47578  0.85743  Biso   1.000  C
  H134     1.0000 0.11127  0.49583  0.82983  Biso   1.000  H
  C203     1.0000 0.09691  0.47613  0.91303  Biso   1.000  C
  C204     1.0000 0.09908  0.44748  0.95373  Biso   1.000  C
  H135     1.0000 0.09027  0.44723  0.99293  Biso   1.000  H
  C205     1.0000 0.11406  0.41904  0.93733  Biso   1.000  C
  H136     1.0000 0.11517  0.40013  0.96553  Biso   1.000  H
  C206     1.0000 0.07833  0.50451  0.93043  Biso   1.000  C
  C207     1.0000 0.03987  0.48608  0.96373  Biso   1.000  C
  H137     1.0000 0.02697  0.45663  0.97503  Biso   1.000  H
  H138     1.0000 0.17257  0.60863  0.93423  Biso   1.000  H
  O47      1.0000 0.80788  0.69428  0.23353  Biso   1.000  O
  O48      1.0000 0.82232  0.72275  0.14491  Biso   1.000  O
  C208     1.0000 0.80914  0.72072  0.19637  Biso   1.000  C
  C209     1.0000 0.79376  0.75183  0.21347  Biso   1.000  C
  C210     1.0000 0.79177  0.78038  0.17207  Biso   1.000  C
  H139     1.0000 0.79973  0.78017  0.13247  Biso   1.000  H
  C211     1.0000 0.77762  0.80912  0.19077  Biso   1.000  C
  H140     1.0000 0.77793  0.82917  0.16317  Biso   1.000  H
  C212     1.0000 0.76357  0.80947  0.24637  Biso   1.000  C
  C213     1.0000 0.76574  0.78082  0.28707  Biso   1.000  C
  H141     1.0000 0.75693  0.78057  0.32627  Biso   1.000  H
  C214     1.0000 0.78072  0.75238  0.27067  Biso   1.000  C
  H142     1.0000 0.78183  0.73347  0.29887  Biso   1.000  H
  C215     1.0000 0.74499  0.83785  0.26377  Biso   1.000  C
  C216     1.0000 0.70653  0.81942  0.29707  Biso   1.000  C
  H143     1.0000 0.69363  0.78997  0.30837  Biso   1.000  H
  H144     1.0000 0.83923  0.94197  0.26757  Biso   1.000  H
  O49      1.0000 0.97239  0.44694  0.56686  Biso   1.000  O
  O50      1.0000 0.94392  0.43291  0.47824  Biso   1.000  O
  C217     1.0000 0.94595  0.42176  0.52970  Biso   1.000  C
  C218     1.0000 0.91484  0.37527  0.54680  Biso   1.000  C
  C219     1.0000 0.88629  0.34473  0.50540  Biso   1.000  C
  H145     1.0000 0.88650  0.35290  0.46580  Biso   1.000  H
  C220     1.0000 0.85755  0.30184  0.52410  Biso   1.000  C
  H146     1.0000 0.83750  0.28210  0.49650  Biso   1.000  H
  C221     1.0000 0.85720  0.28744  0.57970  Biso   1.000  C
  C222     1.0000 0.88585  0.31826  0.62040  Biso   1.000  C
  H147     1.0000 0.88610  0.30970  0.65960  Biso   1.000  H
  C223     1.0000 0.91429  0.36168  0.60400  Biso   1.000  C
  H148     1.0000 0.93320  0.38170  0.63220  Biso   1.000  H
  C224     1.0000 0.82882  0.24048  0.59710  Biso   1.000  C
  C225     1.0000 0.84725  0.22045  0.63040  Biso   1.000  C
  H149     1.0000 0.87670  0.23700  0.64170  Biso   1.000  H
  H150     1.0000 0.72470  0.23060  0.60090  Biso   1.000  H
  O51      1.0000 0.63906  0.78027  0.90019  Biso   1.000  O
  O52      1.0000 0.61059  0.76624  0.81157  Biso   1.000  O
  C226     1.0000 0.61262  0.75509  0.86303  Biso   1.000  C
  C227     1.0000 0.58151  0.70860  0.88013  Biso   1.000  C
  C228     1.0000 0.55296  0.67806  0.83873  Biso   1.000  C
  H151     1.0000 0.55317  0.68623  0.79913  Biso   1.000  H
  C229     1.0000 0.52422  0.63517  0.85743  Biso   1.000  C
  H152     1.0000 0.50417  0.61543  0.82983  Biso   1.000  H
  C230     1.0000 0.52387  0.62077  0.91303  Biso   1.000  C
  C231     1.0000 0.55252  0.65159  0.95373  Biso   1.000  C
  H153     1.0000 0.55277  0.64303  0.99293  Biso   1.000  H
  C232     1.0000 0.58096  0.69501  0.93733  Biso   1.000  C
  H154     1.0000 0.59987  0.71503  0.96553  Biso   1.000  H
  C233     1.0000 0.49549  0.57381  0.93043  Biso   1.000  C
  C234     1.0000 0.51392  0.55378  0.96373  Biso   1.000  C
  H155     1.0000 0.54337  0.57033  0.97503  Biso   1.000  H
  H156     1.0000 0.39137  0.56393  0.93423  Biso   1.000  H
  O53      1.0000 0.30572  0.11361  0.23353  Biso   1.000  O
  O54      1.0000 0.27725  0.09958  0.14491  Biso   1.000  O
  C235     1.0000 0.27928  0.08843  0.19637  Biso   1.000  C
  C236     1.0000 0.24817  0.04194  0.21347  Biso   1.000  C
  C237     1.0000 0.21962  0.01140  0.17207  Biso   1.000  C
  H157     1.0000 0.21983  0.01957  0.13247  Biso   1.000  H
  C238     1.0000 0.19088  0.96851  0.19077  Biso   1.000  C
  H158     1.0000 0.17083  0.94877  0.16317  Biso   1.000  H
  C239     1.0000 0.19053  0.95411  0.24637  Biso   1.000  C
  C240     1.0000 0.21918  0.98493  0.28707  Biso   1.000  C
  H159     1.0000 0.21943  0.97637  0.32627  Biso   1.000  H
  C241     1.0000 0.24762  0.02835  0.27067  Biso   1.000  C
  H160     1.0000 0.26653  0.04837  0.29887  Biso   1.000  H
  C242     1.0000 0.16215  0.90715  0.26377  Biso   1.000  C
  C243     1.0000 0.18058  0.88712  0.29707  Biso   1.000  C
  H161     1.0000 0.21003  0.90367  0.30837  Biso   1.000  H
  H162     1.0000 0.05803  0.89727  0.26757  Biso   1.000  H
  O55      1.0000 0.52545  0.55306  0.43314  Biso   1.000  O
  O56      1.0000 0.51101  0.56709  0.52176  Biso   1.000  O
  C244     1.0000 0.52419  0.57824  0.47030  Biso   1.000  C
  C245     1.0000 0.53957  0.62473  0.45320  Biso   1.000  C
  C246     1.0000 0.54156  0.65527  0.49460  Biso   1.000  C
  H163     1.0000 0.53360  0.64710  0.53420  Biso   1.000  H
  C247     1.0000 0.55571  0.69816  0.47590  Biso   1.000  C
  H164     1.0000 0.55540  0.71790  0.50350  Biso   1.000  H
  C248     1.0000 0.56976  0.71256  0.42030  Biso   1.000  C
  C249     1.0000 0.56759  0.68174  0.37960  Biso   1.000  C
  H165     1.0000 0.57640  0.69030  0.34040  Biso   1.000  H
  C250     1.0000 0.55261  0.63832  0.39600  Biso   1.000  C
  H166     1.0000 0.55150  0.61830  0.36780  Biso   1.000  H
  C251     1.0000 0.58834  0.75952  0.40290  Biso   1.000  C
  C252     1.0000 0.62680  0.77955  0.36960  Biso   1.000  C
  H167     1.0000 0.63970  0.76300  0.35830  Biso   1.000  H
  H168     1.0000 0.49410  0.76940  0.39910  Biso   1.000  H
  O57      1.0000 0.19212  0.88639  0.76647  Biso   1.000  O
  O58      1.0000 0.17768  0.90042  0.85509  Biso   1.000  O
  C253     1.0000 0.19086  0.91157  0.80363  Biso   1.000  C
  C254     1.0000 0.20624  0.95806  0.78653  Biso   1.000  C
  C255     1.0000 0.20823  0.98860  0.82793  Biso   1.000  C
  H169     1.0000 0.20027  0.98043  0.86753  Biso   1.000  H
  C256     1.0000 0.22238  0.03149  0.80923  Biso   1.000  C
  H170     1.0000 0.22207  0.05123  0.83683  Biso   1.000  H
  C257     1.0000 0.23643  0.04589  0.75363  Biso   1.000  C
  C258     1.0000 0.23426  0.01507  0.71293  Biso   1.000  C
  H171     1.0000 0.24307  0.02363  0.67373  Biso   1.000  H
  C259     1.0000 0.21928  0.97165  0.72933  Biso   1.000  C
  H172     1.0000 0.21817  0.95163  0.70113  Biso   1.000  H
  C260     1.0000 0.25501  0.09285  0.73623  Biso   1.000  C
  C261     1.0000 0.29347  0.11288  0.70293  Biso   1.000  C
  H173     1.0000 0.30637  0.09633  0.69163  Biso   1.000  H
  H174     1.0000 0.16077  0.10273  0.73243  Biso   1.000  H
  O59      1.0000 0.85878  0.21973  0.09981  Biso   1.000  O
  O60      1.0000 0.84434  0.23376  0.18843  Biso   1.000  O
  C262     1.0000 0.85752  0.24491  0.13697  Biso   1.000  C
  C263     1.0000 0.87290  0.29140  0.11987  Biso   1.000  C
  C264     1.0000 0.87489  0.32194  0.16127  Biso   1.000  C
  H175     1.0000 0.86693  0.31377  0.20087  Biso   1.000  H
  C265     1.0000 0.88904  0.36483  0.14257  Biso   1.000  C
  H176     1.0000 0.88873  0.38457  0.17017  Biso   1.000  H
  C266     1.0000 0.90309  0.37923  0.08697  Biso   1.000  C
  C267     1.0000 0.90092  0.34841  0.04627  Biso   1.000  C
  H177     1.0000 0.90973  0.35697  0.00707  Biso   1.000  H
  C268     1.0000 0.88594  0.30499  0.06267  Biso   1.000  C
  H178     1.0000 0.88483  0.28497  0.03447  Biso   1.000  H
  C269     1.0000 0.92167  0.42619  0.06957  Biso   1.000  C
  C270     1.0000 0.96013  0.44622  0.03627  Biso   1.000  C
  H179     1.0000 0.97303  0.42967  0.02497  Biso   1.000  H
  H180     1.0000 0.82743  0.43607  0.06577  Biso   1.000  H
  O61      1.0000 0.02761  0.47455  0.43314  Biso   1.000  O
  O62      1.0000 0.05608  0.48899  0.52176  Biso   1.000  O
  C271     1.0000 0.05405  0.47581  0.47030  Biso   1.000  C
  C272     1.0000 0.08516  0.46043  0.45320  Biso   1.000  C
  C273     1.0000 0.11371  0.45844  0.49460  Biso   1.000  C
  H181     1.0000 0.11350  0.46640  0.53420  Biso   1.000  H
  C274     1.0000 0.14245  0.44429  0.47590  Biso   1.000  C
  H182     1.0000 0.16250  0.44460  0.50350  Biso   1.000  H
  C275     1.0000 0.14280  0.43024  0.42030  Biso   1.000  C
  C276     1.0000 0.11415  0.43241  0.37960  Biso   1.000  C
  H183     1.0000 0.11390  0.42360  0.34040  Biso   1.000  H
  C277     1.0000 0.08571  0.44739  0.39600  Biso   1.000  C
  H184     1.0000 0.06680  0.44850  0.36780  Biso   1.000  H
  C278     1.0000 0.17118  0.41166  0.40290  Biso   1.000  C
  C279     1.0000 0.15275  0.37320  0.36960  Biso   1.000  C
  H185     1.0000 0.12330  0.36030  0.35830  Biso   1.000  H
  H186     1.0000 0.27530  0.50590  0.39910  Biso   1.000  H
  O63      1.0000 0.69428  0.80788  0.76647  Biso   1.000  O
  O64      1.0000 0.72275  0.82232  0.85509  Biso   1.000  O
  C280     1.0000 0.72072  0.80914  0.80363  Biso   1.000  C
  C281     1.0000 0.75183  0.79376  0.78653  Biso   1.000  C
  C282     1.0000 0.78038  0.79177  0.82793  Biso   1.000  C
  H187     1.0000 0.78017  0.79973  0.86753  Biso   1.000  H
  C283     1.0000 0.80912  0.77762  0.80923  Biso   1.000  C
  H188     1.0000 0.82917  0.77793  0.83683  Biso   1.000  H
  C284     1.0000 0.80947  0.76357  0.75363  Biso   1.000  C
  C285     1.0000 0.78082  0.76574  0.71293  Biso   1.000  C
  H189     1.0000 0.78057  0.75693  0.67373  Biso   1.000  H
  C286     1.0000 0.75238  0.78072  0.72933  Biso   1.000  C
  H190     1.0000 0.73347  0.78183  0.70113  Biso   1.000  H
  C287     1.0000 0.83785  0.74499  0.73623  Biso   1.000  C
  C288     1.0000 0.81942  0.70653  0.70293  Biso   1.000  C
  H191     1.0000 0.78997  0.69363  0.69163  Biso   1.000  H
  H192     1.0000 0.94197  0.83923  0.73243  Biso   1.000  H
  O65      1.0000 0.36094  0.14122  0.09981  Biso   1.000  O
  O66      1.0000 0.38941  0.15566  0.18843  Biso   1.000  O
  C289     1.0000 0.38738  0.14248  0.13697  Biso   1.000  C
  C290     1.0000 0.41849  0.12710  0.11987  Biso   1.000  C
  C291     1.0000 0.44704  0.12511  0.16127  Biso   1.000  C
  H193     1.0000 0.44683  0.13307  0.20087  Biso   1.000  H
  C292     1.0000 0.47578  0.11096  0.14257  Biso   1.000  C
  H194     1.0000 0.49583  0.11127  0.17017  Biso   1.000  H
  C293     1.0000 0.47613  0.09691  0.08697  Biso   1.000  C
  C294     1.0000 0.44748  0.09908  0.04627  Biso   1.000  C
  H195     1.0000 0.44723  0.09027  0.00707  Biso   1.000  H
  C295     1.0000 0.41904  0.11406  0.06267  Biso   1.000  C
  H196     1.0000 0.40013  0.11517  0.03447  Biso   1.000  H
  C296     1.0000 0.50451  0.07833  0.06957  Biso   1.000  C
  C297     1.0000 0.48608  0.03987  0.03627  Biso   1.000  C
  H197     1.0000 0.45663  0.02697  0.02497  Biso   1.000  H
  H198     1.0000 0.60863  0.17257  0.06577  Biso   1.000  H
  O67      1.0000 0.44694  0.97239  0.43314  Biso   1.000  O
  O68      1.0000 0.43291  0.94392  0.52176  Biso   1.000  O
  C298     1.0000 0.42176  0.94595  0.47030  Biso   1.000  C
  C299     1.0000 0.37527  0.91484  0.45320  Biso   1.000  C
  C300     1.0000 0.34473  0.88629  0.49460  Biso   1.000  C
  H199     1.0000 0.35290  0.88650  0.53420  Biso   1.000  H
  C301     1.0000 0.30184  0.85755  0.47590  Biso   1.000  C
  H200     1.0000 0.28210  0.83750  0.50350  Biso   1.000  H
  C302     1.0000 0.28744  0.85720  0.42030  Biso   1.000  C
  C303     1.0000 0.31826  0.88585  0.37960  Biso   1.000  C
  H201     1.0000 0.30970  0.88610  0.34040  Biso   1.000  H
  C304     1.0000 0.36168  0.91429  0.39600  Biso   1.000  C
  H202     1.0000 0.38170  0.93320  0.36780  Biso   1.000  H
  C305     1.0000 0.24048  0.82882  0.40290  Biso   1.000  C
  C306     1.0000 0.22045  0.84725  0.36960  Biso   1.000  C
  H203     1.0000 0.23700  0.87670  0.35830  Biso   1.000  H
  H204     1.0000 0.23060  0.72470  0.39910  Biso   1.000  H
  O69      1.0000 0.11361  0.30572  0.76647  Biso   1.000  O
  O70      1.0000 0.09958  0.27725  0.85509  Biso   1.000  O
  C307     1.0000 0.08843  0.27928  0.80363  Biso   1.000  C
  C308     1.0000 0.04194  0.24817  0.78653  Biso   1.000  C
  C309     1.0000 0.01140  0.21962  0.82793  Biso   1.000  C
  H205     1.0000 0.01957  0.21983  0.86753  Biso   1.000  H
  C310     1.0000 0.96851  0.19088  0.80923  Biso   1.000  C
  H206     1.0000 0.94877  0.17083  0.83683  Biso   1.000  H
  C311     1.0000 0.95411  0.19053  0.75363  Biso   1.000  C
  C312     1.0000 0.98493  0.21918  0.71293  Biso   1.000  C
  H207     1.0000 0.97637  0.21943  0.67373  Biso   1.000  H
  C313     1.0000 0.02835  0.24762  0.72933  Biso   1.000  C
  H208     1.0000 0.04837  0.26653  0.70113  Biso   1.000  H
  C314     1.0000 0.90715  0.16215  0.73623  Biso   1.000  C
  C315     1.0000 0.88712  0.18058  0.70293  Biso   1.000  C
  H209     1.0000 0.90367  0.21003  0.69163  Biso   1.000  H
  H210     1.0000 0.89727  0.05803  0.73243  Biso   1.000  H
  O71      1.0000 0.78027  0.63906  0.09981  Biso   1.000  O
  O72      1.0000 0.76624  0.61059  0.18843  Biso   1.000  O
  C316     1.0000 0.75509  0.61262  0.13697  Biso   1.000  C
  C317     1.0000 0.70860  0.58151  0.11987  Biso   1.000  C
  C318     1.0000 0.67806  0.55296  0.16127  Biso   1.000  C
  H211     1.0000 0.68623  0.55317  0.20087  Biso   1.000  H
  C319     1.0000 0.63517  0.52422  0.14257  Biso   1.000  C
  H212     1.0000 0.61543  0.50417  0.17017  Biso   1.000  H
  C320     1.0000 0.62077  0.52387  0.08697  Biso   1.000  C
  C321     1.0000 0.65159  0.55252  0.04627  Biso   1.000  C
  H213     1.0000 0.64303  0.55277  0.00707  Biso   1.000  H
  C322     1.0000 0.69501  0.58096  0.06267  Biso   1.000  C
  H214     1.0000 0.71503  0.59987  0.03447  Biso   1.000  H
  C323     1.0000 0.57381  0.49549  0.06957  Biso   1.000  C
  C324     1.0000 0.55378  0.51392  0.03627  Biso   1.000  C
  H215     1.0000 0.57033  0.54337  0.02497  Biso   1.000  H
  H216     1.0000 0.56393  0.39137  0.06577  Biso   1.000  H
  Cu1      1.0000 0.49153  0.50847  0.55313  Biso   1.000  Cu
  Cu2      1.0000 0.15820  0.84180  0.88646  Biso   1.000  Cu
  Cu3      1.0000 0.82486  0.17514  0.21980  Biso   1.000  Cu
  Cu4      1.0000 0.49153  0.98306  0.55313  Biso   1.000  Cu
  Cu5      1.0000 0.15820  0.31639  0.88646  Biso   1.000  Cu
  Cu6      1.0000 0.82486  0.64973  0.21980  Biso   1.000  Cu
  Cu7      1.0000 0.01694  0.50847  0.55313  Biso   1.000  Cu
  Cu8      1.0000 0.68361  0.84180  0.88646  Biso   1.000  Cu
  Cu9      1.0000 0.35027  0.17514  0.21980  Biso   1.000  Cu
  Cu10     1.0000 0.50847  0.49153  0.44687  Biso   1.000  Cu
  Cu11     1.0000 0.17514  0.82486  0.78020  Biso   1.000  Cu
  Cu12     1.0000 0.84180  0.15820  0.11354  Biso   1.000  Cu
  Cu13     1.0000 0.98306  0.49153  0.44687  Biso   1.000  Cu
  Cu14     1.0000 0.64973  0.82486  0.78020  Biso   1.000  Cu
  Cu15     1.0000 0.31639  0.15820  0.11354  Biso   1.000  Cu
  Cu16     1.0000 0.50847  0.01694  0.44687  Biso   1.000  Cu
  Cu17     1.0000 0.17514  0.35027  0.78020  Biso   1.000  Cu
  Cu18     1.0000 0.84180  0.68361  0.11354  Biso   1.000  Cu
  O73      1.0000 0.23390  0.46780  0.45720  Biso   1.000  O
  C325     1.0000 0.17666  0.35332  0.35260  Biso   1.000  C
  C326     1.0000 0.21524  0.43048  0.41760  Biso   1.000  C
  C327     1.0000 0.25265  0.50530  0.42380  Biso   1.000  C
  H217     1.0000 0.26520  0.53040  0.44980  Biso   1.000  H
  O74      1.0000 0.90057  0.80113  0.79053  Biso   1.000  O
  C328     1.0000 0.84333  0.68665  0.68593  Biso   1.000  C
  C329     1.0000 0.88191  0.76381  0.75093  Biso   1.000  C
  C330     1.0000 0.91932  0.83863  0.75713  Biso   1.000  C
  H218     1.0000 0.93187  0.86373  0.78313  Biso   1.000  H
  O75      1.0000 0.56723  0.13447  0.12387  Biso   1.000  O
  C331     1.0000 0.50999  0.01999  0.01927  Biso   1.000  C
  C332     1.0000 0.54857  0.09715  0.08427  Biso   1.000  C
  C333     1.0000 0.58598  0.17197  0.09047  Biso   1.000  C
  H219     1.0000 0.59853  0.19707  0.11647  Biso   1.000  H
  O76      1.0000 0.53220  0.76610  0.45720  Biso   1.000  O
  C334     1.0000 0.64668  0.82334  0.35260  Biso   1.000  C
  C335     1.0000 0.56952  0.78476  0.41760  Biso   1.000  C
  C336     1.0000 0.49470  0.74735  0.42380  Biso   1.000  C
  H220     1.0000 0.46960  0.73480  0.44980  Biso   1.000  H
  O77      1.0000 0.19887  0.09943  0.79053  Biso   1.000  O
  C337     1.0000 0.31335  0.15667  0.68593  Biso   1.000  C
  C338     1.0000 0.23619  0.11809  0.75093  Biso   1.000  C
  C339     1.0000 0.16137  0.08068  0.75713  Biso   1.000  C
  H221     1.0000 0.13627  0.06813  0.78313  Biso   1.000  H
  O78      1.0000 0.86553  0.43277  0.12387  Biso   1.000  O
  C340     1.0000 0.98001  0.49001  0.01927  Biso   1.000  C
  C341     1.0000 0.90285  0.45143  0.08427  Biso   1.000  C
  C342     1.0000 0.82803  0.41402  0.09047  Biso   1.000  C
  H222     1.0000 0.80293  0.40147  0.11647  Biso   1.000  H
  O79      1.0000 0.23390  0.76610  0.45720  Biso   1.000  O
  C343     1.0000 0.17666  0.82334  0.35260  Biso   1.000  C
  C344     1.0000 0.21524  0.78476  0.41760  Biso   1.000  C
  C345     1.0000 0.25265  0.74735  0.42380  Biso   1.000  C
  H223     1.0000 0.26520  0.73480  0.44980  Biso   1.000  H
  O80      1.0000 0.90057  0.09943  0.79053  Biso   1.000  O
  C346     1.0000 0.84333  0.15667  0.68593  Biso   1.000  C
  C347     1.0000 0.88191  0.11809  0.75093  Biso   1.000  C
  C348     1.0000 0.91932  0.08068  0.75713  Biso   1.000  C
  H224     1.0000 0.93187  0.06813  0.78313  Biso   1.000  H
  O81      1.0000 0.56723  0.43277  0.12387  Biso   1.000  O
  C349     1.0000 0.50999  0.49001  0.01927  Biso   1.000  C
  C350     1.0000 0.54857  0.45143  0.08427  Biso   1.000  C
  C351     1.0000 0.58598  0.41402  0.09047  Biso   1.000  C
  H225     1.0000 0.59853  0.40147  0.11647  Biso   1.000  H
  O82      1.0000 0.46780  0.23390  0.54280  Biso   1.000  O
  C352     1.0000 0.35332  0.17666  0.64740  Biso   1.000  C
  C353     1.0000 0.43048  0.21524  0.58240  Biso   1.000  C
  C354     1.0000 0.50530  0.25265  0.57620  Biso   1.000  C
  H226     1.0000 0.53040  0.26520  0.55020  Biso   1.000  H
  O83      1.0000 0.13447  0.56723  0.87613  Biso   1.000  O
  C355     1.0000 0.01999  0.50999  0.98073  Biso   1.000  C
  C356     1.0000 0.09715  0.54857  0.91573  Biso   1.000  C
  C357     1.0000 0.17197  0.58598  0.90953  Biso   1.000  C
  H227     1.0000 0.19707  0.59853  0.88353  Biso   1.000  H
  O84      1.0000 0.80113  0.90057  0.20947  Biso   1.000  O
  C358     1.0000 0.68665  0.84333  0.31407  Biso   1.000  C
  C359     1.0000 0.76381  0.88191  0.24907  Biso   1.000  C
  C360     1.0000 0.83863  0.91932  0.24287  Biso   1.000  C
  H228     1.0000 0.86373  0.93187  0.21687  Biso   1.000  H
  O85      1.0000 0.76610  0.53220  0.54280  Biso   1.000  O
  C361     1.0000 0.82334  0.64668  0.64740  Biso   1.000  C
  C362     1.0000 0.78476  0.56952  0.58240  Biso   1.000  C
  C363     1.0000 0.74735  0.49470  0.57620  Biso   1.000  C
  H229     1.0000 0.73480  0.46960  0.55020  Biso   1.000  H
  O86      1.0000 0.43277  0.86553  0.87613  Biso   1.000  O
  C364     1.0000 0.49001  0.98001  0.98073  Biso   1.000  C
  C365     1.0000 0.45143  0.90285  0.91573  Biso   1.000  C
  C366     1.0000 0.41402  0.82803  0.90953  Biso   1.000  C
  H230     1.0000 0.40147  0.80293  0.88353  Biso   1.000  H
  O87      1.0000 0.09943  0.19887  0.20947  Biso   1.000  O
  C367     1.0000 0.15667  0.31335  0.31407  Biso   1.000  C
  C368     1.0000 0.11809  0.23619  0.24907  Biso   1.000  C
  C369     1.0000 0.08068  0.16137  0.24287  Biso   1.000  C
  H231     1.0000 0.06813  0.13627  0.21687  Biso   1.000  H
  O88      1.0000 0.76610  0.23390  0.54280  Biso   1.000  O
  C370     1.0000 0.82334  0.17666  0.64740  Biso   1.000  C
  C371     1.0000 0.78476  0.21524  0.58240  Biso   1.000  C
  C372     1.0000 0.74735  0.25265  0.57620  Biso   1.000  C
  H232     1.0000 0.73480  0.26520  0.55020  Biso   1.000  H
  O89      1.0000 0.43277  0.56723  0.87613  Biso   1.000  O
  C373     1.0000 0.49001  0.50999  0.98073  Biso   1.000  C
  C374     1.0000 0.45143  0.54857  0.91573  Biso   1.000  C
  C375     1.0000 0.41402  0.58598  0.90953  Biso   1.000  C
  H233     1.0000 0.40147  0.59853  0.88353  Biso   1.000  H
  O90      1.0000 0.09943  0.90057  0.20947  Biso   1.000  O
  C376     1.0000 0.15667  0.84333  0.31407  Biso   1.000  C
  C377     1.0000 0.11809  0.88191  0.24907  Biso   1.000  C
  C378     1.0000 0.08068  0.91932  0.24287  Biso   1.000  C
  H234     1.0000 0.06813  0.93187  0.21687  Biso   1.000  H
