data_image0
_cell_length_a       35.3116
_cell_length_b       35.3116
_cell_length_c       20.857
_cell_angle_alpha    90
_cell_angle_beta     90
_cell_angle_gamma    120

_symmetry_space_group_name_H-M    "P 1"
_symmetry_int_tables_number       1

loop_
  _symmetry_equiv_pos_as_xyz
  'x, y, z'

loop_
  _atom_site_label
  _atom_site_occupancy
  _atom_site_fract_x
  _atom_site_fract_y
  _atom_site_fract_z
  _atom_site_thermal_displace_type
  _atom_site_B_iso_or_equiv
  _atom_site_type_symbol
  O1       1.0000 0.63597  0.77918  0.40440  Biso   1.000  O
  O2       1.0000 0.61174  0.76717  0.30290  Biso   1.000  O
  C1       1.0000 0.61123  0.75480  0.35940  Biso   1.000  C
  C2       1.0000 0.57968  0.70885  0.37610  Biso   1.000  C
  C3       1.0000 0.55302  0.67906  0.32900  Biso   1.000  C
  H1       1.0000 0.55460  0.68830  0.28680  Biso   1.000  H
  C4       1.0000 0.52475  0.63657  0.34480  Biso   1.000  C
  H2       1.0000 0.50640  0.61770  0.31320  Biso   1.000  H
  C5       1.0000 0.52233  0.62055  0.40570  Biso   1.000  C
  C6       1.0000 0.54942  0.65023  0.45500  Biso   1.000  C
  H3       1.0000 0.54810  0.64060  0.49690  Biso   1.000  H
  C7       1.0000 0.57792  0.69412  0.43840  Biso   1.000  C
  H4       1.0000 0.59590  0.71360  0.46970  Biso   1.000  H
  C8       1.0000 0.49512  0.57388  0.42650  Biso   1.000  C
  C9       1.0000 0.51298  0.55425  0.46210  Biso   1.000  C
  H5       1.0000 0.54180  0.57130  0.47550  Biso   1.000  H
  H6       1.0000 0.43680  0.60760  0.43640  Biso   1.000  H
  O3       1.0000 0.30264  0.11251  0.73773  Biso   1.000  O
  O4       1.0000 0.27841  0.10050  0.63623  Biso   1.000  O
  C10      1.0000 0.27790  0.08813  0.69273  Biso   1.000  C
  C11      1.0000 0.24635  0.04218  0.70943  Biso   1.000  C
  C12      1.0000 0.21969  0.01239  0.66233  Biso   1.000  C
  H7       1.0000 0.22127  0.02163  0.62013  Biso   1.000  H
  C13      1.0000 0.19142  0.96990  0.67813  Biso   1.000  C
  H8       1.0000 0.17307  0.95103  0.64653  Biso   1.000  H
  C14      1.0000 0.18900  0.95388  0.73903  Biso   1.000  C
  C15      1.0000 0.21609  0.98356  0.78833  Biso   1.000  C
  H9       1.0000 0.21477  0.97393  0.83023  Biso   1.000  H
  C16      1.0000 0.24459  0.02745  0.77173  Biso   1.000  C
  H10      1.0000 0.26257  0.04693  0.80303  Biso   1.000  H
  C17      1.0000 0.16179  0.90721  0.75983  Biso   1.000  C
  C18      1.0000 0.17965  0.88758  0.79543  Biso   1.000  C
  H11      1.0000 0.20847  0.90463  0.80883  Biso   1.000  H
  H12      1.0000 0.10347  0.94093  0.76973  Biso   1.000  H
  O5       1.0000 0.96930  0.44585  0.07107  Biso   1.000  O
  O6       1.0000 0.94507  0.43384  0.96957  Biso   1.000  O
  C19      1.0000 0.94456  0.42147  0.02607  Biso   1.000  C
  C20      1.0000 0.91301  0.37552  0.04277  Biso   1.000  C
  C21      1.0000 0.88635  0.34573  0.99567  Biso   1.000  C
  H13      1.0000 0.88793  0.35497  0.95347  Biso   1.000  H
  C22      1.0000 0.85808  0.30324  0.01147  Biso   1.000  C
  H14      1.0000 0.83973  0.28437  0.97987  Biso   1.000  H
  C23      1.0000 0.85566  0.28722  0.07237  Biso   1.000  C
  C24      1.0000 0.88275  0.31690  0.12167  Biso   1.000  C
  H15      1.0000 0.88143  0.30727  0.16357  Biso   1.000  H
  C25      1.0000 0.91125  0.36079  0.10507  Biso   1.000  C
  H16      1.0000 0.92923  0.38027  0.13637  Biso   1.000  H
  C26      1.0000 0.82845  0.24055  0.09317  Biso   1.000  C
  C27      1.0000 0.84631  0.22092  0.12877  Biso   1.000  C
  H17      1.0000 0.87513  0.23797  0.14217  Biso   1.000  H
  H18      1.0000 0.77013  0.27427  0.10307  Biso   1.000  H
  O7       1.0000 0.22082  0.85679  0.40440  Biso   1.000  O
  O8       1.0000 0.23283  0.84457  0.30290  Biso   1.000  O
  C28      1.0000 0.24520  0.85643  0.35940  Biso   1.000  C
  C29      1.0000 0.29115  0.87083  0.37610  Biso   1.000  C
  C30      1.0000 0.32094  0.87396  0.32900  Biso   1.000  C
  H19      1.0000 0.31170  0.86630  0.28680  Biso   1.000  H
  C31      1.0000 0.36343  0.88818  0.34480  Biso   1.000  C
  H20      1.0000 0.38230  0.88870  0.31320  Biso   1.000  H
  C32      1.0000 0.37945  0.90178  0.40570  Biso   1.000  C
  C33      1.0000 0.34977  0.89919  0.45500  Biso   1.000  C
  H21      1.0000 0.35940  0.90750  0.49690  Biso   1.000  H
  C34      1.0000 0.30588  0.88380  0.43840  Biso   1.000  C
  H22      1.0000 0.28640  0.88230  0.46970  Biso   1.000  H
  C35      1.0000 0.42612  0.92124  0.42650  Biso   1.000  C
  C36      1.0000 0.44575  0.95873  0.46210  Biso   1.000  C
  H23      1.0000 0.42870  0.97050  0.47550  Biso   1.000  H
  H24      1.0000 0.39240  0.82920  0.43640  Biso   1.000  H
  O9       1.0000 0.88749  0.19012  0.73773  Biso   1.000  O
  O10      1.0000 0.89950  0.17790  0.63623  Biso   1.000  O
  C37      1.0000 0.91187  0.18976  0.69273  Biso   1.000  C
  C38      1.0000 0.95782  0.20416  0.70943  Biso   1.000  C
  C39      1.0000 0.98761  0.20729  0.66233  Biso   1.000  C
  H25      1.0000 0.97837  0.19963  0.62013  Biso   1.000  H
  C40      1.0000 0.03010  0.22151  0.67813  Biso   1.000  C
  H26      1.0000 0.04897  0.22203  0.64653  Biso   1.000  H
  C41      1.0000 0.04612  0.23511  0.73903  Biso   1.000  C
  C42      1.0000 0.01644  0.23252  0.78833  Biso   1.000  C
  H27      1.0000 0.02607  0.24083  0.83023  Biso   1.000  H
  C43      1.0000 0.97255  0.21713  0.77173  Biso   1.000  C
  H28      1.0000 0.95307  0.21563  0.80303  Biso   1.000  H
  C44      1.0000 0.09279  0.25457  0.75983  Biso   1.000  C
  C45      1.0000 0.11242  0.29206  0.79543  Biso   1.000  C
  H29      1.0000 0.09537  0.30383  0.80883  Biso   1.000  H
  H30      1.0000 0.05907  0.16253  0.76973  Biso   1.000  H
  O11      1.0000 0.55415  0.52346  0.07107  Biso   1.000  O
  O12      1.0000 0.56616  0.51124  0.96957  Biso   1.000  O
  C46      1.0000 0.57853  0.52310  0.02607  Biso   1.000  C
  C47      1.0000 0.62448  0.53750  0.04277  Biso   1.000  C
  C48      1.0000 0.65427  0.54063  0.99567  Biso   1.000  C
  H31      1.0000 0.64503  0.53297  0.95347  Biso   1.000  H
  C49      1.0000 0.69676  0.55485  0.01147  Biso   1.000  C
  H32      1.0000 0.71563  0.55537  0.97987  Biso   1.000  H
  C50      1.0000 0.71278  0.56845  0.07237  Biso   1.000  C
  C51      1.0000 0.68310  0.56586  0.12167  Biso   1.000  C
  H33      1.0000 0.69273  0.57417  0.16357  Biso   1.000  H
  C52      1.0000 0.63921  0.55047  0.10507  Biso   1.000  C
  H34      1.0000 0.61973  0.54897  0.13637  Biso   1.000  H
  C53      1.0000 0.75945  0.58791  0.09317  Biso   1.000  C
  C54      1.0000 0.77908  0.62540  0.12877  Biso   1.000  C
  H35      1.0000 0.76203  0.63717  0.14217  Biso   1.000  H
  H36      1.0000 0.72573  0.49587  0.10307  Biso   1.000  H
  O13      1.0000 0.14321  0.36403  0.40440  Biso   1.000  O
  O14      1.0000 0.15543  0.38826  0.30290  Biso   1.000  O
  C55      1.0000 0.14357  0.38877  0.35940  Biso   1.000  C
  C56      1.0000 0.12917  0.42032  0.37610  Biso   1.000  C
  C57      1.0000 0.12604  0.44698  0.32900  Biso   1.000  C
  H37      1.0000 0.13370  0.44540  0.28680  Biso   1.000  H
  C58      1.0000 0.11182  0.47525  0.34480  Biso   1.000  C
  H38      1.0000 0.11130  0.49360  0.31320  Biso   1.000  H
  C59      1.0000 0.09822  0.47767  0.40570  Biso   1.000  C
  C60      1.0000 0.10081  0.45058  0.45500  Biso   1.000  C
  H39      1.0000 0.09250  0.45190  0.49690  Biso   1.000  H
  C61      1.0000 0.11620  0.42208  0.43840  Biso   1.000  C
  H40      1.0000 0.11770  0.40410  0.46970  Biso   1.000  H
  C62      1.0000 0.07876  0.50488  0.42650  Biso   1.000  C
  C63      1.0000 0.04127  0.48702  0.46210  Biso   1.000  C
  H41      1.0000 0.02950  0.45820  0.47550  Biso   1.000  H
  H42      1.0000 0.17080  0.56320  0.43640  Biso   1.000  H
  O15      1.0000 0.80988  0.69736  0.73773  Biso   1.000  O
  O16      1.0000 0.82210  0.72159  0.63623  Biso   1.000  O
  C64      1.0000 0.81024  0.72210  0.69273  Biso   1.000  C
  C65      1.0000 0.79584  0.75365  0.70943  Biso   1.000  C
  C66      1.0000 0.79271  0.78031  0.66233  Biso   1.000  C
  H43      1.0000 0.80037  0.77873  0.62013  Biso   1.000  H
  C67      1.0000 0.77849  0.80858  0.67813  Biso   1.000  C
  H44      1.0000 0.77797  0.82693  0.64653  Biso   1.000  H
  C68      1.0000 0.76489  0.81100  0.73903  Biso   1.000  C
  C69      1.0000 0.76748  0.78391  0.78833  Biso   1.000  C
  H45      1.0000 0.75917  0.78523  0.83023  Biso   1.000  H
  C70      1.0000 0.78287  0.75541  0.77173  Biso   1.000  C
  H46      1.0000 0.78437  0.73743  0.80303  Biso   1.000  H
  C71      1.0000 0.74543  0.83821  0.75983  Biso   1.000  C
  C72      1.0000 0.70794  0.82035  0.79543  Biso   1.000  C
  H47      1.0000 0.69617  0.79153  0.80883  Biso   1.000  H
  H48      1.0000 0.83747  0.89653  0.76973  Biso   1.000  H
  O17      1.0000 0.47654  0.03070  0.07107  Biso   1.000  O
  O18      1.0000 0.48876  0.05493  0.96957  Biso   1.000  O
  C73      1.0000 0.47690  0.05544  0.02607  Biso   1.000  C
  C74      1.0000 0.46250  0.08699  0.04277  Biso   1.000  C
  C75      1.0000 0.45937  0.11365  0.99567  Biso   1.000  C
  H49      1.0000 0.46703  0.11207  0.95347  Biso   1.000  H
  C76      1.0000 0.44515  0.14192  0.01147  Biso   1.000  C
  H50      1.0000 0.44463  0.16027  0.97987  Biso   1.000  H
  C77      1.0000 0.43155  0.14434  0.07237  Biso   1.000  C
  C78      1.0000 0.43414  0.11725  0.12167  Biso   1.000  C
  H51      1.0000 0.42583  0.11857  0.16357  Biso   1.000  H
  C79      1.0000 0.44953  0.08875  0.10507  Biso   1.000  C
  H52      1.0000 0.45103  0.07077  0.13637  Biso   1.000  H
  C80      1.0000 0.41209  0.17155  0.09317  Biso   1.000  C
  C81      1.0000 0.37460  0.15369  0.12877  Biso   1.000  C
  H53      1.0000 0.36283  0.12487  0.14217  Biso   1.000  H
  H54      1.0000 0.50413  0.22987  0.10307  Biso   1.000  H
  O19      1.0000 0.77918  0.63597  0.59560  Biso   1.000  O
  O20      1.0000 0.76717  0.61174  0.69710  Biso   1.000  O
  C82      1.0000 0.75480  0.61123  0.64060  Biso   1.000  C
  C83      1.0000 0.70885  0.57968  0.62390  Biso   1.000  C
  C84      1.0000 0.67906  0.55302  0.67100  Biso   1.000  C
  H55      1.0000 0.68830  0.55460  0.71320  Biso   1.000  H
  C85      1.0000 0.63657  0.52475  0.65520  Biso   1.000  C
  H56      1.0000 0.61770  0.50640  0.68680  Biso   1.000  H
  C86      1.0000 0.62055  0.52233  0.59430  Biso   1.000  C
  C87      1.0000 0.65023  0.54942  0.54500  Biso   1.000  C
  H57      1.0000 0.64060  0.54810  0.50310  Biso   1.000  H
  C88      1.0000 0.69412  0.57792  0.56160  Biso   1.000  C
  H58      1.0000 0.71360  0.59590  0.53030  Biso   1.000  H
  C89      1.0000 0.57388  0.49512  0.57350  Biso   1.000  C
  C90      1.0000 0.55425  0.51298  0.53790  Biso   1.000  C
  H59      1.0000 0.57130  0.54180  0.52450  Biso   1.000  H
  H60      1.0000 0.60760  0.43680  0.56360  Biso   1.000  H
  O21      1.0000 0.44585  0.96930  0.92893  Biso   1.000  O
  O22      1.0000 0.43384  0.94507  0.03043  Biso   1.000  O
  C91      1.0000 0.42147  0.94456  0.97393  Biso   1.000  C
  C92      1.0000 0.37552  0.91301  0.95723  Biso   1.000  C
  C93      1.0000 0.34573  0.88635  0.00433  Biso   1.000  C
  H61      1.0000 0.35497  0.88793  0.04653  Biso   1.000  H
  C94      1.0000 0.30324  0.85808  0.98853  Biso   1.000  C
  H62      1.0000 0.28437  0.83973  0.02013  Biso   1.000  H
  C95      1.0000 0.28722  0.85566  0.92763  Biso   1.000  C
  C96      1.0000 0.31690  0.88275  0.87833  Biso   1.000  C
  H63      1.0000 0.30727  0.88143  0.83643  Biso   1.000  H
  C97      1.0000 0.36079  0.91125  0.89493  Biso   1.000  C
  H64      1.0000 0.38027  0.92923  0.86363  Biso   1.000  H
  C98      1.0000 0.24055  0.82845  0.90683  Biso   1.000  C
  C99      1.0000 0.22092  0.84631  0.87123  Biso   1.000  C
  H65      1.0000 0.23797  0.87513  0.85783  Biso   1.000  H
  H66      1.0000 0.27427  0.77013  0.89693  Biso   1.000  H
  O23      1.0000 0.11251  0.30264  0.26227  Biso   1.000  O
  O24      1.0000 0.10050  0.27841  0.36377  Biso   1.000  O
  C100     1.0000 0.08813  0.27790  0.30727  Biso   1.000  C
  C101     1.0000 0.04218  0.24635  0.29057  Biso   1.000  C
  C102     1.0000 0.01239  0.21969  0.33767  Biso   1.000  C
  H67      1.0000 0.02163  0.22127  0.37987  Biso   1.000  H
  C103     1.0000 0.96990  0.19142  0.32187  Biso   1.000  C
  H68      1.0000 0.95103  0.17307  0.35347  Biso   1.000  H
  C104     1.0000 0.95388  0.18900  0.26097  Biso   1.000  C
  C105     1.0000 0.98356  0.21609  0.21167  Biso   1.000  C
  H69      1.0000 0.97393  0.21477  0.16977  Biso   1.000  H
  C106     1.0000 0.02745  0.24459  0.22827  Biso   1.000  C
  H70      1.0000 0.04693  0.26257  0.19697  Biso   1.000  H
  C107     1.0000 0.90721  0.16179  0.24017  Biso   1.000  C
  C108     1.0000 0.88758  0.17965  0.20457  Biso   1.000  C
  H71      1.0000 0.90463  0.20847  0.19117  Biso   1.000  H
  H72      1.0000 0.94093  0.10347  0.23027  Biso   1.000  H
  O25      1.0000 0.85679  0.22082  0.59560  Biso   1.000  O
  O26      1.0000 0.84457  0.23283  0.69710  Biso   1.000  O
  C109     1.0000 0.85643  0.24520  0.64060  Biso   1.000  C
  C110     1.0000 0.87083  0.29115  0.62390  Biso   1.000  C
  C111     1.0000 0.87396  0.32094  0.67100  Biso   1.000  C
  H73      1.0000 0.86630  0.31170  0.71320  Biso   1.000  H
  C112     1.0000 0.88818  0.36343  0.65520  Biso   1.000  C
  H74      1.0000 0.88870  0.38230  0.68680  Biso   1.000  H
  C113     1.0000 0.90178  0.37945  0.59430  Biso   1.000  C
  C114     1.0000 0.89919  0.34977  0.54500  Biso   1.000  C
  H75      1.0000 0.90750  0.35940  0.50310  Biso   1.000  H
  C115     1.0000 0.88380  0.30588  0.56160  Biso   1.000  C
  H76      1.0000 0.88230  0.28640  0.53030  Biso   1.000  H
  C116     1.0000 0.92124  0.42612  0.57350  Biso   1.000  C
  C117     1.0000 0.95873  0.44575  0.53790  Biso   1.000  C
  H77      1.0000 0.97050  0.42870  0.52450  Biso   1.000  H
  H78      1.0000 0.82920  0.39240  0.56360  Biso   1.000  H
  O27      1.0000 0.52346  0.55415  0.92893  Biso   1.000  O
  O28      1.0000 0.51124  0.56616  0.03043  Biso   1.000  O
  C118     1.0000 0.52310  0.57853  0.97393  Biso   1.000  C
  C119     1.0000 0.53750  0.62448  0.95723  Biso   1.000  C
  C120     1.0000 0.54063  0.65427  0.00433  Biso   1.000  C
  H79      1.0000 0.53297  0.64503  0.04653  Biso   1.000  H
  C121     1.0000 0.55485  0.69676  0.98853  Biso   1.000  C
  H80      1.0000 0.55537  0.71563  0.02013  Biso   1.000  H
  C122     1.0000 0.56845  0.71278  0.92763  Biso   1.000  C
  C123     1.0000 0.56586  0.68310  0.87833  Biso   1.000  C
  H81      1.0000 0.57417  0.69273  0.83643  Biso   1.000  H
  C124     1.0000 0.55047  0.63921  0.89493  Biso   1.000  C
  H82      1.0000 0.54897  0.61973  0.86363  Biso   1.000  H
  C125     1.0000 0.58791  0.75945  0.90683  Biso   1.000  C
  C126     1.0000 0.62540  0.77908  0.87123  Biso   1.000  C
  H83      1.0000 0.63717  0.76203  0.85783  Biso   1.000  H
  H84      1.0000 0.49587  0.72573  0.89693  Biso   1.000  H
  O29      1.0000 0.19012  0.88749  0.26227  Biso   1.000  O
  O30      1.0000 0.17790  0.89950  0.36377  Biso   1.000  O
  C127     1.0000 0.18976  0.91187  0.30727  Biso   1.000  C
  C128     1.0000 0.20416  0.95782  0.29057  Biso   1.000  C
  C129     1.0000 0.20729  0.98761  0.33767  Biso   1.000  C
  H85      1.0000 0.19963  0.97837  0.37987  Biso   1.000  H
  C130     1.0000 0.22151  0.03010  0.32187  Biso   1.000  C
  H86      1.0000 0.22203  0.04897  0.35347  Biso   1.000  H
  C131     1.0000 0.23511  0.04612  0.26097  Biso   1.000  C
  C132     1.0000 0.23252  0.01644  0.21167  Biso   1.000  C
  H87      1.0000 0.24083  0.02607  0.16977  Biso   1.000  H
  C133     1.0000 0.21713  0.97255  0.22827  Biso   1.000  C
  H88      1.0000 0.21563  0.95307  0.19697  Biso   1.000  H
  C134     1.0000 0.25457  0.09279  0.24017  Biso   1.000  C
  C135     1.0000 0.29206  0.11242  0.20457  Biso   1.000  C
  H89      1.0000 0.30383  0.09537  0.19117  Biso   1.000  H
  H90      1.0000 0.16253  0.05907  0.23027  Biso   1.000  H
  O31      1.0000 0.36403  0.14321  0.59560  Biso   1.000  O
  O32      1.0000 0.38826  0.15543  0.69710  Biso   1.000  O
  C136     1.0000 0.38877  0.14357  0.64060  Biso   1.000  C
  C137     1.0000 0.42032  0.12917  0.62390  Biso   1.000  C
  C138     1.0000 0.44698  0.12604  0.67100  Biso   1.000  C
  H91      1.0000 0.44540  0.13370  0.71320  Biso   1.000  H
  C139     1.0000 0.47525  0.11182  0.65520  Biso   1.000  C
  H92      1.0000 0.49360  0.11130  0.68680  Biso   1.000  H
  C140     1.0000 0.47767  0.09822  0.59430  Biso   1.000  C
  C141     1.0000 0.45058  0.10081  0.54500  Biso   1.000  C
  H93      1.0000 0.45190  0.09250  0.50310  Biso   1.000  H
  C142     1.0000 0.42208  0.11620  0.56160  Biso   1.000  C
  H94      1.0000 0.40410  0.11770  0.53030  Biso   1.000  H
  C143     1.0000 0.50488  0.07876  0.57350  Biso   1.000  C
  C144     1.0000 0.48702  0.04127  0.53790  Biso   1.000  C
  H95      1.0000 0.45820  0.02950  0.52450  Biso   1.000  H
  H96      1.0000 0.56320  0.17080  0.56360  Biso   1.000  H
  O33      1.0000 0.03070  0.47654  0.92893  Biso   1.000  O
  O34      1.0000 0.05493  0.48876  0.03043  Biso   1.000  O
  C145     1.0000 0.05544  0.47690  0.97393  Biso   1.000  C
  C146     1.0000 0.08699  0.46250  0.95723  Biso   1.000  C
  C147     1.0000 0.11365  0.45937  0.00433  Biso   1.000  C
  H97      1.0000 0.11207  0.46703  0.04653  Biso   1.000  H
  C148     1.0000 0.14192  0.44515  0.98853  Biso   1.000  C
  H98      1.0000 0.16027  0.44463  0.02013  Biso   1.000  H
  C149     1.0000 0.14434  0.43155  0.92763  Biso   1.000  C
  C150     1.0000 0.11725  0.43414  0.87833  Biso   1.000  C
  H99      1.0000 0.11857  0.42583  0.83643  Biso   1.000  H
  C151     1.0000 0.08875  0.44953  0.89493  Biso   1.000  C
  H100     1.0000 0.07077  0.45103  0.86363  Biso   1.000  H
  C152     1.0000 0.17155  0.41209  0.90683  Biso   1.000  C
  C153     1.0000 0.15369  0.37460  0.87123  Biso   1.000  C
  H101     1.0000 0.12487  0.36283  0.85783  Biso   1.000  H
  H102     1.0000 0.22987  0.50413  0.89693  Biso   1.000  H
  O35      1.0000 0.69736  0.80988  0.26227  Biso   1.000  O
  O36      1.0000 0.72159  0.82210  0.36377  Biso   1.000  O
  C154     1.0000 0.72210  0.81024  0.30727  Biso   1.000  C
  C155     1.0000 0.75365  0.79584  0.29057  Biso   1.000  C
  C156     1.0000 0.78031  0.79271  0.33767  Biso   1.000  C
  H103     1.0000 0.77873  0.80037  0.37987  Biso   1.000  H
  C157     1.0000 0.80858  0.77849  0.32187  Biso   1.000  C
  H104     1.0000 0.82693  0.77797  0.35347  Biso   1.000  H
  C158     1.0000 0.81100  0.76489  0.26097  Biso   1.000  C
  C159     1.0000 0.78391  0.76748  0.21167  Biso   1.000  C
  H105     1.0000 0.78523  0.75917  0.16977  Biso   1.000  H
  C160     1.0000 0.75541  0.78287  0.22827  Biso   1.000  C
  H106     1.0000 0.73743  0.78437  0.19697  Biso   1.000  H
  C161     1.0000 0.83821  0.74543  0.24017  Biso   1.000  C
  C162     1.0000 0.82035  0.70794  0.20457  Biso   1.000  C
  H107     1.0000 0.79153  0.69617  0.19117  Biso   1.000  H
  H108     1.0000 0.89653  0.83747  0.23027  Biso   1.000  H
  O37      1.0000 0.36403  0.22082  0.59560  Biso   1.000  O
  O38      1.0000 0.38826  0.23283  0.69710  Biso   1.000  O
  C163     1.0000 0.38877  0.24520  0.64060  Biso   1.000  C
  C164     1.0000 0.42032  0.29115  0.62390  Biso   1.000  C
  C165     1.0000 0.44698  0.32094  0.67100  Biso   1.000  C
  H109     1.0000 0.44540  0.31170  0.71320  Biso   1.000  H
  C166     1.0000 0.47525  0.36343  0.65520  Biso   1.000  C
  H110     1.0000 0.49360  0.38230  0.68680  Biso   1.000  H
  C167     1.0000 0.47767  0.37945  0.59430  Biso   1.000  C
  C168     1.0000 0.45058  0.34977  0.54500  Biso   1.000  C
  H111     1.0000 0.45190  0.35940  0.50310  Biso   1.000  H
  C169     1.0000 0.42208  0.30588  0.56160  Biso   1.000  C
  H112     1.0000 0.40410  0.28640  0.53030  Biso   1.000  H
  C170     1.0000 0.50488  0.42612  0.57350  Biso   1.000  C
  C171     1.0000 0.48702  0.44575  0.53790  Biso   1.000  C
  H113     1.0000 0.45820  0.42870  0.52450  Biso   1.000  H
  H114     1.0000 0.56320  0.39240  0.56360  Biso   1.000  H
  O39      1.0000 0.03070  0.55415  0.92893  Biso   1.000  O
  O40      1.0000 0.05493  0.56616  0.03043  Biso   1.000  O
  C172     1.0000 0.05544  0.57853  0.97393  Biso   1.000  C
  C173     1.0000 0.08699  0.62448  0.95723  Biso   1.000  C
  C174     1.0000 0.11365  0.65427  0.00433  Biso   1.000  C
  H115     1.0000 0.11207  0.64503  0.04653  Biso   1.000  H
  C175     1.0000 0.14192  0.69676  0.98853  Biso   1.000  C
  H116     1.0000 0.16027  0.71563  0.02013  Biso   1.000  H
  C176     1.0000 0.14434  0.71278  0.92763  Biso   1.000  C
  C177     1.0000 0.11725  0.68310  0.87833  Biso   1.000  C
  H117     1.0000 0.11857  0.69273  0.83643  Biso   1.000  H
  C178     1.0000 0.08875  0.63921  0.89493  Biso   1.000  C
  H118     1.0000 0.07077  0.61973  0.86363  Biso   1.000  H
  C179     1.0000 0.17155  0.75945  0.90683  Biso   1.000  C
  C180     1.0000 0.15369  0.77908  0.87123  Biso   1.000  C
  H119     1.0000 0.12487  0.76203  0.85783  Biso   1.000  H
  H120     1.0000 0.22987  0.72573  0.89693  Biso   1.000  H
  O41      1.0000 0.69736  0.88749  0.26227  Biso   1.000  O
  O42      1.0000 0.72159  0.89950  0.36377  Biso   1.000  O
  C181     1.0000 0.72210  0.91187  0.30727  Biso   1.000  C
  C182     1.0000 0.75365  0.95782  0.29057  Biso   1.000  C
  C183     1.0000 0.78031  0.98761  0.33767  Biso   1.000  C
  H121     1.0000 0.77873  0.97837  0.37987  Biso   1.000  H
  C184     1.0000 0.80858  0.03010  0.32187  Biso   1.000  C
  H122     1.0000 0.82693  0.04897  0.35347  Biso   1.000  H
  C185     1.0000 0.81100  0.04612  0.26097  Biso   1.000  C
  C186     1.0000 0.78391  0.01644  0.21167  Biso   1.000  C
  H123     1.0000 0.78523  0.02607  0.16977  Biso   1.000  H
  C187     1.0000 0.75541  0.97255  0.22827  Biso   1.000  C
  H124     1.0000 0.73743  0.95307  0.19697  Biso   1.000  H
  C188     1.0000 0.83821  0.09279  0.24017  Biso   1.000  C
  C189     1.0000 0.82035  0.11242  0.20457  Biso   1.000  C
  H125     1.0000 0.79153  0.09537  0.19117  Biso   1.000  H
  H126     1.0000 0.89653  0.05907  0.23027  Biso   1.000  H
  O43      1.0000 0.77918  0.14321  0.59560  Biso   1.000  O
  O44      1.0000 0.76717  0.15543  0.69710  Biso   1.000  O
  C190     1.0000 0.75480  0.14357  0.64060  Biso   1.000  C
  C191     1.0000 0.70885  0.12917  0.62390  Biso   1.000  C
  C192     1.0000 0.67906  0.12604  0.67100  Biso   1.000  C
  H127     1.0000 0.68830  0.13370  0.71320  Biso   1.000  H
  C193     1.0000 0.63657  0.11182  0.65520  Biso   1.000  C
  H128     1.0000 0.61770  0.11130  0.68680  Biso   1.000  H
  C194     1.0000 0.62055  0.09822  0.59430  Biso   1.000  C
  C195     1.0000 0.65023  0.10081  0.54500  Biso   1.000  C
  H129     1.0000 0.64060  0.09250  0.50310  Biso   1.000  H
  C196     1.0000 0.69412  0.11620  0.56160  Biso   1.000  C
  H130     1.0000 0.71360  0.11770  0.53030  Biso   1.000  H
  C197     1.0000 0.57388  0.07876  0.57350  Biso   1.000  C
  C198     1.0000 0.55425  0.04127  0.53790  Biso   1.000  C
  H131     1.0000 0.57130  0.02950  0.52450  Biso   1.000  H
  H132     1.0000 0.60760  0.17080  0.56360  Biso   1.000  H
  O45      1.0000 0.44585  0.47654  0.92893  Biso   1.000  O
  O46      1.0000 0.43384  0.48876  0.03043  Biso   1.000  O
  C199     1.0000 0.42147  0.47690  0.97393  Biso   1.000  C
  C200     1.0000 0.37552  0.46250  0.95723  Biso   1.000  C
  C201     1.0000 0.34573  0.45937  0.00433  Biso   1.000  C
  H133     1.0000 0.35497  0.46703  0.04653  Biso   1.000  H
  C202     1.0000 0.30324  0.44515  0.98853  Biso   1.000  C
  H134     1.0000 0.28437  0.44463  0.02013  Biso   1.000  H
  C203     1.0000 0.28722  0.43155  0.92763  Biso   1.000  C
  C204     1.0000 0.31690  0.43414  0.87833  Biso   1.000  C
  H135     1.0000 0.30727  0.42583  0.83643  Biso   1.000  H
  C205     1.0000 0.36079  0.44953  0.89493  Biso   1.000  C
  H136     1.0000 0.38027  0.45103  0.86363  Biso   1.000  H
  C206     1.0000 0.24055  0.41209  0.90683  Biso   1.000  C
  C207     1.0000 0.22092  0.37460  0.87123  Biso   1.000  C
  H137     1.0000 0.23797  0.36283  0.85783  Biso   1.000  H
  H138     1.0000 0.27427  0.50413  0.89693  Biso   1.000  H
  O47      1.0000 0.11251  0.80988  0.26227  Biso   1.000  O
  O48      1.0000 0.10050  0.82210  0.36377  Biso   1.000  O
  C208     1.0000 0.08813  0.81024  0.30727  Biso   1.000  C
  C209     1.0000 0.04218  0.79584  0.29057  Biso   1.000  C
  C210     1.0000 0.01239  0.79271  0.33767  Biso   1.000  C
  H139     1.0000 0.02163  0.80037  0.37987  Biso   1.000  H
  C211     1.0000 0.96990  0.77849  0.32187  Biso   1.000  C
  H140     1.0000 0.95103  0.77797  0.35347  Biso   1.000  H
  C212     1.0000 0.95388  0.76489  0.26097  Biso   1.000  C
  C213     1.0000 0.98356  0.76748  0.21167  Biso   1.000  C
  H141     1.0000 0.97393  0.75917  0.16977  Biso   1.000  H
  C214     1.0000 0.02745  0.78287  0.22827  Biso   1.000  C
  H142     1.0000 0.04693  0.78437  0.19697  Biso   1.000  H
  C215     1.0000 0.90721  0.74543  0.24017  Biso   1.000  C
  C216     1.0000 0.88758  0.70794  0.20457  Biso   1.000  C
  H143     1.0000 0.90463  0.69617  0.19117  Biso   1.000  H
  H144     1.0000 0.94093  0.83747  0.23027  Biso   1.000  H
  O49      1.0000 0.85679  0.63597  0.59560  Biso   1.000  O
  O50      1.0000 0.84457  0.61174  0.69710  Biso   1.000  O
  C217     1.0000 0.85643  0.61123  0.64060  Biso   1.000  C
  C218     1.0000 0.87083  0.57968  0.62390  Biso   1.000  C
  C219     1.0000 0.87396  0.55302  0.67100  Biso   1.000  C
  H145     1.0000 0.86630  0.55460  0.71320  Biso   1.000  H
  C220     1.0000 0.88818  0.52475  0.65520  Biso   1.000  C
  H146     1.0000 0.88870  0.50640  0.68680  Biso   1.000  H
  C221     1.0000 0.90178  0.52233  0.59430  Biso   1.000  C
  C222     1.0000 0.89919  0.54942  0.54500  Biso   1.000  C
  H147     1.0000 0.90750  0.54810  0.50310  Biso   1.000  H
  C223     1.0000 0.88380  0.57792  0.56160  Biso   1.000  C
  H148     1.0000 0.88230  0.59590  0.53030  Biso   1.000  H
  C224     1.0000 0.92124  0.49512  0.57350  Biso   1.000  C
  C225     1.0000 0.95873  0.51298  0.53790  Biso   1.000  C
  H149     1.0000 0.97050  0.54180  0.52450  Biso   1.000  H
  H150     1.0000 0.82920  0.43680  0.56360  Biso   1.000  H
  O51      1.0000 0.52346  0.96930  0.92893  Biso   1.000  O
  O52      1.0000 0.51124  0.94507  0.03043  Biso   1.000  O
  C226     1.0000 0.52310  0.94456  0.97393  Biso   1.000  C
  C227     1.0000 0.53750  0.91301  0.95723  Biso   1.000  C
  C228     1.0000 0.54063  0.88635  0.00433  Biso   1.000  C
  H151     1.0000 0.53297  0.88793  0.04653  Biso   1.000  H
  C229     1.0000 0.55485  0.85808  0.98853  Biso   1.000  C
  H152     1.0000 0.55537  0.83973  0.02013  Biso   1.000  H
  C230     1.0000 0.56845  0.85566  0.92763  Biso   1.000  C
  C231     1.0000 0.56586  0.88275  0.87833  Biso   1.000  C
  H153     1.0000 0.57417  0.88143  0.83643  Biso   1.000  H
  C232     1.0000 0.55047  0.91125  0.89493  Biso   1.000  C
  H154     1.0000 0.54897  0.92923  0.86363  Biso   1.000  H
  C233     1.0000 0.58791  0.82845  0.90683  Biso   1.000  C
  C234     1.0000 0.62540  0.84631  0.87123  Biso   1.000  C
  H155     1.0000 0.63717  0.87513  0.85783  Biso   1.000  H
  H156     1.0000 0.49587  0.77013  0.89693  Biso   1.000  H
  O53      1.0000 0.19012  0.30264  0.26227  Biso   1.000  O
  O54      1.0000 0.17790  0.27841  0.36377  Biso   1.000  O
  C235     1.0000 0.18976  0.27790  0.30727  Biso   1.000  C
  C236     1.0000 0.20416  0.24635  0.29057  Biso   1.000  C
  C237     1.0000 0.20729  0.21969  0.33767  Biso   1.000  C
  H157     1.0000 0.19963  0.22127  0.37987  Biso   1.000  H
  C238     1.0000 0.22151  0.19142  0.32187  Biso   1.000  C
  H158     1.0000 0.22203  0.17307  0.35347  Biso   1.000  H
  C239     1.0000 0.23511  0.18900  0.26097  Biso   1.000  C
  C240     1.0000 0.23252  0.21609  0.21167  Biso   1.000  C
  H159     1.0000 0.24083  0.21477  0.16977  Biso   1.000  H
  C241     1.0000 0.21713  0.24459  0.22827  Biso   1.000  C
  H160     1.0000 0.21563  0.26257  0.19697  Biso   1.000  H
  C242     1.0000 0.25457  0.16179  0.24017  Biso   1.000  C
  C243     1.0000 0.29206  0.17965  0.20457  Biso   1.000  C
  H161     1.0000 0.30383  0.20847  0.19117  Biso   1.000  H
  H162     1.0000 0.16253  0.10347  0.23027  Biso   1.000  H
  O55      1.0000 0.22082  0.36403  0.40440  Biso   1.000  O
  O56      1.0000 0.23283  0.38826  0.30290  Biso   1.000  O
  C244     1.0000 0.24520  0.38877  0.35940  Biso   1.000  C
  C245     1.0000 0.29115  0.42032  0.37610  Biso   1.000  C
  C246     1.0000 0.32094  0.44698  0.32900  Biso   1.000  C
  H163     1.0000 0.31170  0.44540  0.28680  Biso   1.000  H
  C247     1.0000 0.36343  0.47525  0.34480  Biso   1.000  C
  H164     1.0000 0.38230  0.49360  0.31320  Biso   1.000  H
  C248     1.0000 0.37945  0.47767  0.40570  Biso   1.000  C
  C249     1.0000 0.34977  0.45058  0.45500  Biso   1.000  C
  H165     1.0000 0.35940  0.45190  0.49690  Biso   1.000  H
  C250     1.0000 0.30588  0.42208  0.43840  Biso   1.000  C
  H166     1.0000 0.28640  0.40410  0.46970  Biso   1.000  H
  C251     1.0000 0.42612  0.50488  0.42650  Biso   1.000  C
  C252     1.0000 0.44575  0.48702  0.46210  Biso   1.000  C
  H167     1.0000 0.42870  0.45820  0.47550  Biso   1.000  H
  H168     1.0000 0.39240  0.56320  0.43640  Biso   1.000  H
  O57      1.0000 0.88749  0.69736  0.73773  Biso   1.000  O
  O58      1.0000 0.89950  0.72159  0.63623  Biso   1.000  O
  C253     1.0000 0.91187  0.72210  0.69273  Biso   1.000  C
  C254     1.0000 0.95782  0.75365  0.70943  Biso   1.000  C
  C255     1.0000 0.98761  0.78031  0.66233  Biso   1.000  C
  H169     1.0000 0.97837  0.77873  0.62013  Biso   1.000  H
  C256     1.0000 0.03010  0.80858  0.67813  Biso   1.000  C
  H170     1.0000 0.04897  0.82693  0.64653  Biso   1.000  H
  C257     1.0000 0.04612  0.81100  0.73903  Biso   1.000  C
  C258     1.0000 0.01644  0.78391  0.78833  Biso   1.000  C
  H171     1.0000 0.02607  0.78523  0.83023  Biso   1.000  H
  C259     1.0000 0.97255  0.75541  0.77173  Biso   1.000  C
  H172     1.0000 0.95307  0.73743  0.80303  Biso   1.000  H
  C260     1.0000 0.09279  0.83821  0.75983  Biso   1.000  C
  C261     1.0000 0.11242  0.82035  0.79543  Biso   1.000  C
  H173     1.0000 0.09537  0.79153  0.80883  Biso   1.000  H
  H174     1.0000 0.05907  0.89653  0.76973  Biso   1.000  H
  O59      1.0000 0.55415  0.03070  0.07107  Biso   1.000  O
  O60      1.0000 0.56616  0.05493  0.96957  Biso   1.000  O
  C262     1.0000 0.57853  0.05544  0.02607  Biso   1.000  C
  C263     1.0000 0.62448  0.08699  0.04277  Biso   1.000  C
  C264     1.0000 0.65427  0.11365  0.99567  Biso   1.000  C
  H175     1.0000 0.64503  0.11207  0.95347  Biso   1.000  H
  C265     1.0000 0.69676  0.14192  0.01147  Biso   1.000  C
  H176     1.0000 0.71563  0.16027  0.97987  Biso   1.000  H
  C266     1.0000 0.71278  0.14434  0.07237  Biso   1.000  C
  C267     1.0000 0.68310  0.11725  0.12167  Biso   1.000  C
  H177     1.0000 0.69273  0.11857  0.16357  Biso   1.000  H
  C268     1.0000 0.63921  0.08875  0.10507  Biso   1.000  C
  H178     1.0000 0.61973  0.07077  0.13637  Biso   1.000  H
  C269     1.0000 0.75945  0.17155  0.09317  Biso   1.000  C
  C270     1.0000 0.77908  0.15369  0.12877  Biso   1.000  C
  H179     1.0000 0.76203  0.12487  0.14217  Biso   1.000  H
  H180     1.0000 0.72573  0.22987  0.10307  Biso   1.000  H
  O61      1.0000 0.14321  0.77918  0.40440  Biso   1.000  O
  O62      1.0000 0.15543  0.76717  0.30290  Biso   1.000  O
  C271     1.0000 0.14357  0.75480  0.35940  Biso   1.000  C
  C272     1.0000 0.12917  0.70885  0.37610  Biso   1.000  C
  C273     1.0000 0.12604  0.67906  0.32900  Biso   1.000  C
  H181     1.0000 0.13370  0.68830  0.28680  Biso   1.000  H
  C274     1.0000 0.11182  0.63657  0.34480  Biso   1.000  C
  H182     1.0000 0.11130  0.61770  0.31320  Biso   1.000  H
  C275     1.0000 0.09822  0.62055  0.40570  Biso   1.000  C
  C276     1.0000 0.10081  0.65023  0.45500  Biso   1.000  C
  H183     1.0000 0.09250  0.64060  0.49690  Biso   1.000  H
  C277     1.0000 0.11620  0.69412  0.43840  Biso   1.000  C
  H184     1.0000 0.11770  0.71360  0.46970  Biso   1.000  H
  C278     1.0000 0.07876  0.57388  0.42650  Biso   1.000  C
  C279     1.0000 0.04127  0.55425  0.46210  Biso   1.000  C
  H185     1.0000 0.02950  0.57130  0.47550  Biso   1.000  H
  H186     1.0000 0.17080  0.60760  0.43640  Biso   1.000  H
  O63      1.0000 0.80988  0.11251  0.73773  Biso   1.000  O
  O64      1.0000 0.82210  0.10050  0.63623  Biso   1.000  O
  C280     1.0000 0.81024  0.08813  0.69273  Biso   1.000  C
  C281     1.0000 0.79584  0.04218  0.70943  Biso   1.000  C
  C282     1.0000 0.79271  0.01239  0.66233  Biso   1.000  C
  H187     1.0000 0.80037  0.02163  0.62013  Biso   1.000  H
  C283     1.0000 0.77849  0.96990  0.67813  Biso   1.000  C
  H188     1.0000 0.77797  0.95103  0.64653  Biso   1.000  H
  C284     1.0000 0.76489  0.95388  0.73903  Biso   1.000  C
  C285     1.0000 0.76748  0.98356  0.78833  Biso   1.000  C
  H189     1.0000 0.75917  0.97393  0.83023  Biso   1.000  H
  C286     1.0000 0.78287  0.02745  0.77173  Biso   1.000  C
  H190     1.0000 0.78437  0.04693  0.80303  Biso   1.000  H
  C287     1.0000 0.74543  0.90721  0.75983  Biso   1.000  C
  C288     1.0000 0.70794  0.88758  0.79543  Biso   1.000  C
  H191     1.0000 0.69617  0.90463  0.80883  Biso   1.000  H
  H192     1.0000 0.83747  0.94093  0.76973  Biso   1.000  H
  O65      1.0000 0.47654  0.44585  0.07107  Biso   1.000  O
  O66      1.0000 0.48876  0.43384  0.96957  Biso   1.000  O
  C289     1.0000 0.47690  0.42147  0.02607  Biso   1.000  C
  C290     1.0000 0.46250  0.37552  0.04277  Biso   1.000  C
  C291     1.0000 0.45937  0.34573  0.99567  Biso   1.000  C
  H193     1.0000 0.46703  0.35497  0.95347  Biso   1.000  H
  C292     1.0000 0.44515  0.30324  0.01147  Biso   1.000  C
  H194     1.0000 0.44463  0.28437  0.97987  Biso   1.000  H
  C293     1.0000 0.43155  0.28722  0.07237  Biso   1.000  C
  C294     1.0000 0.43414  0.31690  0.12167  Biso   1.000  C
  H195     1.0000 0.42583  0.30727  0.16357  Biso   1.000  H
  C295     1.0000 0.44953  0.36079  0.10507  Biso   1.000  C
  H196     1.0000 0.45103  0.38027  0.13637  Biso   1.000  H
  C296     1.0000 0.41209  0.24055  0.09317  Biso   1.000  C
  C297     1.0000 0.37460  0.22092  0.12877  Biso   1.000  C
  H197     1.0000 0.36283  0.23797  0.14217  Biso   1.000  H
  H198     1.0000 0.50413  0.27427  0.10307  Biso   1.000  H
  O67      1.0000 0.63597  0.85679  0.40440  Biso   1.000  O
  O68      1.0000 0.61174  0.84457  0.30290  Biso   1.000  O
  C298     1.0000 0.61123  0.85643  0.35940  Biso   1.000  C
  C299     1.0000 0.57968  0.87083  0.37610  Biso   1.000  C
  C300     1.0000 0.55302  0.87396  0.32900  Biso   1.000  C
  H199     1.0000 0.55460  0.86630  0.28680  Biso   1.000  H
  C301     1.0000 0.52475  0.88818  0.34480  Biso   1.000  C
  H200     1.0000 0.50640  0.88870  0.31320  Biso   1.000  H
  C302     1.0000 0.52233  0.90178  0.40570  Biso   1.000  C
  C303     1.0000 0.54942  0.89919  0.45500  Biso   1.000  C
  H201     1.0000 0.54810  0.90750  0.49690  Biso   1.000  H
  C304     1.0000 0.57792  0.88380  0.43840  Biso   1.000  C
  H202     1.0000 0.59590  0.88230  0.46970  Biso   1.000  H
  C305     1.0000 0.49512  0.92124  0.42650  Biso   1.000  C
  C306     1.0000 0.51298  0.95873  0.46210  Biso   1.000  C
  H203     1.0000 0.54180  0.97050  0.47550  Biso   1.000  H
  H204     1.0000 0.43680  0.82920  0.43640  Biso   1.000  H
  O69      1.0000 0.30264  0.19012  0.73773  Biso   1.000  O
  O70      1.0000 0.27841  0.17790  0.63623  Biso   1.000  O
  C307     1.0000 0.27790  0.18976  0.69273  Biso   1.000  C
  C308     1.0000 0.24635  0.20416  0.70943  Biso   1.000  C
  C309     1.0000 0.21969  0.20729  0.66233  Biso   1.000  C
  H205     1.0000 0.22127  0.19963  0.62013  Biso   1.000  H
  C310     1.0000 0.19142  0.22151  0.67813  Biso   1.000  C
  H206     1.0000 0.17307  0.22203  0.64653  Biso   1.000  H
  C311     1.0000 0.18900  0.23511  0.73903  Biso   1.000  C
  C312     1.0000 0.21609  0.23252  0.78833  Biso   1.000  C
  H207     1.0000 0.21477  0.24083  0.83023  Biso   1.000  H
  C313     1.0000 0.24459  0.21713  0.77173  Biso   1.000  C
  H208     1.0000 0.26257  0.21563  0.80303  Biso   1.000  H
  C314     1.0000 0.16179  0.25457  0.75983  Biso   1.000  C
  C315     1.0000 0.17965  0.29206  0.79543  Biso   1.000  C
  H209     1.0000 0.20847  0.30383  0.80883  Biso   1.000  H
  H210     1.0000 0.10347  0.16253  0.76973  Biso   1.000  H
  O71      1.0000 0.96930  0.52346  0.07107  Biso   1.000  O
  O72      1.0000 0.94507  0.51124  0.96957  Biso   1.000  O
  C316     1.0000 0.94456  0.52310  0.02607  Biso   1.000  C
  C317     1.0000 0.91301  0.53750  0.04277  Biso   1.000  C
  C318     1.0000 0.88635  0.54063  0.99567  Biso   1.000  C
  H211     1.0000 0.88793  0.53297  0.95347  Biso   1.000  H
  C319     1.0000 0.85808  0.55485  0.01147  Biso   1.000  C
  H212     1.0000 0.83973  0.55537  0.97987  Biso   1.000  H
  C320     1.0000 0.85566  0.56845  0.07237  Biso   1.000  C
  C321     1.0000 0.88275  0.56586  0.12167  Biso   1.000  C
  H213     1.0000 0.88143  0.57417  0.16357  Biso   1.000  H
  C322     1.0000 0.91125  0.55047  0.10507  Biso   1.000  C
  H214     1.0000 0.92923  0.54897  0.13637  Biso   1.000  H
  C323     1.0000 0.82845  0.58791  0.09317  Biso   1.000  C
  C324     1.0000 0.84631  0.62540  0.12877  Biso   1.000  C
  H215     1.0000 0.87513  0.63717  0.14217  Biso   1.000  H
  H216     1.0000 0.77013  0.49587  0.10307  Biso   1.000  H
  Cu1      1.0000 0.65265  0.82632  0.27330  Biso   1.000  Cu
  Cu2      1.0000 0.31932  0.15966  0.60663  Biso   1.000  Cu
  Cu3      1.0000 0.98598  0.49299  0.93997  Biso   1.000  Cu
  Cu4      1.0000 0.17368  0.82632  0.27330  Biso   1.000  Cu
  Cu5      1.0000 0.84034  0.15966  0.60663  Biso   1.000  Cu
  Cu6      1.0000 0.50701  0.49299  0.93997  Biso   1.000  Cu
  Cu7      1.0000 0.17367  0.34735  0.27330  Biso   1.000  Cu
  Cu8      1.0000 0.84034  0.68068  0.60663  Biso   1.000  Cu
  Cu9      1.0000 0.50701  0.01402  0.93997  Biso   1.000  Cu
  Cu10     1.0000 0.82632  0.65265  0.72670  Biso   1.000  Cu
  Cu11     1.0000 0.49299  0.98598  0.06003  Biso   1.000  Cu
  Cu12     1.0000 0.15966  0.31932  0.39337  Biso   1.000  Cu
  Cu13     1.0000 0.82632  0.17368  0.72670  Biso   1.000  Cu
  Cu14     1.0000 0.49299  0.50701  0.06003  Biso   1.000  Cu
  Cu15     1.0000 0.15966  0.84034  0.39337  Biso   1.000  Cu
  Cu16     1.0000 0.34735  0.17368  0.72670  Biso   1.000  Cu
  Cu17     1.0000 0.01402  0.50701  0.06003  Biso   1.000  Cu
  Cu18     1.0000 0.68068  0.84034  0.39337  Biso   1.000  Cu
  O73      1.0000 0.43242  0.56758  0.36710  Biso   1.000  O
  C325     1.0000 0.49031  0.50969  0.47960  Biso   1.000  C
  C326     1.0000 0.45143  0.54857  0.40890  Biso   1.000  C
  C327     1.0000 0.41410  0.58590  0.40990  Biso   1.000  C
  H217     1.0000 0.40080  0.59920  0.38550  Biso   1.000  H
  O74      1.0000 0.09909  0.90091  0.70043  Biso   1.000  O
  C328     1.0000 0.15698  0.84302  0.81293  Biso   1.000  C
  C329     1.0000 0.11810  0.88190  0.74223  Biso   1.000  C
  C330     1.0000 0.08077  0.91923  0.74323  Biso   1.000  C
  H218     1.0000 0.06747  0.93253  0.71883  Biso   1.000  H
  O75      1.0000 0.76575  0.23425  0.03377  Biso   1.000  O
  C331     1.0000 0.82364  0.17636  0.14627  Biso   1.000  C
  C332     1.0000 0.78476  0.21524  0.07557  Biso   1.000  C
  C333     1.0000 0.74743  0.25257  0.07657  Biso   1.000  C
  H219     1.0000 0.73413  0.26587  0.05217  Biso   1.000  H
  O76      1.0000 0.43242  0.86484  0.36710  Biso   1.000  O
  C334     1.0000 0.49031  0.98062  0.47960  Biso   1.000  C
  C335     1.0000 0.45143  0.90286  0.40890  Biso   1.000  C
  C336     1.0000 0.41410  0.82820  0.40990  Biso   1.000  C
  H220     1.0000 0.40080  0.80160  0.38550  Biso   1.000  H
  O77      1.0000 0.09909  0.19817  0.70043  Biso   1.000  O
  C337     1.0000 0.15698  0.31395  0.81293  Biso   1.000  C
  C338     1.0000 0.11810  0.23619  0.74223  Biso   1.000  C
  C339     1.0000 0.08077  0.16153  0.74323  Biso   1.000  C
  H221     1.0000 0.06747  0.13493  0.71883  Biso   1.000  H
  O78      1.0000 0.76575  0.53151  0.03377  Biso   1.000  O
  C340     1.0000 0.82364  0.64729  0.14627  Biso   1.000  C
  C341     1.0000 0.78476  0.56953  0.07557  Biso   1.000  C
  C342     1.0000 0.74743  0.49487  0.07657  Biso   1.000  C
  H222     1.0000 0.73413  0.46827  0.05217  Biso   1.000  H
  O79      1.0000 0.13516  0.56758  0.36710  Biso   1.000  O
  C343     1.0000 0.01938  0.50969  0.47960  Biso   1.000  C
  C344     1.0000 0.09714  0.54857  0.40890  Biso   1.000  C
  C345     1.0000 0.17180  0.58590  0.40990  Biso   1.000  C
  H223     1.0000 0.19840  0.59920  0.38550  Biso   1.000  H
  O80      1.0000 0.80183  0.90091  0.70043  Biso   1.000  O
  C346     1.0000 0.68605  0.84302  0.81293  Biso   1.000  C
  C347     1.0000 0.76381  0.88190  0.74223  Biso   1.000  C
  C348     1.0000 0.83847  0.91923  0.74323  Biso   1.000  C
  H224     1.0000 0.86507  0.93253  0.71883  Biso   1.000  H
  O81      1.0000 0.46849  0.23425  0.03377  Biso   1.000  O
  C349     1.0000 0.35271  0.17636  0.14627  Biso   1.000  C
  C350     1.0000 0.43047  0.21524  0.07557  Biso   1.000  C
  C351     1.0000 0.50513  0.25257  0.07657  Biso   1.000  C
  H225     1.0000 0.53173  0.26587  0.05217  Biso   1.000  H
  O82      1.0000 0.56758  0.43242  0.63290  Biso   1.000  O
  C352     1.0000 0.50969  0.49031  0.52040  Biso   1.000  C
  C353     1.0000 0.54857  0.45143  0.59110  Biso   1.000  C
  C354     1.0000 0.58590  0.41410  0.59010  Biso   1.000  C
  H226     1.0000 0.59920  0.40080  0.61450  Biso   1.000  H
  O83      1.0000 0.23425  0.76575  0.96623  Biso   1.000  O
  C355     1.0000 0.17636  0.82364  0.85373  Biso   1.000  C
  C356     1.0000 0.21524  0.78476  0.92443  Biso   1.000  C
  C357     1.0000 0.25257  0.74743  0.92343  Biso   1.000  C
  H227     1.0000 0.26587  0.73413  0.94783  Biso   1.000  H
  O84      1.0000 0.90091  0.09909  0.29957  Biso   1.000  O
  C358     1.0000 0.84302  0.15698  0.18707  Biso   1.000  C
  C359     1.0000 0.88190  0.11810  0.25777  Biso   1.000  C
  C360     1.0000 0.91923  0.08077  0.25677  Biso   1.000  C
  H228     1.0000 0.93253  0.06747  0.28117  Biso   1.000  H
  O85      1.0000 0.86484  0.43242  0.63290  Biso   1.000  O
  C361     1.0000 0.98062  0.49031  0.52040  Biso   1.000  C
  C362     1.0000 0.90286  0.45143  0.59110  Biso   1.000  C
  C363     1.0000 0.82820  0.41410  0.59010  Biso   1.000  C
  H229     1.0000 0.80160  0.40080  0.61450  Biso   1.000  H
  O86      1.0000 0.53151  0.76575  0.96623  Biso   1.000  O
  C364     1.0000 0.64729  0.82364  0.85373  Biso   1.000  C
  C365     1.0000 0.56953  0.78476  0.92443  Biso   1.000  C
  C366     1.0000 0.49487  0.74743  0.92343  Biso   1.000  C
  H230     1.0000 0.46827  0.73413  0.94783  Biso   1.000  H
  O87      1.0000 0.19817  0.09909  0.29957  Biso   1.000  O
  C367     1.0000 0.31395  0.15698  0.18707  Biso   1.000  C
  C368     1.0000 0.23619  0.11810  0.25777  Biso   1.000  C
  C369     1.0000 0.16153  0.08077  0.25677  Biso   1.000  C
  H231     1.0000 0.13493  0.06747  0.28117  Biso   1.000  H
  O88      1.0000 0.56758  0.13516  0.63290  Biso   1.000  O
  C370     1.0000 0.50969  0.01938  0.52040  Biso   1.000  C
  C371     1.0000 0.54857  0.09714  0.59110  Biso   1.000  C
  C372     1.0000 0.58590  0.17180  0.59010  Biso   1.000  C
  H232     1.0000 0.59920  0.19840  0.61450  Biso   1.000  H
  O89      1.0000 0.23425  0.46849  0.96623  Biso   1.000  O
  C373     1.0000 0.17636  0.35271  0.85373  Biso   1.000  C
  C374     1.0000 0.21524  0.43047  0.92443  Biso   1.000  C
  C375     1.0000 0.25257  0.50513  0.92343  Biso   1.000  C
  H233     1.0000 0.26587  0.53173  0.94783  Biso   1.000  H
  O90      1.0000 0.90091  0.80183  0.29957  Biso   1.000  O
  C376     1.0000 0.84302  0.68605  0.18707  Biso   1.000  C
  C377     1.0000 0.88190  0.76381  0.25777  Biso   1.000  C
  C378     1.0000 0.91923  0.83847  0.25677  Biso   1.000  C
  H234     1.0000 0.93253  0.86507  0.28117  Biso   1.000  H
