data_image0
_cell_length_a       35.1227
_cell_length_b       35.1227
_cell_length_c       22.16
_cell_angle_alpha    90
_cell_angle_beta     90
_cell_angle_gamma    120

_symmetry_space_group_name_H-M    "P 1"
_symmetry_int_tables_number       1

loop_
  _symmetry_equiv_pos_as_xyz
  'x, y, z'

loop_
  _atom_site_label
  _atom_site_occupancy
  _atom_site_fract_x
  _atom_site_fract_y
  _atom_site_fract_z
  _atom_site_thermal_displace_type
  _atom_site_B_iso_or_equiv
  _atom_site_type_symbol
  O1       1.0000 0.30418  0.19138  0.23505  Biso   1.000  O
  O2       1.0000 0.27748  0.17794  0.14059  Biso   1.000  O
  C1       1.0000 0.27863  0.19040  0.19353  Biso   1.000  C
  C2       1.0000 0.24753  0.20586  0.21156  Biso   1.000  C
  C3       1.0000 0.21950  0.20805  0.16801  Biso   1.000  C
  H1       1.0000 0.22000  0.19970  0.12830  Biso   1.000  H
  C4       1.0000 0.19123  0.22272  0.18491  Biso   1.000  C
  H2       1.0000 0.17200  0.22300  0.15640  Biso   1.000  H
  C5       1.0000 0.19055  0.23666  0.24163  Biso   1.000  C
  C6       1.0000 0.21813  0.23411  0.28628  Biso   1.000  C
  H3       1.0000 0.21740  0.24240  0.32600  Biso   1.000  H
  C7       1.0000 0.24639  0.21893  0.26916  Biso   1.000  C
  H4       1.0000 0.26500  0.21770  0.29790  Biso   1.000  H
  C8       1.0000 0.16251  0.25586  0.26047  Biso   1.000  C
  C9       1.0000 0.18019  0.29313  0.29583  Biso   1.000  C
  H5       1.0000 0.20940  0.30560  0.30780  Biso   1.000  H
  H6       1.0000 0.05630  0.15750  0.26940  Biso   1.000  H
  H7       1.0000 0.03870  0.12200  0.17540  Biso   1.000  H
  O3       1.0000 0.97085  0.52471  0.56838  Biso   1.000  O
  O4       1.0000 0.94415  0.51127  0.47392  Biso   1.000  O
  C10      1.0000 0.94530  0.52373  0.52686  Biso   1.000  C
  C11      1.0000 0.91420  0.53919  0.54489  Biso   1.000  C
  C12      1.0000 0.88617  0.54138  0.50134  Biso   1.000  C
  H8       1.0000 0.88667  0.53303  0.46163  Biso   1.000  H
  C13      1.0000 0.85790  0.55605  0.51824  Biso   1.000  C
  H9       1.0000 0.83867  0.55633  0.48973  Biso   1.000  H
  C14      1.0000 0.85722  0.56999  0.57496  Biso   1.000  C
  C15      1.0000 0.88480  0.56744  0.61961  Biso   1.000  C
  H10      1.0000 0.88407  0.57573  0.65933  Biso   1.000  H
  C16      1.0000 0.91306  0.55226  0.60249  Biso   1.000  C
  H11      1.0000 0.93167  0.55103  0.63123  Biso   1.000  H
  C17      1.0000 0.82918  0.58919  0.59380  Biso   1.000  C
  C18      1.0000 0.84686  0.62646  0.62916  Biso   1.000  C
  H12      1.0000 0.87607  0.63893  0.64113  Biso   1.000  H
  H13      1.0000 0.72297  0.49083  0.60273  Biso   1.000  H
  H14      1.0000 0.70537  0.45533  0.50873  Biso   1.000  H
  O5       1.0000 0.63751  0.85805  0.90172  Biso   1.000  O
  O6       1.0000 0.61081  0.84461  0.80726  Biso   1.000  O
  C19      1.0000 0.61196  0.85707  0.86020  Biso   1.000  C
  C20      1.0000 0.58086  0.87253  0.87823  Biso   1.000  C
  C21      1.0000 0.55283  0.87472  0.83468  Biso   1.000  C
  H15      1.0000 0.55333  0.86637  0.79497  Biso   1.000  H
  C22      1.0000 0.52456  0.88939  0.85158  Biso   1.000  C
  H16      1.0000 0.50533  0.88967  0.82307  Biso   1.000  H
  C23      1.0000 0.52388  0.90333  0.90830  Biso   1.000  C
  C24      1.0000 0.55146  0.90078  0.95295  Biso   1.000  C
  H17      1.0000 0.55073  0.90907  0.99267  Biso   1.000  H
  C25      1.0000 0.57972  0.88560  0.93583  Biso   1.000  C
  H18      1.0000 0.59833  0.88437  0.96457  Biso   1.000  H
  C26      1.0000 0.49584  0.92253  0.92714  Biso   1.000  C
  C27      1.0000 0.51352  0.95980  0.96250  Biso   1.000  C
  H19      1.0000 0.54273  0.97227  0.97447  Biso   1.000  H
  H20      1.0000 0.38963  0.82417  0.93607  Biso   1.000  H
  H21      1.0000 0.37203  0.78867  0.84207  Biso   1.000  H
  O7       1.0000 0.80862  0.11280  0.23505  Biso   1.000  O
  O8       1.0000 0.82206  0.09954  0.14059  Biso   1.000  O
  C28      1.0000 0.80960  0.08823  0.19353  Biso   1.000  C
  C29      1.0000 0.79414  0.04167  0.21156  Biso   1.000  C
  C30      1.0000 0.79195  0.01145  0.16801  Biso   1.000  C
  H22      1.0000 0.80030  0.02030  0.12830  Biso   1.000  H
  C31      1.0000 0.77728  0.96851  0.18491  Biso   1.000  C
  H23      1.0000 0.77700  0.94900  0.15640  Biso   1.000  H
  C32      1.0000 0.76334  0.95389  0.24163  Biso   1.000  C
  C33      1.0000 0.76589  0.98402  0.28628  Biso   1.000  C
  H24      1.0000 0.75760  0.97500  0.32600  Biso   1.000  H
  C34      1.0000 0.78107  0.02746  0.26916  Biso   1.000  C
  H25      1.0000 0.78230  0.04730  0.29790  Biso   1.000  H
  C35      1.0000 0.74414  0.90665  0.26047  Biso   1.000  C
  C36      1.0000 0.70687  0.88706  0.29583  Biso   1.000  C
  H26      1.0000 0.69440  0.90380  0.30780  Biso   1.000  H
  H27      1.0000 0.84250  0.89880  0.26940  Biso   1.000  H
  H28      1.0000 0.87800  0.91670  0.17540  Biso   1.000  H
  O9       1.0000 0.47529  0.44613  0.56838  Biso   1.000  O
  O10      1.0000 0.48873  0.43287  0.47392  Biso   1.000  O
  C37      1.0000 0.47627  0.42156  0.52686  Biso   1.000  C
  C38      1.0000 0.46081  0.37500  0.54489  Biso   1.000  C
  C39      1.0000 0.45862  0.34478  0.50134  Biso   1.000  C
  H29      1.0000 0.46697  0.35363  0.46163  Biso   1.000  H
  C40      1.0000 0.44395  0.30184  0.51824  Biso   1.000  C
  H30      1.0000 0.44367  0.28233  0.48973  Biso   1.000  H
  C41      1.0000 0.43001  0.28722  0.57496  Biso   1.000  C
  C42      1.0000 0.43256  0.31735  0.61961  Biso   1.000  C
  H31      1.0000 0.42427  0.30833  0.65933  Biso   1.000  H
  C43      1.0000 0.44774  0.36079  0.60249  Biso   1.000  C
  H32      1.0000 0.44897  0.38063  0.63123  Biso   1.000  H
  C44      1.0000 0.41081  0.23998  0.59380  Biso   1.000  C
  C45      1.0000 0.37354  0.22039  0.62916  Biso   1.000  C
  H33      1.0000 0.36107  0.23713  0.64113  Biso   1.000  H
  H34      1.0000 0.50917  0.23213  0.60273  Biso   1.000  H
  H35      1.0000 0.54467  0.25003  0.50873  Biso   1.000  H
  O11      1.0000 0.14195  0.77947  0.90172  Biso   1.000  O
  O12      1.0000 0.15539  0.76621  0.80726  Biso   1.000  O
  C46      1.0000 0.14293  0.75490  0.86020  Biso   1.000  C
  C47      1.0000 0.12747  0.70834  0.87823  Biso   1.000  C
  C48      1.0000 0.12528  0.67812  0.83468  Biso   1.000  C
  H36      1.0000 0.13363  0.68697  0.79497  Biso   1.000  H
  C49      1.0000 0.11061  0.63518  0.85158  Biso   1.000  C
  H37      1.0000 0.11033  0.61567  0.82307  Biso   1.000  H
  C50      1.0000 0.09667  0.62056  0.90830  Biso   1.000  C
  C51      1.0000 0.09922  0.65069  0.95295  Biso   1.000  C
  H38      1.0000 0.09093  0.64167  0.99267  Biso   1.000  H
  C52      1.0000 0.11440  0.69413  0.93583  Biso   1.000  C
  H39      1.0000 0.11563  0.71397  0.96457  Biso   1.000  H
  C53      1.0000 0.07747  0.57332  0.92714  Biso   1.000  C
  C54      1.0000 0.04020  0.55373  0.96250  Biso   1.000  C
  H40      1.0000 0.02773  0.57047  0.97447  Biso   1.000  H
  H41      1.0000 0.17583  0.56547  0.93607  Biso   1.000  H
  H42      1.0000 0.21133  0.58337  0.84207  Biso   1.000  H
  O13      1.0000 0.88720  0.69582  0.23505  Biso   1.000  O
  O14      1.0000 0.90046  0.72252  0.14059  Biso   1.000  O
  C55      1.0000 0.91177  0.72137  0.19353  Biso   1.000  C
  C56      1.0000 0.95833  0.75247  0.21156  Biso   1.000  C
  C57      1.0000 0.98855  0.78050  0.16801  Biso   1.000  C
  H43      1.0000 0.97970  0.78000  0.12830  Biso   1.000  H
  C58      1.0000 0.03149  0.80877  0.18491  Biso   1.000  C
  H44      1.0000 0.05100  0.82800  0.15640  Biso   1.000  H
  C59      1.0000 0.04611  0.80945  0.24163  Biso   1.000  C
  C60      1.0000 0.01598  0.78187  0.28628  Biso   1.000  C
  H45      1.0000 0.02500  0.78260  0.32600  Biso   1.000  H
  C61      1.0000 0.97254  0.75361  0.26916  Biso   1.000  C
  H46      1.0000 0.95270  0.73500  0.29790  Biso   1.000  H
  C62      1.0000 0.09335  0.83749  0.26047  Biso   1.000  C
  C63      1.0000 0.11294  0.81981  0.29583  Biso   1.000  C
  H47      1.0000 0.09620  0.79060  0.30780  Biso   1.000  H
  H48      1.0000 0.10120  0.94370  0.26940  Biso   1.000  H
  H49      1.0000 0.08330  0.96130  0.17540  Biso   1.000  H
  O15      1.0000 0.55387  0.02915  0.56838  Biso   1.000  O
  O16      1.0000 0.56713  0.05585  0.47392  Biso   1.000  O
  C64      1.0000 0.57844  0.05470  0.52686  Biso   1.000  C
  C65      1.0000 0.62500  0.08580  0.54489  Biso   1.000  C
  C66      1.0000 0.65522  0.11383  0.50134  Biso   1.000  C
  H50      1.0000 0.64637  0.11333  0.46163  Biso   1.000  H
  C67      1.0000 0.69816  0.14210  0.51824  Biso   1.000  C
  H51      1.0000 0.71767  0.16133  0.48973  Biso   1.000  H
  C68      1.0000 0.71278  0.14278  0.57496  Biso   1.000  C
  C69      1.0000 0.68265  0.11520  0.61961  Biso   1.000  C
  H52      1.0000 0.69167  0.11593  0.65933  Biso   1.000  H
  C70      1.0000 0.63921  0.08694  0.60249  Biso   1.000  C
  H53      1.0000 0.61937  0.06833  0.63123  Biso   1.000  H
  C71      1.0000 0.76002  0.17082  0.59380  Biso   1.000  C
  C72      1.0000 0.77961  0.15314  0.62916  Biso   1.000  C
  H54      1.0000 0.76287  0.12393  0.64113  Biso   1.000  H
  H55      1.0000 0.76787  0.27703  0.60273  Biso   1.000  H
  H56      1.0000 0.74997  0.29463  0.50873  Biso   1.000  H
  O17      1.0000 0.22053  0.36249  0.90172  Biso   1.000  O
  O18      1.0000 0.23379  0.38919  0.80726  Biso   1.000  O
  C73      1.0000 0.24510  0.38804  0.86020  Biso   1.000  C
  C74      1.0000 0.29166  0.41914  0.87823  Biso   1.000  C
  C75      1.0000 0.32188  0.44717  0.83468  Biso   1.000  C
  H57      1.0000 0.31303  0.44667  0.79497  Biso   1.000  H
  C76      1.0000 0.36482  0.47544  0.85158  Biso   1.000  C
  H58      1.0000 0.38433  0.49467  0.82307  Biso   1.000  H
  C77      1.0000 0.37944  0.47612  0.90830  Biso   1.000  C
  C78      1.0000 0.34931  0.44854  0.95295  Biso   1.000  C
  H59      1.0000 0.35833  0.44927  0.99267  Biso   1.000  H
  C79      1.0000 0.30587  0.42028  0.93583  Biso   1.000  C
  H60      1.0000 0.28603  0.40167  0.96457  Biso   1.000  H
  C80      1.0000 0.42668  0.50416  0.92714  Biso   1.000  C
  C81      1.0000 0.44627  0.48648  0.96250  Biso   1.000  C
  H61      1.0000 0.42953  0.45727  0.97447  Biso   1.000  H
  H62      1.0000 0.43453  0.61037  0.93607  Biso   1.000  H
  H63      1.0000 0.41663  0.62797  0.84207  Biso   1.000  H
  O19      1.0000 0.19138  0.30418  0.76495  Biso   1.000  O
  O20      1.0000 0.17794  0.27748  0.85941  Biso   1.000  O
  C82      1.0000 0.19040  0.27863  0.80647  Biso   1.000  C
  C83      1.0000 0.20586  0.24753  0.78844  Biso   1.000  C
  C84      1.0000 0.20805  0.21950  0.83199  Biso   1.000  C
  H64      1.0000 0.19970  0.22000  0.87170  Biso   1.000  H
  C85      1.0000 0.22272  0.19123  0.81509  Biso   1.000  C
  H65      1.0000 0.22300  0.17200  0.84360  Biso   1.000  H
  C86      1.0000 0.23666  0.19055  0.75837  Biso   1.000  C
  C87      1.0000 0.23411  0.21813  0.71372  Biso   1.000  C
  H66      1.0000 0.24240  0.21740  0.67400  Biso   1.000  H
  C88      1.0000 0.21893  0.24639  0.73084  Biso   1.000  C
  H67      1.0000 0.21770  0.26500  0.70210  Biso   1.000  H
  C89      1.0000 0.25586  0.16251  0.73953  Biso   1.000  C
  C90      1.0000 0.29313  0.18019  0.70417  Biso   1.000  C
  H68      1.0000 0.30560  0.20940  0.69220  Biso   1.000  H
  H69      1.0000 0.15750  0.05630  0.73060  Biso   1.000  H
  H70      1.0000 0.12200  0.03870  0.82460  Biso   1.000  H
  O21      1.0000 0.85805  0.63751  0.09828  Biso   1.000  O
  O22      1.0000 0.84461  0.61081  0.19274  Biso   1.000  O
  C91      1.0000 0.85707  0.61196  0.13980  Biso   1.000  C
  C92      1.0000 0.87253  0.58086  0.12177  Biso   1.000  C
  C93      1.0000 0.87472  0.55283  0.16532  Biso   1.000  C
  H71      1.0000 0.86637  0.55333  0.20503  Biso   1.000  H
  C94      1.0000 0.88939  0.52456  0.14842  Biso   1.000  C
  H72      1.0000 0.88967  0.50533  0.17693  Biso   1.000  H
  C95      1.0000 0.90333  0.52388  0.09170  Biso   1.000  C
  C96      1.0000 0.90078  0.55146  0.04705  Biso   1.000  C
  H73      1.0000 0.90907  0.55073  0.00733  Biso   1.000  H
  C97      1.0000 0.88560  0.57972  0.06417  Biso   1.000  C
  H74      1.0000 0.88437  0.59833  0.03543  Biso   1.000  H
  C98      1.0000 0.92253  0.49584  0.07286  Biso   1.000  C
  C99      1.0000 0.95980  0.51352  0.03750  Biso   1.000  C
  H75      1.0000 0.97227  0.54273  0.02553  Biso   1.000  H
  H76      1.0000 0.82417  0.38963  0.06393  Biso   1.000  H
  H77      1.0000 0.78867  0.37203  0.15793  Biso   1.000  H
  O23      1.0000 0.52471  0.97085  0.43162  Biso   1.000  O
  O24      1.0000 0.51127  0.94415  0.52608  Biso   1.000  O
  C100     1.0000 0.52373  0.94530  0.47314  Biso   1.000  C
  C101     1.0000 0.53919  0.91420  0.45511  Biso   1.000  C
  C102     1.0000 0.54138  0.88617  0.49866  Biso   1.000  C
  H78      1.0000 0.53303  0.88667  0.53837  Biso   1.000  H
  C103     1.0000 0.55605  0.85790  0.48176  Biso   1.000  C
  H79      1.0000 0.55633  0.83867  0.51027  Biso   1.000  H
  C104     1.0000 0.56999  0.85722  0.42504  Biso   1.000  C
  C105     1.0000 0.56744  0.88480  0.38039  Biso   1.000  C
  H80      1.0000 0.57573  0.88407  0.34067  Biso   1.000  H
  C106     1.0000 0.55226  0.91306  0.39751  Biso   1.000  C
  H81      1.0000 0.55103  0.93167  0.36877  Biso   1.000  H
  C107     1.0000 0.58919  0.82918  0.40620  Biso   1.000  C
  C108     1.0000 0.62646  0.84686  0.37084  Biso   1.000  C
  H82      1.0000 0.63893  0.87607  0.35887  Biso   1.000  H
  H83      1.0000 0.49083  0.72297  0.39727  Biso   1.000  H
  H84      1.0000 0.45533  0.70537  0.49127  Biso   1.000  H
  O25      1.0000 0.11280  0.80862  0.76495  Biso   1.000  O
  O26      1.0000 0.09954  0.82206  0.85941  Biso   1.000  O
  C109     1.0000 0.08823  0.80960  0.80647  Biso   1.000  C
  C110     1.0000 0.04167  0.79414  0.78844  Biso   1.000  C
  C111     1.0000 0.01145  0.79195  0.83199  Biso   1.000  C
  H85      1.0000 0.02030  0.80030  0.87170  Biso   1.000  H
  C112     1.0000 0.96851  0.77728  0.81509  Biso   1.000  C
  H86      1.0000 0.94900  0.77700  0.84360  Biso   1.000  H
  C113     1.0000 0.95389  0.76334  0.75837  Biso   1.000  C
  C114     1.0000 0.98402  0.76589  0.71372  Biso   1.000  C
  H87      1.0000 0.97500  0.75760  0.67400  Biso   1.000  H
  C115     1.0000 0.02746  0.78107  0.73084  Biso   1.000  C
  H88      1.0000 0.04730  0.78230  0.70210  Biso   1.000  H
  C116     1.0000 0.90665  0.74414  0.73953  Biso   1.000  C
  C117     1.0000 0.88706  0.70687  0.70417  Biso   1.000  C
  H89      1.0000 0.90380  0.69440  0.69220  Biso   1.000  H
  H90      1.0000 0.89880  0.84250  0.73060  Biso   1.000  H
  H91      1.0000 0.91670  0.87800  0.82460  Biso   1.000  H
  O27      1.0000 0.77947  0.14195  0.09828  Biso   1.000  O
  O28      1.0000 0.76621  0.15539  0.19274  Biso   1.000  O
  C118     1.0000 0.75490  0.14293  0.13980  Biso   1.000  C
  C119     1.0000 0.70834  0.12747  0.12177  Biso   1.000  C
  C120     1.0000 0.67812  0.12528  0.16532  Biso   1.000  C
  H92      1.0000 0.68697  0.13363  0.20503  Biso   1.000  H
  C121     1.0000 0.63518  0.11061  0.14842  Biso   1.000  C
  H93      1.0000 0.61567  0.11033  0.17693  Biso   1.000  H
  C122     1.0000 0.62056  0.09667  0.09170  Biso   1.000  C
  C123     1.0000 0.65069  0.09922  0.04705  Biso   1.000  C
  H94      1.0000 0.64167  0.09093  0.00733  Biso   1.000  H
  C124     1.0000 0.69413  0.11440  0.06417  Biso   1.000  C
  H95      1.0000 0.71397  0.11563  0.03543  Biso   1.000  H
  C125     1.0000 0.57332  0.07747  0.07286  Biso   1.000  C
  C126     1.0000 0.55373  0.04020  0.03750  Biso   1.000  C
  H96      1.0000 0.57047  0.02773  0.02553  Biso   1.000  H
  H97      1.0000 0.56547  0.17583  0.06393  Biso   1.000  H
  H98      1.0000 0.58337  0.21133  0.15793  Biso   1.000  H
  O29      1.0000 0.44613  0.47529  0.43162  Biso   1.000  O
  O30      1.0000 0.43287  0.48873  0.52608  Biso   1.000  O
  C127     1.0000 0.42156  0.47627  0.47314  Biso   1.000  C
  C128     1.0000 0.37500  0.46081  0.45511  Biso   1.000  C
  C129     1.0000 0.34478  0.45862  0.49866  Biso   1.000  C
  H99      1.0000 0.35363  0.46697  0.53837  Biso   1.000  H
  C130     1.0000 0.30184  0.44395  0.48176  Biso   1.000  C
  H100     1.0000 0.28233  0.44367  0.51027  Biso   1.000  H
  C131     1.0000 0.28722  0.43001  0.42504  Biso   1.000  C
  C132     1.0000 0.31735  0.43256  0.38039  Biso   1.000  C
  H101     1.0000 0.30833  0.42427  0.34067  Biso   1.000  H
  C133     1.0000 0.36079  0.44774  0.39751  Biso   1.000  C
  H102     1.0000 0.38063  0.44897  0.36877  Biso   1.000  H
  C134     1.0000 0.23998  0.41081  0.40620  Biso   1.000  C
  C135     1.0000 0.22039  0.37354  0.37084  Biso   1.000  C
  H103     1.0000 0.23713  0.36107  0.35887  Biso   1.000  H
  H104     1.0000 0.23213  0.50917  0.39727  Biso   1.000  H
  H105     1.0000 0.25003  0.54467  0.49127  Biso   1.000  H
  O31      1.0000 0.69582  0.88720  0.76495  Biso   1.000  O
  O32      1.0000 0.72252  0.90046  0.85941  Biso   1.000  O
  C136     1.0000 0.72137  0.91177  0.80647  Biso   1.000  C
  C137     1.0000 0.75247  0.95833  0.78844  Biso   1.000  C
  C138     1.0000 0.78050  0.98855  0.83199  Biso   1.000  C
  H106     1.0000 0.78000  0.97970  0.87170  Biso   1.000  H
  C139     1.0000 0.80877  0.03149  0.81509  Biso   1.000  C
  H107     1.0000 0.82800  0.05100  0.84360  Biso   1.000  H
  C140     1.0000 0.80945  0.04611  0.75837  Biso   1.000  C
  C141     1.0000 0.78187  0.01598  0.71372  Biso   1.000  C
  H108     1.0000 0.78260  0.02500  0.67400  Biso   1.000  H
  C142     1.0000 0.75361  0.97254  0.73084  Biso   1.000  C
  H109     1.0000 0.73500  0.95270  0.70210  Biso   1.000  H
  C143     1.0000 0.83749  0.09335  0.73953  Biso   1.000  C
  C144     1.0000 0.81981  0.11294  0.70417  Biso   1.000  C
  H110     1.0000 0.79060  0.09620  0.69220  Biso   1.000  H
  H111     1.0000 0.94370  0.10120  0.73060  Biso   1.000  H
  H112     1.0000 0.96130  0.08330  0.82460  Biso   1.000  H
  O33      1.0000 0.36249  0.22053  0.09828  Biso   1.000  O
  O34      1.0000 0.38919  0.23379  0.19274  Biso   1.000  O
  C145     1.0000 0.38804  0.24510  0.13980  Biso   1.000  C
  C146     1.0000 0.41914  0.29166  0.12177  Biso   1.000  C
  C147     1.0000 0.44717  0.32188  0.16532  Biso   1.000  C
  H113     1.0000 0.44667  0.31303  0.20503  Biso   1.000  H
  C148     1.0000 0.47544  0.36482  0.14842  Biso   1.000  C
  H114     1.0000 0.49467  0.38433  0.17693  Biso   1.000  H
  C149     1.0000 0.47612  0.37944  0.09170  Biso   1.000  C
  C150     1.0000 0.44854  0.34931  0.04705  Biso   1.000  C
  H115     1.0000 0.44927  0.35833  0.00733  Biso   1.000  H
  C151     1.0000 0.42028  0.30587  0.06417  Biso   1.000  C
  H116     1.0000 0.40167  0.28603  0.03543  Biso   1.000  H
  C152     1.0000 0.50416  0.42668  0.07286  Biso   1.000  C
  C153     1.0000 0.48648  0.44627  0.03750  Biso   1.000  C
  H117     1.0000 0.45727  0.42953  0.02553  Biso   1.000  H
  H118     1.0000 0.61037  0.43453  0.06393  Biso   1.000  H
  H119     1.0000 0.62797  0.41663  0.15793  Biso   1.000  H
  O35      1.0000 0.02915  0.55387  0.43162  Biso   1.000  O
  O36      1.0000 0.05585  0.56713  0.52608  Biso   1.000  O
  C154     1.0000 0.05470  0.57844  0.47314  Biso   1.000  C
  C155     1.0000 0.08580  0.62500  0.45511  Biso   1.000  C
  C156     1.0000 0.11383  0.65522  0.49866  Biso   1.000  C
  H120     1.0000 0.11333  0.64637  0.53837  Biso   1.000  H
  C157     1.0000 0.14210  0.69816  0.48176  Biso   1.000  C
  H121     1.0000 0.16133  0.71767  0.51027  Biso   1.000  H
  C158     1.0000 0.14278  0.71278  0.42504  Biso   1.000  C
  C159     1.0000 0.11520  0.68265  0.38039  Biso   1.000  C
  H122     1.0000 0.11593  0.69167  0.34067  Biso   1.000  H
  C160     1.0000 0.08694  0.63921  0.39751  Biso   1.000  C
  H123     1.0000 0.06833  0.61937  0.36877  Biso   1.000  H
  C161     1.0000 0.17082  0.76002  0.40620  Biso   1.000  C
  C162     1.0000 0.15314  0.77961  0.37084  Biso   1.000  C
  H124     1.0000 0.12393  0.76287  0.35887  Biso   1.000  H
  H125     1.0000 0.27703  0.76787  0.39727  Biso   1.000  H
  H126     1.0000 0.29463  0.74997  0.49127  Biso   1.000  H
  O37      1.0000 0.69582  0.80862  0.76495  Biso   1.000  O
  O38      1.0000 0.72252  0.82206  0.85941  Biso   1.000  O
  C163     1.0000 0.72137  0.80960  0.80647  Biso   1.000  C
  C164     1.0000 0.75247  0.79414  0.78844  Biso   1.000  C
  C165     1.0000 0.78050  0.79195  0.83199  Biso   1.000  C
  H127     1.0000 0.78000  0.80030  0.87170  Biso   1.000  H
  C166     1.0000 0.80877  0.77728  0.81509  Biso   1.000  C
  H128     1.0000 0.82800  0.77700  0.84360  Biso   1.000  H
  C167     1.0000 0.80945  0.76334  0.75837  Biso   1.000  C
  C168     1.0000 0.78187  0.76589  0.71372  Biso   1.000  C
  H129     1.0000 0.78260  0.75760  0.67400  Biso   1.000  H
  C169     1.0000 0.75361  0.78107  0.73084  Biso   1.000  C
  H130     1.0000 0.73500  0.78230  0.70210  Biso   1.000  H
  C170     1.0000 0.83749  0.74414  0.73953  Biso   1.000  C
  C171     1.0000 0.81981  0.70687  0.70417  Biso   1.000  C
  H131     1.0000 0.79060  0.69440  0.69220  Biso   1.000  H
  H132     1.0000 0.94370  0.84250  0.73060  Biso   1.000  H
  H133     1.0000 0.96130  0.87800  0.82460  Biso   1.000  H
  O39      1.0000 0.36249  0.14195  0.09828  Biso   1.000  O
  O40      1.0000 0.38919  0.15539  0.19274  Biso   1.000  O
  C172     1.0000 0.38804  0.14293  0.13980  Biso   1.000  C
  C173     1.0000 0.41914  0.12747  0.12177  Biso   1.000  C
  C174     1.0000 0.44717  0.12528  0.16532  Biso   1.000  C
  H134     1.0000 0.44667  0.13363  0.20503  Biso   1.000  H
  C175     1.0000 0.47544  0.11061  0.14842  Biso   1.000  C
  H135     1.0000 0.49467  0.11033  0.17693  Biso   1.000  H
  C176     1.0000 0.47612  0.09667  0.09170  Biso   1.000  C
  C177     1.0000 0.44854  0.09922  0.04705  Biso   1.000  C
  H136     1.0000 0.44927  0.09093  0.00733  Biso   1.000  H
  C178     1.0000 0.42028  0.11440  0.06417  Biso   1.000  C
  H137     1.0000 0.40167  0.11563  0.03543  Biso   1.000  H
  C179     1.0000 0.50416  0.07747  0.07286  Biso   1.000  C
  C180     1.0000 0.48648  0.04020  0.03750  Biso   1.000  C
  H138     1.0000 0.45727  0.02773  0.02553  Biso   1.000  H
  H139     1.0000 0.61037  0.17583  0.06393  Biso   1.000  H
  H140     1.0000 0.62797  0.21133  0.15793  Biso   1.000  H
  O41      1.0000 0.02915  0.47529  0.43162  Biso   1.000  O
  O42      1.0000 0.05585  0.48873  0.52608  Biso   1.000  O
  C181     1.0000 0.05470  0.47627  0.47314  Biso   1.000  C
  C182     1.0000 0.08580  0.46081  0.45511  Biso   1.000  C
  C183     1.0000 0.11383  0.45862  0.49866  Biso   1.000  C
  H141     1.0000 0.11333  0.46697  0.53837  Biso   1.000  H
  C184     1.0000 0.14210  0.44395  0.48176  Biso   1.000  C
  H142     1.0000 0.16133  0.44367  0.51027  Biso   1.000  H
  C185     1.0000 0.14278  0.43001  0.42504  Biso   1.000  C
  C186     1.0000 0.11520  0.43256  0.38039  Biso   1.000  C
  H143     1.0000 0.11593  0.42427  0.34067  Biso   1.000  H
  C187     1.0000 0.08694  0.44774  0.39751  Biso   1.000  C
  H144     1.0000 0.06833  0.44897  0.36877  Biso   1.000  H
  C188     1.0000 0.17082  0.41081  0.40620  Biso   1.000  C
  C189     1.0000 0.15314  0.37354  0.37084  Biso   1.000  C
  H145     1.0000 0.12393  0.36107  0.35887  Biso   1.000  H
  H146     1.0000 0.27703  0.50917  0.39727  Biso   1.000  H
  H147     1.0000 0.29463  0.54467  0.49127  Biso   1.000  H
  O43      1.0000 0.19138  0.88720  0.76495  Biso   1.000  O
  O44      1.0000 0.17794  0.90046  0.85941  Biso   1.000  O
  C190     1.0000 0.19040  0.91177  0.80647  Biso   1.000  C
  C191     1.0000 0.20586  0.95833  0.78844  Biso   1.000  C
  C192     1.0000 0.20805  0.98855  0.83199  Biso   1.000  C
  H148     1.0000 0.19970  0.97970  0.87170  Biso   1.000  H
  C193     1.0000 0.22272  0.03149  0.81509  Biso   1.000  C
  H149     1.0000 0.22300  0.05100  0.84360  Biso   1.000  H
  C194     1.0000 0.23666  0.04611  0.75837  Biso   1.000  C
  C195     1.0000 0.23411  0.01598  0.71372  Biso   1.000  C
  H150     1.0000 0.24240  0.02500  0.67400  Biso   1.000  H
  C196     1.0000 0.21893  0.97254  0.73084  Biso   1.000  C
  H151     1.0000 0.21770  0.95270  0.70210  Biso   1.000  H
  C197     1.0000 0.25586  0.09335  0.73953  Biso   1.000  C
  C198     1.0000 0.29313  0.11294  0.70417  Biso   1.000  C
  H152     1.0000 0.30560  0.09620  0.69220  Biso   1.000  H
  H153     1.0000 0.15750  0.10120  0.73060  Biso   1.000  H
  H154     1.0000 0.12200  0.08330  0.82460  Biso   1.000  H
  O45      1.0000 0.85805  0.22053  0.09828  Biso   1.000  O
  O46      1.0000 0.84461  0.23379  0.19274  Biso   1.000  O
  C199     1.0000 0.85707  0.24510  0.13980  Biso   1.000  C
  C200     1.0000 0.87253  0.29166  0.12177  Biso   1.000  C
  C201     1.0000 0.87472  0.32188  0.16532  Biso   1.000  C
  H155     1.0000 0.86637  0.31303  0.20503  Biso   1.000  H
  C202     1.0000 0.88939  0.36482  0.14842  Biso   1.000  C
  H156     1.0000 0.88967  0.38433  0.17693  Biso   1.000  H
  C203     1.0000 0.90333  0.37944  0.09170  Biso   1.000  C
  C204     1.0000 0.90078  0.34931  0.04705  Biso   1.000  C
  H157     1.0000 0.90907  0.35833  0.00733  Biso   1.000  H
  C205     1.0000 0.88560  0.30587  0.06417  Biso   1.000  C
  H158     1.0000 0.88437  0.28603  0.03543  Biso   1.000  H
  C206     1.0000 0.92253  0.42668  0.07286  Biso   1.000  C
  C207     1.0000 0.95980  0.44627  0.03750  Biso   1.000  C
  H159     1.0000 0.97227  0.42953  0.02553  Biso   1.000  H
  H160     1.0000 0.82417  0.43453  0.06393  Biso   1.000  H
  H161     1.0000 0.78867  0.41663  0.15793  Biso   1.000  H
  O47      1.0000 0.52471  0.55387  0.43162  Biso   1.000  O
  O48      1.0000 0.51127  0.56713  0.52608  Biso   1.000  O
  C208     1.0000 0.52373  0.57844  0.47314  Biso   1.000  C
  C209     1.0000 0.53919  0.62500  0.45511  Biso   1.000  C
  C210     1.0000 0.54138  0.65522  0.49866  Biso   1.000  C
  H162     1.0000 0.53303  0.64637  0.53837  Biso   1.000  H
  C211     1.0000 0.55605  0.69816  0.48176  Biso   1.000  C
  H163     1.0000 0.55633  0.71767  0.51027  Biso   1.000  H
  C212     1.0000 0.56999  0.71278  0.42504  Biso   1.000  C
  C213     1.0000 0.56744  0.68265  0.38039  Biso   1.000  C
  H164     1.0000 0.57573  0.69167  0.34067  Biso   1.000  H
  C214     1.0000 0.55226  0.63921  0.39751  Biso   1.000  C
  H165     1.0000 0.55103  0.61937  0.36877  Biso   1.000  H
  C215     1.0000 0.58919  0.76002  0.40620  Biso   1.000  C
  C216     1.0000 0.62646  0.77961  0.37084  Biso   1.000  C
  H166     1.0000 0.63893  0.76287  0.35887  Biso   1.000  H
  H167     1.0000 0.49083  0.76787  0.39727  Biso   1.000  H
  H168     1.0000 0.45533  0.74997  0.49127  Biso   1.000  H
  O49      1.0000 0.11280  0.30418  0.76495  Biso   1.000  O
  O50      1.0000 0.09954  0.27748  0.85941  Biso   1.000  O
  C217     1.0000 0.08823  0.27863  0.80647  Biso   1.000  C
  C218     1.0000 0.04167  0.24753  0.78844  Biso   1.000  C
  C219     1.0000 0.01145  0.21950  0.83199  Biso   1.000  C
  H169     1.0000 0.02030  0.22000  0.87170  Biso   1.000  H
  C220     1.0000 0.96851  0.19123  0.81509  Biso   1.000  C
  H170     1.0000 0.94900  0.17200  0.84360  Biso   1.000  H
  C221     1.0000 0.95389  0.19055  0.75837  Biso   1.000  C
  C222     1.0000 0.98402  0.21813  0.71372  Biso   1.000  C
  H171     1.0000 0.97500  0.21740  0.67400  Biso   1.000  H
  C223     1.0000 0.02746  0.24639  0.73084  Biso   1.000  C
  H172     1.0000 0.04730  0.26500  0.70210  Biso   1.000  H
  C224     1.0000 0.90665  0.16251  0.73953  Biso   1.000  C
  C225     1.0000 0.88706  0.18019  0.70417  Biso   1.000  C
  H173     1.0000 0.90380  0.20940  0.69220  Biso   1.000  H
  H174     1.0000 0.89880  0.05630  0.73060  Biso   1.000  H
  H175     1.0000 0.91670  0.03870  0.82460  Biso   1.000  H
  O51      1.0000 0.77947  0.63751  0.09828  Biso   1.000  O
  O52      1.0000 0.76621  0.61081  0.19274  Biso   1.000  O
  C226     1.0000 0.75490  0.61196  0.13980  Biso   1.000  C
  C227     1.0000 0.70834  0.58086  0.12177  Biso   1.000  C
  C228     1.0000 0.67812  0.55283  0.16532  Biso   1.000  C
  H176     1.0000 0.68697  0.55333  0.20503  Biso   1.000  H
  C229     1.0000 0.63518  0.52456  0.14842  Biso   1.000  C
  H177     1.0000 0.61567  0.50533  0.17693  Biso   1.000  H
  C230     1.0000 0.62056  0.52388  0.09170  Biso   1.000  C
  C231     1.0000 0.65069  0.55146  0.04705  Biso   1.000  C
  H178     1.0000 0.64167  0.55073  0.00733  Biso   1.000  H
  C232     1.0000 0.69413  0.57972  0.06417  Biso   1.000  C
  H179     1.0000 0.71397  0.59833  0.03543  Biso   1.000  H
  C233     1.0000 0.57332  0.49584  0.07286  Biso   1.000  C
  C234     1.0000 0.55373  0.51352  0.03750  Biso   1.000  C
  H180     1.0000 0.57047  0.54273  0.02553  Biso   1.000  H
  H181     1.0000 0.56547  0.38963  0.06393  Biso   1.000  H
  H182     1.0000 0.58337  0.37203  0.15793  Biso   1.000  H
  O53      1.0000 0.44613  0.97085  0.43162  Biso   1.000  O
  O54      1.0000 0.43287  0.94415  0.52608  Biso   1.000  O
  C235     1.0000 0.42156  0.94530  0.47314  Biso   1.000  C
  C236     1.0000 0.37500  0.91420  0.45511  Biso   1.000  C
  C237     1.0000 0.34478  0.88617  0.49866  Biso   1.000  C
  H183     1.0000 0.35363  0.88667  0.53837  Biso   1.000  H
  C238     1.0000 0.30184  0.85790  0.48176  Biso   1.000  C
  H184     1.0000 0.28233  0.83867  0.51027  Biso   1.000  H
  C239     1.0000 0.28722  0.85722  0.42504  Biso   1.000  C
  C240     1.0000 0.31735  0.88480  0.38039  Biso   1.000  C
  H185     1.0000 0.30833  0.88407  0.34067  Biso   1.000  H
  C241     1.0000 0.36079  0.91306  0.39751  Biso   1.000  C
  H186     1.0000 0.38063  0.93167  0.36877  Biso   1.000  H
  C242     1.0000 0.23998  0.82918  0.40620  Biso   1.000  C
  C243     1.0000 0.22039  0.84686  0.37084  Biso   1.000  C
  H187     1.0000 0.23713  0.87607  0.35887  Biso   1.000  H
  H188     1.0000 0.23213  0.72297  0.39727  Biso   1.000  H
  H189     1.0000 0.25003  0.70537  0.49127  Biso   1.000  H
  O55      1.0000 0.80862  0.69582  0.23505  Biso   1.000  O
  O56      1.0000 0.82206  0.72252  0.14059  Biso   1.000  O
  C244     1.0000 0.80960  0.72137  0.19353  Biso   1.000  C
  C245     1.0000 0.79414  0.75247  0.21156  Biso   1.000  C
  C246     1.0000 0.79195  0.78050  0.16801  Biso   1.000  C
  H190     1.0000 0.80030  0.78000  0.12830  Biso   1.000  H
  C247     1.0000 0.77728  0.80877  0.18491  Biso   1.000  C
  H191     1.0000 0.77700  0.82800  0.15640  Biso   1.000  H
  C248     1.0000 0.76334  0.80945  0.24163  Biso   1.000  C
  C249     1.0000 0.76589  0.78187  0.28628  Biso   1.000  C
  H192     1.0000 0.75760  0.78260  0.32600  Biso   1.000  H
  C250     1.0000 0.78107  0.75361  0.26916  Biso   1.000  C
  H193     1.0000 0.78230  0.73500  0.29790  Biso   1.000  H
  C251     1.0000 0.74414  0.83749  0.26047  Biso   1.000  C
  C252     1.0000 0.70687  0.81981  0.29583  Biso   1.000  C
  H194     1.0000 0.69440  0.79060  0.30780  Biso   1.000  H
  H195     1.0000 0.84250  0.94370  0.26940  Biso   1.000  H
  H196     1.0000 0.87800  0.96130  0.17540  Biso   1.000  H
  O57      1.0000 0.47529  0.02915  0.56838  Biso   1.000  O
  O58      1.0000 0.48873  0.05585  0.47392  Biso   1.000  O
  C253     1.0000 0.47627  0.05470  0.52686  Biso   1.000  C
  C254     1.0000 0.46081  0.08580  0.54489  Biso   1.000  C
  C255     1.0000 0.45862  0.11383  0.50134  Biso   1.000  C
  H197     1.0000 0.46697  0.11333  0.46163  Biso   1.000  H
  C256     1.0000 0.44395  0.14210  0.51824  Biso   1.000  C
  H198     1.0000 0.44367  0.16133  0.48973  Biso   1.000  H
  C257     1.0000 0.43001  0.14278  0.57496  Biso   1.000  C
  C258     1.0000 0.43256  0.11520  0.61961  Biso   1.000  C
  H199     1.0000 0.42427  0.11593  0.65933  Biso   1.000  H
  C259     1.0000 0.44774  0.08694  0.60249  Biso   1.000  C
  H200     1.0000 0.44897  0.06833  0.63123  Biso   1.000  H
  C260     1.0000 0.41081  0.17082  0.59380  Biso   1.000  C
  C261     1.0000 0.37354  0.15314  0.62916  Biso   1.000  C
  H201     1.0000 0.36107  0.12393  0.64113  Biso   1.000  H
  H202     1.0000 0.50917  0.27703  0.60273  Biso   1.000  H
  H203     1.0000 0.54467  0.29463  0.50873  Biso   1.000  H
  O59      1.0000 0.14195  0.36249  0.90172  Biso   1.000  O
  O60      1.0000 0.15539  0.38919  0.80726  Biso   1.000  O
  C262     1.0000 0.14293  0.38804  0.86020  Biso   1.000  C
  C263     1.0000 0.12747  0.41914  0.87823  Biso   1.000  C
  C264     1.0000 0.12528  0.44717  0.83468  Biso   1.000  C
  H204     1.0000 0.13363  0.44667  0.79497  Biso   1.000  H
  C265     1.0000 0.11061  0.47544  0.85158  Biso   1.000  C
  H205     1.0000 0.11033  0.49467  0.82307  Biso   1.000  H
  C266     1.0000 0.09667  0.47612  0.90830  Biso   1.000  C
  C267     1.0000 0.09922  0.44854  0.95295  Biso   1.000  C
  H206     1.0000 0.09093  0.44927  0.99267  Biso   1.000  H
  C268     1.0000 0.11440  0.42028  0.93583  Biso   1.000  C
  H207     1.0000 0.11563  0.40167  0.96457  Biso   1.000  H
  C269     1.0000 0.07747  0.50416  0.92714  Biso   1.000  C
  C270     1.0000 0.04020  0.48648  0.96250  Biso   1.000  C
  H208     1.0000 0.02773  0.45727  0.97447  Biso   1.000  H
  H209     1.0000 0.17583  0.61037  0.93607  Biso   1.000  H
  H210     1.0000 0.21133  0.62797  0.84207  Biso   1.000  H
  O61      1.0000 0.88720  0.19138  0.23505  Biso   1.000  O
  O62      1.0000 0.90046  0.17794  0.14059  Biso   1.000  O
  C271     1.0000 0.91177  0.19040  0.19353  Biso   1.000  C
  C272     1.0000 0.95833  0.20586  0.21156  Biso   1.000  C
  C273     1.0000 0.98855  0.20805  0.16801  Biso   1.000  C
  H211     1.0000 0.97970  0.19970  0.12830  Biso   1.000  H
  C274     1.0000 0.03149  0.22272  0.18491  Biso   1.000  C
  H212     1.0000 0.05100  0.22300  0.15640  Biso   1.000  H
  C275     1.0000 0.04611  0.23666  0.24163  Biso   1.000  C
  C276     1.0000 0.01598  0.23411  0.28628  Biso   1.000  C
  H213     1.0000 0.02500  0.24240  0.32600  Biso   1.000  H
  C277     1.0000 0.97254  0.21893  0.26916  Biso   1.000  C
  H214     1.0000 0.95270  0.21770  0.29790  Biso   1.000  H
  C278     1.0000 0.09335  0.25586  0.26047  Biso   1.000  C
  C279     1.0000 0.11294  0.29313  0.29583  Biso   1.000  C
  H215     1.0000 0.09620  0.30560  0.30780  Biso   1.000  H
  H216     1.0000 0.10120  0.15750  0.26940  Biso   1.000  H
  H217     1.0000 0.08330  0.12200  0.17540  Biso   1.000  H
  O63      1.0000 0.55387  0.52471  0.56838  Biso   1.000  O
  O64      1.0000 0.56713  0.51127  0.47392  Biso   1.000  O
  C280     1.0000 0.57844  0.52373  0.52686  Biso   1.000  C
  C281     1.0000 0.62500  0.53919  0.54489  Biso   1.000  C
  C282     1.0000 0.65522  0.54138  0.50134  Biso   1.000  C
  H218     1.0000 0.64637  0.53303  0.46163  Biso   1.000  H
  C283     1.0000 0.69816  0.55605  0.51824  Biso   1.000  C
  H219     1.0000 0.71767  0.55633  0.48973  Biso   1.000  H
  C284     1.0000 0.71278  0.56999  0.57496  Biso   1.000  C
  C285     1.0000 0.68265  0.56744  0.61961  Biso   1.000  C
  H220     1.0000 0.69167  0.57573  0.65933  Biso   1.000  H
  C286     1.0000 0.63921  0.55226  0.60249  Biso   1.000  C
  H221     1.0000 0.61937  0.55103  0.63123  Biso   1.000  H
  C287     1.0000 0.76002  0.58919  0.59380  Biso   1.000  C
  C288     1.0000 0.77961  0.62646  0.62916  Biso   1.000  C
  H222     1.0000 0.76287  0.63893  0.64113  Biso   1.000  H
  H223     1.0000 0.76787  0.49083  0.60273  Biso   1.000  H
  H224     1.0000 0.74997  0.45533  0.50873  Biso   1.000  H
  O65      1.0000 0.22053  0.85805  0.90172  Biso   1.000  O
  O66      1.0000 0.23379  0.84461  0.80726  Biso   1.000  O
  C289     1.0000 0.24510  0.85707  0.86020  Biso   1.000  C
  C290     1.0000 0.29166  0.87253  0.87823  Biso   1.000  C
  C291     1.0000 0.32188  0.87472  0.83468  Biso   1.000  C
  H225     1.0000 0.31303  0.86637  0.79497  Biso   1.000  H
  C292     1.0000 0.36482  0.88939  0.85158  Biso   1.000  C
  H226     1.0000 0.38433  0.88967  0.82307  Biso   1.000  H
  C293     1.0000 0.37944  0.90333  0.90830  Biso   1.000  C
  C294     1.0000 0.34931  0.90078  0.95295  Biso   1.000  C
  H227     1.0000 0.35833  0.90907  0.99267  Biso   1.000  H
  C295     1.0000 0.30587  0.88560  0.93583  Biso   1.000  C
  H228     1.0000 0.28603  0.88437  0.96457  Biso   1.000  H
  C296     1.0000 0.42668  0.92253  0.92714  Biso   1.000  C
  C297     1.0000 0.44627  0.95980  0.96250  Biso   1.000  C
  H229     1.0000 0.42953  0.97227  0.97447  Biso   1.000  H
  H230     1.0000 0.43453  0.82417  0.93607  Biso   1.000  H
  H231     1.0000 0.41663  0.78867  0.84207  Biso   1.000  H
  O67      1.0000 0.30418  0.11280  0.23505  Biso   1.000  O
  O68      1.0000 0.27748  0.09954  0.14059  Biso   1.000  O
  C298     1.0000 0.27863  0.08823  0.19353  Biso   1.000  C
  C299     1.0000 0.24753  0.04167  0.21156  Biso   1.000  C
  C300     1.0000 0.21950  0.01145  0.16801  Biso   1.000  C
  H232     1.0000 0.22000  0.02030  0.12830  Biso   1.000  H
  C301     1.0000 0.19123  0.96851  0.18491  Biso   1.000  C
  H233     1.0000 0.17200  0.94900  0.15640  Biso   1.000  H
  C302     1.0000 0.19055  0.95389  0.24163  Biso   1.000  C
  C303     1.0000 0.21813  0.98402  0.28628  Biso   1.000  C
  H234     1.0000 0.21740  0.97500  0.32600  Biso   1.000  H
  C304     1.0000 0.24639  0.02746  0.26916  Biso   1.000  C
  H235     1.0000 0.26500  0.04730  0.29790  Biso   1.000  H
  C305     1.0000 0.16251  0.90665  0.26047  Biso   1.000  C
  C306     1.0000 0.18019  0.88706  0.29583  Biso   1.000  C
  H236     1.0000 0.20940  0.90380  0.30780  Biso   1.000  H
  H237     1.0000 0.05630  0.89880  0.26940  Biso   1.000  H
  H238     1.0000 0.03870  0.91670  0.17540  Biso   1.000  H
  O69      1.0000 0.97085  0.44613  0.56838  Biso   1.000  O
  O70      1.0000 0.94415  0.43287  0.47392  Biso   1.000  O
  C307     1.0000 0.94530  0.42156  0.52686  Biso   1.000  C
  C308     1.0000 0.91420  0.37500  0.54489  Biso   1.000  C
  C309     1.0000 0.88617  0.34478  0.50134  Biso   1.000  C
  H239     1.0000 0.88667  0.35363  0.46163  Biso   1.000  H
  C310     1.0000 0.85790  0.30184  0.51824  Biso   1.000  C
  H240     1.0000 0.83867  0.28233  0.48973  Biso   1.000  H
  C311     1.0000 0.85722  0.28722  0.57496  Biso   1.000  C
  C312     1.0000 0.88480  0.31735  0.61961  Biso   1.000  C
  H241     1.0000 0.88407  0.30833  0.65933  Biso   1.000  H
  C313     1.0000 0.91306  0.36079  0.60249  Biso   1.000  C
  H242     1.0000 0.93167  0.38063  0.63123  Biso   1.000  H
  C314     1.0000 0.82918  0.23998  0.59380  Biso   1.000  C
  C315     1.0000 0.84686  0.22039  0.62916  Biso   1.000  C
  H243     1.0000 0.87607  0.23713  0.64113  Biso   1.000  H
  H244     1.0000 0.72297  0.23213  0.60273  Biso   1.000  H
  H245     1.0000 0.70537  0.25003  0.50873  Biso   1.000  H
  O71      1.0000 0.63751  0.77947  0.90172  Biso   1.000  O
  O72      1.0000 0.61081  0.76621  0.80726  Biso   1.000  O
  C316     1.0000 0.61196  0.75490  0.86020  Biso   1.000  C
  C317     1.0000 0.58086  0.70834  0.87823  Biso   1.000  C
  C318     1.0000 0.55283  0.67812  0.83468  Biso   1.000  C
  H246     1.0000 0.55333  0.68697  0.79497  Biso   1.000  H
  C319     1.0000 0.52456  0.63518  0.85158  Biso   1.000  C
  H247     1.0000 0.50533  0.61567  0.82307  Biso   1.000  H
  C320     1.0000 0.52388  0.62056  0.90830  Biso   1.000  C
  C321     1.0000 0.55146  0.65069  0.95295  Biso   1.000  C
  H248     1.0000 0.55073  0.64167  0.99267  Biso   1.000  H
  C322     1.0000 0.57972  0.69413  0.93583  Biso   1.000  C
  H249     1.0000 0.59833  0.71397  0.96457  Biso   1.000  H
  C323     1.0000 0.49584  0.57332  0.92714  Biso   1.000  C
  C324     1.0000 0.51352  0.55373  0.96250  Biso   1.000  C
  H250     1.0000 0.54273  0.57047  0.97447  Biso   1.000  H
  H251     1.0000 0.38963  0.56547  0.93607  Biso   1.000  H
  H252     1.0000 0.37203  0.58337  0.84207  Biso   1.000  H
  Cu1      1.0000 0.31795  0.15897  0.11097  Biso   1.000  Cu
  Cu2      1.0000 0.98462  0.49231  0.44430  Biso   1.000  Cu
  Cu3      1.0000 0.65128  0.82564  0.77764  Biso   1.000  Cu
  Cu4      1.0000 0.84103  0.15897  0.11097  Biso   1.000  Cu
  Cu5      1.0000 0.50769  0.49231  0.44430  Biso   1.000  Cu
  Cu6      1.0000 0.17436  0.82564  0.77764  Biso   1.000  Cu
  Cu7      1.0000 0.84103  0.68205  0.11097  Biso   1.000  Cu
  Cu8      1.0000 0.50769  0.01538  0.44430  Biso   1.000  Cu
  Cu9      1.0000 0.17436  0.34872  0.77764  Biso   1.000  Cu
  Cu10     1.0000 0.15897  0.31795  0.88903  Biso   1.000  Cu
  Cu11     1.0000 0.82564  0.65128  0.22236  Biso   1.000  Cu
  Cu12     1.0000 0.49231  0.98462  0.55570  Biso   1.000  Cu
  Cu13     1.0000 0.15897  0.84103  0.88903  Biso   1.000  Cu
  Cu14     1.0000 0.82564  0.17436  0.22236  Biso   1.000  Cu
  Cu15     1.0000 0.49231  0.50769  0.55570  Biso   1.000  Cu
  Cu16     1.0000 0.68205  0.84103  0.88903  Biso   1.000  Cu
  Cu17     1.0000 0.34872  0.17436  0.22236  Biso   1.000  Cu
  Cu18     1.0000 0.01538  0.50769  0.55570  Biso   1.000  Cu
  O73      1.0000 0.09941  0.19883  0.20821  Biso   1.000  O
  C325     1.0000 0.15649  0.31299  0.31450  Biso   1.000  C
  C326     1.0000 0.11832  0.23665  0.24300  Biso   1.000  C
  C327     1.0000 0.07933  0.15865  0.24390  Biso   1.000  C
  C328     1.0000 0.06030  0.12060  0.20030  Biso   1.000  C
  H253     1.0000 0.04670  0.09340  0.22250  Biso   1.000  H
  O74      1.0000 0.76608  0.53216  0.54154  Biso   1.000  O
  C329     1.0000 0.82316  0.64632  0.64783  Biso   1.000  C
  C330     1.0000 0.78499  0.56998  0.57633  Biso   1.000  C
  C331     1.0000 0.74599  0.49198  0.57723  Biso   1.000  C
  C332     1.0000 0.72697  0.45393  0.53363  Biso   1.000  C
  H254     1.0000 0.71337  0.42673  0.55583  Biso   1.000  H
  O75      1.0000 0.43275  0.86550  0.87488  Biso   1.000  O
  C333     1.0000 0.48983  0.97966  0.98117  Biso   1.000  C
  C334     1.0000 0.45166  0.90332  0.90967  Biso   1.000  C
  C335     1.0000 0.41266  0.82532  0.91057  Biso   1.000  C
  C336     1.0000 0.39363  0.78727  0.86697  Biso   1.000  C
  H255     1.0000 0.38003  0.76007  0.88917  Biso   1.000  H
  O76      1.0000 0.80117  0.90059  0.20821  Biso   1.000  O
  C337     1.0000 0.68701  0.84351  0.31450  Biso   1.000  C
  C338     1.0000 0.76335  0.88167  0.24300  Biso   1.000  C
  C339     1.0000 0.84135  0.92067  0.24390  Biso   1.000  C
  C340     1.0000 0.87940  0.93970  0.20030  Biso   1.000  C
  H256     1.0000 0.90660  0.95330  0.22250  Biso   1.000  H
  O77      1.0000 0.46784  0.23392  0.54154  Biso   1.000  O
  C341     1.0000 0.35368  0.17684  0.64783  Biso   1.000  C
  C342     1.0000 0.43002  0.21501  0.57633  Biso   1.000  C
  C343     1.0000 0.50802  0.25401  0.57723  Biso   1.000  C
  C344     1.0000 0.54607  0.27303  0.53363  Biso   1.000  C
  H257     1.0000 0.57327  0.28663  0.55583  Biso   1.000  H
  O78      1.0000 0.13450  0.56725  0.87488  Biso   1.000  O
  C345     1.0000 0.02034  0.51017  0.98117  Biso   1.000  C
  C346     1.0000 0.09668  0.54834  0.90967  Biso   1.000  C
  C347     1.0000 0.17468  0.58734  0.91057  Biso   1.000  C
  C348     1.0000 0.21273  0.60637  0.86697  Biso   1.000  C
  H258     1.0000 0.23993  0.61997  0.88917  Biso   1.000  H
  O79      1.0000 0.09941  0.90059  0.20821  Biso   1.000  O
  C349     1.0000 0.15649  0.84351  0.31450  Biso   1.000  C
  C350     1.0000 0.11832  0.88168  0.24300  Biso   1.000  C
  C351     1.0000 0.07933  0.92067  0.24390  Biso   1.000  C
  C352     1.0000 0.06030  0.93970  0.20030  Biso   1.000  C
  H259     1.0000 0.04670  0.95330  0.22250  Biso   1.000  H
  O80      1.0000 0.76608  0.23392  0.54154  Biso   1.000  O
  C353     1.0000 0.82316  0.17684  0.64783  Biso   1.000  C
  C354     1.0000 0.78499  0.21501  0.57633  Biso   1.000  C
  C355     1.0000 0.74599  0.25401  0.57723  Biso   1.000  C
  C356     1.0000 0.72697  0.27303  0.53363  Biso   1.000  C
  H260     1.0000 0.71337  0.28663  0.55583  Biso   1.000  H
  O81      1.0000 0.43275  0.56725  0.87488  Biso   1.000  O
  C357     1.0000 0.48983  0.51017  0.98117  Biso   1.000  C
  C358     1.0000 0.45166  0.54834  0.90967  Biso   1.000  C
  C359     1.0000 0.41266  0.58734  0.91057  Biso   1.000  C
  C360     1.0000 0.39363  0.60637  0.86697  Biso   1.000  C
  H261     1.0000 0.38003  0.61997  0.88917  Biso   1.000  H
  O82      1.0000 0.19883  0.09941  0.79179  Biso   1.000  O
  C361     1.0000 0.31299  0.15649  0.68550  Biso   1.000  C
  C362     1.0000 0.23665  0.11832  0.75700  Biso   1.000  C
  C363     1.0000 0.15865  0.07933  0.75610  Biso   1.000  C
  C364     1.0000 0.12060  0.06030  0.79970  Biso   1.000  C
  H262     1.0000 0.09340  0.04670  0.77750  Biso   1.000  H
  O83      1.0000 0.86550  0.43275  0.12512  Biso   1.000  O
  C365     1.0000 0.97966  0.48983  0.01883  Biso   1.000  C
  C366     1.0000 0.90332  0.45166  0.09033  Biso   1.000  C
  C367     1.0000 0.82532  0.41266  0.08943  Biso   1.000  C
  C368     1.0000 0.78727  0.39363  0.13303  Biso   1.000  C
  H263     1.0000 0.76007  0.38003  0.11083  Biso   1.000  H
  O84      1.0000 0.53216  0.76608  0.45846  Biso   1.000  O
  C369     1.0000 0.64632  0.82316  0.35217  Biso   1.000  C
  C370     1.0000 0.56998  0.78499  0.42367  Biso   1.000  C
  C371     1.0000 0.49198  0.74599  0.42277  Biso   1.000  C
  C372     1.0000 0.45393  0.72697  0.46637  Biso   1.000  C
  H264     1.0000 0.42673  0.71337  0.44417  Biso   1.000  H
  O85      1.0000 0.90059  0.80117  0.79179  Biso   1.000  O
  C373     1.0000 0.84351  0.68701  0.68550  Biso   1.000  C
  C374     1.0000 0.88168  0.76335  0.75700  Biso   1.000  C
  C375     1.0000 0.92068  0.84135  0.75610  Biso   1.000  C
  C376     1.0000 0.93970  0.87940  0.79970  Biso   1.000  C
  H265     1.0000 0.95330  0.90660  0.77750  Biso   1.000  H
  O86      1.0000 0.56725  0.13450  0.12512  Biso   1.000  O
  C377     1.0000 0.51017  0.02034  0.01883  Biso   1.000  C
  C378     1.0000 0.54834  0.09668  0.09033  Biso   1.000  C
  C379     1.0000 0.58734  0.17468  0.08943  Biso   1.000  C
  C380     1.0000 0.60637  0.21273  0.13303  Biso   1.000  C
  H266     1.0000 0.61997  0.23993  0.11083  Biso   1.000  H
  O87      1.0000 0.23392  0.46784  0.45846  Biso   1.000  O
  C381     1.0000 0.17684  0.35368  0.35217  Biso   1.000  C
  C382     1.0000 0.21501  0.43002  0.42367  Biso   1.000  C
  C383     1.0000 0.25401  0.50802  0.42277  Biso   1.000  C
  C384     1.0000 0.27303  0.54607  0.46637  Biso   1.000  C
  H267     1.0000 0.28663  0.57327  0.44417  Biso   1.000  H
  O88      1.0000 0.90059  0.09941  0.79179  Biso   1.000  O
  C385     1.0000 0.84351  0.15649  0.68550  Biso   1.000  C
  C386     1.0000 0.88168  0.11832  0.75700  Biso   1.000  C
  C387     1.0000 0.92068  0.07933  0.75610  Biso   1.000  C
  C388     1.0000 0.93970  0.06030  0.79970  Biso   1.000  C
  H268     1.0000 0.95330  0.04670  0.77750  Biso   1.000  H
  O89      1.0000 0.56725  0.43275  0.12512  Biso   1.000  O
  C389     1.0000 0.51017  0.48983  0.01883  Biso   1.000  C
  C390     1.0000 0.54834  0.45166  0.09033  Biso   1.000  C
  C391     1.0000 0.58734  0.41266  0.08943  Biso   1.000  C
  C392     1.0000 0.60637  0.39363  0.13303  Biso   1.000  C
  H269     1.0000 0.61997  0.38003  0.11083  Biso   1.000  H
  O90      1.0000 0.23392  0.76608  0.45846  Biso   1.000  O
  C393     1.0000 0.17684  0.82316  0.35217  Biso   1.000  C
  C394     1.0000 0.21501  0.78499  0.42367  Biso   1.000  C
  C395     1.0000 0.25401  0.74599  0.42277  Biso   1.000  C
  C396     1.0000 0.27303  0.72697  0.46637  Biso   1.000  C
  H270     1.0000 0.28663  0.71337  0.44417  Biso   1.000  H
