data_image0
_cell_length_a       35.3394
_cell_length_b       35.3394
_cell_length_c       20.07
_cell_angle_alpha    90
_cell_angle_beta     90
_cell_angle_gamma    120

_symmetry_space_group_name_H-M    "P 1"
_symmetry_int_tables_number       1

loop_
  _symmetry_equiv_pos_as_xyz
  'x, y, z'

loop_
  _atom_site_label
  _atom_site_occupancy
  _atom_site_fract_x
  _atom_site_fract_y
  _atom_site_fract_z
  _atom_site_thermal_displace_type
  _atom_site_B_iso_or_equiv
  _atom_site_type_symbol
  O1       1.0000 0.63751  0.77980  0.40879  Biso   1.000  O
  O2       1.0000 0.61095  0.76662  0.30277  Biso   1.000  O
  C1       1.0000 0.61215  0.75588  0.36265  Biso   1.000  C
  C2       1.0000 0.57924  0.70937  0.38320  Biso   1.000  C
  C3       1.0000 0.54988  0.68066  0.33340  Biso   1.000  C
  H1       1.0000 0.55060  0.69030  0.28900  Biso   1.000  H
  C4       1.0000 0.52034  0.63804  0.35266  Biso   1.000  C
  H2       1.0000 0.49890  0.61910  0.32170  Biso   1.000  H
  C5       1.0000 0.52116  0.62239  0.41550  Biso   1.000  C
  C6       1.0000 0.55026  0.65132  0.46495  Biso   1.000  C
  H3       1.0000 0.55010  0.64160  0.50910  Biso   1.000  H
  C7       1.0000 0.57899  0.69453  0.44602  Biso   1.000  C
  H4       1.0000 0.59900  0.71420  0.47800  Biso   1.000  H
  C8       1.0000 0.49342  0.57566  0.43340  Biso   1.000  C
  C9       1.0000 0.51249  0.55520  0.46690  Biso   1.000  C
  H5       1.0000 0.54260  0.57170  0.47810  Biso   1.000  H
  H6       1.0000 0.43210  0.61370  0.45800  Biso   1.000  H
  H7       1.0000 0.36820  0.58650  0.34610  Biso   1.000  H
  O3       1.0000 0.30418  0.11313  0.74212  Biso   1.000  O
  O4       1.0000 0.27762  0.09995  0.63610  Biso   1.000  O
  C10      1.0000 0.27882  0.08921  0.69598  Biso   1.000  C
  C11      1.0000 0.24591  0.04270  0.71653  Biso   1.000  C
  C12      1.0000 0.21655  0.01399  0.66673  Biso   1.000  C
  H8       1.0000 0.21727  0.02363  0.62233  Biso   1.000  H
  C13      1.0000 0.18701  0.97137  0.68599  Biso   1.000  C
  H9       1.0000 0.16557  0.95243  0.65503  Biso   1.000  H
  C14      1.0000 0.18783  0.95572  0.74883  Biso   1.000  C
  C15      1.0000 0.21693  0.98465  0.79828  Biso   1.000  C
  H10      1.0000 0.21677  0.97493  0.84243  Biso   1.000  H
  C16      1.0000 0.24566  0.02786  0.77935  Biso   1.000  C
  H11      1.0000 0.26567  0.04753  0.81133  Biso   1.000  H
  C17      1.0000 0.16009  0.90899  0.76673  Biso   1.000  C
  C18      1.0000 0.17916  0.88853  0.80023  Biso   1.000  C
  H12      1.0000 0.20927  0.90503  0.81143  Biso   1.000  H
  H13      1.0000 0.09877  0.94703  0.79133  Biso   1.000  H
  H14      1.0000 0.03487  0.91983  0.67943  Biso   1.000  H
  O5       1.0000 0.97084  0.44647  0.07546  Biso   1.000  O
  O6       1.0000 0.94428  0.43329  0.96944  Biso   1.000  O
  C19      1.0000 0.94548  0.42255  0.02932  Biso   1.000  C
  C20      1.0000 0.91257  0.37604  0.04987  Biso   1.000  C
  C21      1.0000 0.88321  0.34733  0.00007  Biso   1.000  C
  H15      1.0000 0.88393  0.35697  0.95567  Biso   1.000  H
  C22      1.0000 0.85367  0.30471  0.01933  Biso   1.000  C
  H16      1.0000 0.83223  0.28577  0.98837  Biso   1.000  H
  C23      1.0000 0.85449  0.28906  0.08217  Biso   1.000  C
  C24      1.0000 0.88359  0.31799  0.13162  Biso   1.000  C
  H17      1.0000 0.88343  0.30827  0.17577  Biso   1.000  H
  C25      1.0000 0.91232  0.36120  0.11269  Biso   1.000  C
  H18      1.0000 0.93233  0.38087  0.14467  Biso   1.000  H
  C26      1.0000 0.82675  0.24233  0.10007  Biso   1.000  C
  C27      1.0000 0.84582  0.22187  0.13357  Biso   1.000  C
  H19      1.0000 0.87593  0.23837  0.14477  Biso   1.000  H
  H20      1.0000 0.76543  0.28037  0.12467  Biso   1.000  H
  H21      1.0000 0.70153  0.25317  0.01277  Biso   1.000  H
  O7       1.0000 0.22020  0.85771  0.40879  Biso   1.000  O
  O8       1.0000 0.23338  0.84433  0.30277  Biso   1.000  O
  C28      1.0000 0.24412  0.85627  0.36265  Biso   1.000  C
  C29      1.0000 0.29063  0.86987  0.38320  Biso   1.000  C
  C30      1.0000 0.31934  0.86922  0.33340  Biso   1.000  C
  H22      1.0000 0.30970  0.86030  0.28900  Biso   1.000  H
  C31      1.0000 0.36196  0.88230  0.35266  Biso   1.000  C
  H23      1.0000 0.38090  0.87980  0.32170  Biso   1.000  H
  C32      1.0000 0.37761  0.89877  0.41550  Biso   1.000  C
  C33      1.0000 0.34868  0.89894  0.46495  Biso   1.000  C
  H24      1.0000 0.35840  0.90850  0.50910  Biso   1.000  H
  C34      1.0000 0.30547  0.88446  0.44602  Biso   1.000  C
  H25      1.0000 0.28580  0.88480  0.47800  Biso   1.000  H
  C35      1.0000 0.42434  0.91776  0.43340  Biso   1.000  C
  C36      1.0000 0.44480  0.95729  0.46690  Biso   1.000  C
  H26      1.0000 0.42830  0.97090  0.47810  Biso   1.000  H
  H27      1.0000 0.38630  0.81840  0.45800  Biso   1.000  H
  H28      1.0000 0.41350  0.78170  0.34610  Biso   1.000  H
  O9       1.0000 0.88687  0.19104  0.74212  Biso   1.000  O
  O10      1.0000 0.90005  0.17766  0.63610  Biso   1.000  O
  C37      1.0000 0.91079  0.18960  0.69598  Biso   1.000  C
  C38      1.0000 0.95730  0.20320  0.71653  Biso   1.000  C
  C39      1.0000 0.98601  0.20255  0.66673  Biso   1.000  C
  H29      1.0000 0.97637  0.19363  0.62233  Biso   1.000  H
  C40      1.0000 0.02863  0.21563  0.68599  Biso   1.000  C
  H30      1.0000 0.04757  0.21313  0.65503  Biso   1.000  H
  C41      1.0000 0.04428  0.23210  0.74883  Biso   1.000  C
  C42      1.0000 0.01535  0.23227  0.79828  Biso   1.000  C
  H31      1.0000 0.02507  0.24183  0.84243  Biso   1.000  H
  C43      1.0000 0.97214  0.21779  0.77935  Biso   1.000  C
  H32      1.0000 0.95247  0.21813  0.81133  Biso   1.000  H
  C44      1.0000 0.09101  0.25109  0.76673  Biso   1.000  C
  C45      1.0000 0.11147  0.29062  0.80023  Biso   1.000  C
  H33      1.0000 0.09497  0.30423  0.81143  Biso   1.000  H
  H34      1.0000 0.05297  0.15173  0.79133  Biso   1.000  H
  H35      1.0000 0.08017  0.11503  0.67943  Biso   1.000  H
  O11      1.0000 0.55353  0.52438  0.07546  Biso   1.000  O
  O12      1.0000 0.56671  0.51100  0.96944  Biso   1.000  O
  C46      1.0000 0.57745  0.52294  0.02932  Biso   1.000  C
  C47      1.0000 0.62396  0.53654  0.04987  Biso   1.000  C
  C48      1.0000 0.65267  0.53589  0.00007  Biso   1.000  C
  H36      1.0000 0.64303  0.52697  0.95567  Biso   1.000  H
  C49      1.0000 0.69529  0.54897  0.01933  Biso   1.000  C
  H37      1.0000 0.71423  0.54647  0.98837  Biso   1.000  H
  C50      1.0000 0.71094  0.56544  0.08217  Biso   1.000  C
  C51      1.0000 0.68201  0.56561  0.13162  Biso   1.000  C
  H38      1.0000 0.69173  0.57517  0.17577  Biso   1.000  H
  C52      1.0000 0.63880  0.55113  0.11269  Biso   1.000  C
  H39      1.0000 0.61913  0.55147  0.14467  Biso   1.000  H
  C53      1.0000 0.75767  0.58443  0.10007  Biso   1.000  C
  C54      1.0000 0.77813  0.62396  0.13357  Biso   1.000  C
  H40      1.0000 0.76163  0.63757  0.14477  Biso   1.000  H
  H41      1.0000 0.71963  0.48507  0.12467  Biso   1.000  H
  H42      1.0000 0.74683  0.44837  0.01277  Biso   1.000  H
  O13      1.0000 0.14229  0.36249  0.40879  Biso   1.000  O
  O14      1.0000 0.15567  0.38905  0.30277  Biso   1.000  O
  C55      1.0000 0.14373  0.38785  0.36265  Biso   1.000  C
  C56      1.0000 0.13013  0.42076  0.38320  Biso   1.000  C
  C57      1.0000 0.13078  0.45012  0.33340  Biso   1.000  C
  H43      1.0000 0.13970  0.44940  0.28900  Biso   1.000  H
  C58      1.0000 0.11770  0.47966  0.35266  Biso   1.000  C
  H44      1.0000 0.12020  0.50110  0.32170  Biso   1.000  H
  C59      1.0000 0.10123  0.47884  0.41550  Biso   1.000  C
  C60      1.0000 0.10106  0.44974  0.46495  Biso   1.000  C
  H45      1.0000 0.09150  0.44990  0.50910  Biso   1.000  H
  C61      1.0000 0.11554  0.42101  0.44602  Biso   1.000  C
  H46      1.0000 0.11520  0.40100  0.47800  Biso   1.000  H
  C62      1.0000 0.08224  0.50658  0.43340  Biso   1.000  C
  C63      1.0000 0.04271  0.48751  0.46690  Biso   1.000  C
  H47      1.0000 0.02910  0.45740  0.47810  Biso   1.000  H
  H48      1.0000 0.18160  0.56790  0.45800  Biso   1.000  H
  H49      1.0000 0.21830  0.63180  0.34610  Biso   1.000  H
  O15      1.0000 0.80896  0.69582  0.74212  Biso   1.000  O
  O16      1.0000 0.82234  0.72238  0.63610  Biso   1.000  O
  C64      1.0000 0.81040  0.72118  0.69598  Biso   1.000  C
  C65      1.0000 0.79680  0.75409  0.71653  Biso   1.000  C
  C66      1.0000 0.79745  0.78345  0.66673  Biso   1.000  C
  H50      1.0000 0.80637  0.78273  0.62233  Biso   1.000  H
  C67      1.0000 0.78437  0.81299  0.68599  Biso   1.000  C
  H51      1.0000 0.78687  0.83443  0.65503  Biso   1.000  H
  C68      1.0000 0.76790  0.81217  0.74883  Biso   1.000  C
  C69      1.0000 0.76773  0.78307  0.79828  Biso   1.000  C
  H52      1.0000 0.75817  0.78323  0.84243  Biso   1.000  H
  C70      1.0000 0.78221  0.75434  0.77935  Biso   1.000  C
  H53      1.0000 0.78187  0.73433  0.81133  Biso   1.000  H
  C71      1.0000 0.74891  0.83991  0.76673  Biso   1.000  C
  C72      1.0000 0.70938  0.82084  0.80023  Biso   1.000  C
  H54      1.0000 0.69577  0.79073  0.81143  Biso   1.000  H
  H55      1.0000 0.84827  0.90123  0.79133  Biso   1.000  H
  H56      1.0000 0.88497  0.96513  0.67943  Biso   1.000  H
  O17      1.0000 0.47562  0.02916  0.07546  Biso   1.000  O
  O18      1.0000 0.48900  0.05572  0.96944  Biso   1.000  O
  C73      1.0000 0.47706  0.05452  0.02932  Biso   1.000  C
  C74      1.0000 0.46346  0.08743  0.04987  Biso   1.000  C
  C75      1.0000 0.46411  0.11679  0.00007  Biso   1.000  C
  H57      1.0000 0.47303  0.11607  0.95567  Biso   1.000  H
  C76      1.0000 0.45103  0.14633  0.01933  Biso   1.000  C
  H58      1.0000 0.45353  0.16777  0.98837  Biso   1.000  H
  C77      1.0000 0.43456  0.14551  0.08217  Biso   1.000  C
  C78      1.0000 0.43439  0.11641  0.13162  Biso   1.000  C
  H59      1.0000 0.42483  0.11657  0.17577  Biso   1.000  H
  C79      1.0000 0.44887  0.08768  0.11269  Biso   1.000  C
  H60      1.0000 0.44853  0.06767  0.14467  Biso   1.000  H
  C80      1.0000 0.41557  0.17325  0.10007  Biso   1.000  C
  C81      1.0000 0.37604  0.15418  0.13357  Biso   1.000  C
  H61      1.0000 0.36243  0.12407  0.14477  Biso   1.000  H
  H62      1.0000 0.51493  0.23457  0.12467  Biso   1.000  H
  H63      1.0000 0.55163  0.29847  0.01277  Biso   1.000  H
  O19      1.0000 0.77980  0.63751  0.59121  Biso   1.000  O
  O20      1.0000 0.76662  0.61095  0.69723  Biso   1.000  O
  C82      1.0000 0.75588  0.61215  0.63735  Biso   1.000  C
  C83      1.0000 0.70937  0.57924  0.61680  Biso   1.000  C
  C84      1.0000 0.68066  0.54988  0.66660  Biso   1.000  C
  H64      1.0000 0.69030  0.55060  0.71100  Biso   1.000  H
  C85      1.0000 0.63804  0.52034  0.64734  Biso   1.000  C
  H65      1.0000 0.61910  0.49890  0.67830  Biso   1.000  H
  C86      1.0000 0.62239  0.52116  0.58450  Biso   1.000  C
  C87      1.0000 0.65132  0.55026  0.53505  Biso   1.000  C
  H66      1.0000 0.64160  0.55010  0.49090  Biso   1.000  H
  C88      1.0000 0.69453  0.57899  0.55398  Biso   1.000  C
  H67      1.0000 0.71420  0.59900  0.52200  Biso   1.000  H
  C89      1.0000 0.57566  0.49342  0.56660  Biso   1.000  C
  C90      1.0000 0.55520  0.51249  0.53310  Biso   1.000  C
  H68      1.0000 0.57170  0.54260  0.52190  Biso   1.000  H
  H69      1.0000 0.61370  0.43210  0.54200  Biso   1.000  H
  H70      1.0000 0.58650  0.36820  0.65390  Biso   1.000  H
  O21      1.0000 0.44647  0.97084  0.92454  Biso   1.000  O
  O22      1.0000 0.43329  0.94428  0.03056  Biso   1.000  O
  C91      1.0000 0.42255  0.94548  0.97068  Biso   1.000  C
  C92      1.0000 0.37604  0.91257  0.95013  Biso   1.000  C
  C93      1.0000 0.34733  0.88321  0.99993  Biso   1.000  C
  H71      1.0000 0.35697  0.88393  0.04433  Biso   1.000  H
  C94      1.0000 0.30471  0.85367  0.98067  Biso   1.000  C
  H72      1.0000 0.28577  0.83223  0.01163  Biso   1.000  H
  C95      1.0000 0.28906  0.85449  0.91783  Biso   1.000  C
  C96      1.0000 0.31799  0.88359  0.86838  Biso   1.000  C
  H73      1.0000 0.30827  0.88343  0.82423  Biso   1.000  H
  C97      1.0000 0.36120  0.91232  0.88731  Biso   1.000  C
  H74      1.0000 0.38087  0.93233  0.85533  Biso   1.000  H
  C98      1.0000 0.24233  0.82675  0.89993  Biso   1.000  C
  C99      1.0000 0.22187  0.84582  0.86643  Biso   1.000  C
  H75      1.0000 0.23837  0.87593  0.85523  Biso   1.000  H
  H76      1.0000 0.28037  0.76543  0.87533  Biso   1.000  H
  H77      1.0000 0.25317  0.70153  0.98723  Biso   1.000  H
  O23      1.0000 0.11313  0.30418  0.25788  Biso   1.000  O
  O24      1.0000 0.09995  0.27762  0.36390  Biso   1.000  O
  C100     1.0000 0.08921  0.27882  0.30402  Biso   1.000  C
  C101     1.0000 0.04270  0.24591  0.28347  Biso   1.000  C
  C102     1.0000 0.01399  0.21655  0.33327  Biso   1.000  C
  H78      1.0000 0.02363  0.21727  0.37767  Biso   1.000  H
  C103     1.0000 0.97137  0.18701  0.31401  Biso   1.000  C
  H79      1.0000 0.95243  0.16557  0.34497  Biso   1.000  H
  C104     1.0000 0.95572  0.18783  0.25117  Biso   1.000  C
  C105     1.0000 0.98465  0.21693  0.20172  Biso   1.000  C
  H80      1.0000 0.97493  0.21677  0.15757  Biso   1.000  H
  C106     1.0000 0.02786  0.24566  0.22065  Biso   1.000  C
  H81      1.0000 0.04753  0.26567  0.18867  Biso   1.000  H
  C107     1.0000 0.90899  0.16009  0.23327  Biso   1.000  C
  C108     1.0000 0.88853  0.17916  0.19977  Biso   1.000  C
  H82      1.0000 0.90503  0.20927  0.18857  Biso   1.000  H
  H83      1.0000 0.94703  0.09877  0.20867  Biso   1.000  H
  H84      1.0000 0.91983  0.03487  0.32057  Biso   1.000  H
  O25      1.0000 0.85771  0.22020  0.59121  Biso   1.000  O
  O26      1.0000 0.84433  0.23338  0.69723  Biso   1.000  O
  C109     1.0000 0.85627  0.24412  0.63735  Biso   1.000  C
  C110     1.0000 0.86987  0.29063  0.61680  Biso   1.000  C
  C111     1.0000 0.86922  0.31934  0.66660  Biso   1.000  C
  H85      1.0000 0.86030  0.30970  0.71100  Biso   1.000  H
  C112     1.0000 0.88230  0.36196  0.64734  Biso   1.000  C
  H86      1.0000 0.87980  0.38090  0.67830  Biso   1.000  H
  C113     1.0000 0.89877  0.37761  0.58450  Biso   1.000  C
  C114     1.0000 0.89894  0.34868  0.53505  Biso   1.000  C
  H87      1.0000 0.90850  0.35840  0.49090  Biso   1.000  H
  C115     1.0000 0.88446  0.30547  0.55398  Biso   1.000  C
  H88      1.0000 0.88480  0.28580  0.52200  Biso   1.000  H
  C116     1.0000 0.91776  0.42434  0.56660  Biso   1.000  C
  C117     1.0000 0.95729  0.44480  0.53310  Biso   1.000  C
  H89      1.0000 0.97090  0.42830  0.52190  Biso   1.000  H
  H90      1.0000 0.81840  0.38630  0.54200  Biso   1.000  H
  H91      1.0000 0.78170  0.41350  0.65390  Biso   1.000  H
  O27      1.0000 0.52438  0.55353  0.92454  Biso   1.000  O
  O28      1.0000 0.51100  0.56671  0.03056  Biso   1.000  O
  C118     1.0000 0.52294  0.57745  0.97068  Biso   1.000  C
  C119     1.0000 0.53654  0.62396  0.95013  Biso   1.000  C
  C120     1.0000 0.53589  0.65267  0.99993  Biso   1.000  C
  H92      1.0000 0.52697  0.64303  0.04433  Biso   1.000  H
  C121     1.0000 0.54897  0.69529  0.98067  Biso   1.000  C
  H93      1.0000 0.54647  0.71423  0.01163  Biso   1.000  H
  C122     1.0000 0.56544  0.71094  0.91783  Biso   1.000  C
  C123     1.0000 0.56561  0.68201  0.86838  Biso   1.000  C
  H94      1.0000 0.57517  0.69173  0.82423  Biso   1.000  H
  C124     1.0000 0.55113  0.63880  0.88731  Biso   1.000  C
  H95      1.0000 0.55147  0.61913  0.85533  Biso   1.000  H
  C125     1.0000 0.58443  0.75767  0.89993  Biso   1.000  C
  C126     1.0000 0.62396  0.77813  0.86643  Biso   1.000  C
  H96      1.0000 0.63757  0.76163  0.85523  Biso   1.000  H
  H97      1.0000 0.48507  0.71963  0.87533  Biso   1.000  H
  H98      1.0000 0.44837  0.74683  0.98723  Biso   1.000  H
  O29      1.0000 0.19104  0.88687  0.25788  Biso   1.000  O
  O30      1.0000 0.17766  0.90005  0.36390  Biso   1.000  O
  C127     1.0000 0.18960  0.91079  0.30402  Biso   1.000  C
  C128     1.0000 0.20320  0.95730  0.28347  Biso   1.000  C
  C129     1.0000 0.20255  0.98601  0.33327  Biso   1.000  C
  H99      1.0000 0.19363  0.97637  0.37767  Biso   1.000  H
  C130     1.0000 0.21563  0.02863  0.31401  Biso   1.000  C
  H100     1.0000 0.21313  0.04757  0.34497  Biso   1.000  H
  C131     1.0000 0.23210  0.04428  0.25117  Biso   1.000  C
  C132     1.0000 0.23227  0.01535  0.20172  Biso   1.000  C
  H101     1.0000 0.24183  0.02507  0.15757  Biso   1.000  H
  C133     1.0000 0.21779  0.97214  0.22065  Biso   1.000  C
  H102     1.0000 0.21813  0.95247  0.18867  Biso   1.000  H
  C134     1.0000 0.25109  0.09101  0.23327  Biso   1.000  C
  C135     1.0000 0.29062  0.11147  0.19977  Biso   1.000  C
  H103     1.0000 0.30423  0.09497  0.18857  Biso   1.000  H
  H104     1.0000 0.15173  0.05297  0.20867  Biso   1.000  H
  H105     1.0000 0.11503  0.08017  0.32057  Biso   1.000  H
  O31      1.0000 0.36249  0.14229  0.59121  Biso   1.000  O
  O32      1.0000 0.38905  0.15567  0.69723  Biso   1.000  O
  C136     1.0000 0.38785  0.14373  0.63735  Biso   1.000  C
  C137     1.0000 0.42076  0.13013  0.61680  Biso   1.000  C
  C138     1.0000 0.45012  0.13078  0.66660  Biso   1.000  C
  H106     1.0000 0.44940  0.13970  0.71100  Biso   1.000  H
  C139     1.0000 0.47966  0.11770  0.64734  Biso   1.000  C
  H107     1.0000 0.50110  0.12020  0.67830  Biso   1.000  H
  C140     1.0000 0.47884  0.10123  0.58450  Biso   1.000  C
  C141     1.0000 0.44974  0.10106  0.53505  Biso   1.000  C
  H108     1.0000 0.44990  0.09150  0.49090  Biso   1.000  H
  C142     1.0000 0.42101  0.11554  0.55398  Biso   1.000  C
  H109     1.0000 0.40100  0.11520  0.52200  Biso   1.000  H
  C143     1.0000 0.50658  0.08224  0.56660  Biso   1.000  C
  C144     1.0000 0.48751  0.04271  0.53310  Biso   1.000  C
  H110     1.0000 0.45740  0.02910  0.52190  Biso   1.000  H
  H111     1.0000 0.56790  0.18160  0.54200  Biso   1.000  H
  H112     1.0000 0.63180  0.21830  0.65390  Biso   1.000  H
  O33      1.0000 0.02916  0.47562  0.92454  Biso   1.000  O
  O34      1.0000 0.05572  0.48900  0.03056  Biso   1.000  O
  C145     1.0000 0.05452  0.47706  0.97068  Biso   1.000  C
  C146     1.0000 0.08743  0.46346  0.95013  Biso   1.000  C
  C147     1.0000 0.11679  0.46411  0.99993  Biso   1.000  C
  H113     1.0000 0.11607  0.47303  0.04433  Biso   1.000  H
  C148     1.0000 0.14633  0.45103  0.98067  Biso   1.000  C
  H114     1.0000 0.16777  0.45353  0.01163  Biso   1.000  H
  C149     1.0000 0.14551  0.43456  0.91783  Biso   1.000  C
  C150     1.0000 0.11641  0.43439  0.86838  Biso   1.000  C
  H115     1.0000 0.11657  0.42483  0.82423  Biso   1.000  H
  C151     1.0000 0.08768  0.44887  0.88731  Biso   1.000  C
  H116     1.0000 0.06767  0.44853  0.85533  Biso   1.000  H
  C152     1.0000 0.17325  0.41557  0.89993  Biso   1.000  C
  C153     1.0000 0.15418  0.37604  0.86643  Biso   1.000  C
  H117     1.0000 0.12407  0.36243  0.85523  Biso   1.000  H
  H118     1.0000 0.23457  0.51493  0.87533  Biso   1.000  H
  H119     1.0000 0.29847  0.55163  0.98723  Biso   1.000  H
  O35      1.0000 0.69582  0.80896  0.25788  Biso   1.000  O
  O36      1.0000 0.72238  0.82234  0.36390  Biso   1.000  O
  C154     1.0000 0.72118  0.81040  0.30402  Biso   1.000  C
  C155     1.0000 0.75409  0.79680  0.28347  Biso   1.000  C
  C156     1.0000 0.78345  0.79745  0.33327  Biso   1.000  C
  H120     1.0000 0.78273  0.80637  0.37767  Biso   1.000  H
  C157     1.0000 0.81299  0.78437  0.31401  Biso   1.000  C
  H121     1.0000 0.83443  0.78687  0.34497  Biso   1.000  H
  C158     1.0000 0.81217  0.76790  0.25117  Biso   1.000  C
  C159     1.0000 0.78307  0.76773  0.20172  Biso   1.000  C
  H122     1.0000 0.78323  0.75817  0.15757  Biso   1.000  H
  C160     1.0000 0.75434  0.78221  0.22065  Biso   1.000  C
  H123     1.0000 0.73433  0.78187  0.18867  Biso   1.000  H
  C161     1.0000 0.83991  0.74891  0.23327  Biso   1.000  C
  C162     1.0000 0.82084  0.70938  0.19977  Biso   1.000  C
  H124     1.0000 0.79073  0.69577  0.18857  Biso   1.000  H
  H125     1.0000 0.90123  0.84827  0.20867  Biso   1.000  H
  H126     1.0000 0.96513  0.88497  0.32057  Biso   1.000  H
  O37      1.0000 0.36249  0.22020  0.59121  Biso   1.000  O
  O38      1.0000 0.38905  0.23338  0.69723  Biso   1.000  O
  C163     1.0000 0.38785  0.24412  0.63735  Biso   1.000  C
  C164     1.0000 0.42076  0.29063  0.61680  Biso   1.000  C
  C165     1.0000 0.45012  0.31934  0.66660  Biso   1.000  C
  H127     1.0000 0.44940  0.30970  0.71100  Biso   1.000  H
  C166     1.0000 0.47966  0.36196  0.64734  Biso   1.000  C
  H128     1.0000 0.50110  0.38090  0.67830  Biso   1.000  H
  C167     1.0000 0.47884  0.37761  0.58450  Biso   1.000  C
  C168     1.0000 0.44974  0.34868  0.53505  Biso   1.000  C
  H129     1.0000 0.44990  0.35840  0.49090  Biso   1.000  H
  C169     1.0000 0.42101  0.30547  0.55398  Biso   1.000  C
  H130     1.0000 0.40100  0.28580  0.52200  Biso   1.000  H
  C170     1.0000 0.50658  0.42434  0.56660  Biso   1.000  C
  C171     1.0000 0.48751  0.44480  0.53310  Biso   1.000  C
  H131     1.0000 0.45740  0.42830  0.52190  Biso   1.000  H
  H132     1.0000 0.56790  0.38630  0.54200  Biso   1.000  H
  H133     1.0000 0.63180  0.41350  0.65390  Biso   1.000  H
  O39      1.0000 0.02916  0.55353  0.92454  Biso   1.000  O
  O40      1.0000 0.05572  0.56671  0.03056  Biso   1.000  O
  C172     1.0000 0.05452  0.57745  0.97068  Biso   1.000  C
  C173     1.0000 0.08743  0.62396  0.95013  Biso   1.000  C
  C174     1.0000 0.11679  0.65267  0.99993  Biso   1.000  C
  H134     1.0000 0.11607  0.64303  0.04433  Biso   1.000  H
  C175     1.0000 0.14633  0.69529  0.98067  Biso   1.000  C
  H135     1.0000 0.16777  0.71423  0.01163  Biso   1.000  H
  C176     1.0000 0.14551  0.71094  0.91783  Biso   1.000  C
  C177     1.0000 0.11641  0.68201  0.86838  Biso   1.000  C
  H136     1.0000 0.11657  0.69173  0.82423  Biso   1.000  H
  C178     1.0000 0.08768  0.63880  0.88731  Biso   1.000  C
  H137     1.0000 0.06767  0.61913  0.85533  Biso   1.000  H
  C179     1.0000 0.17325  0.75767  0.89993  Biso   1.000  C
  C180     1.0000 0.15418  0.77813  0.86643  Biso   1.000  C
  H138     1.0000 0.12407  0.76163  0.85523  Biso   1.000  H
  H139     1.0000 0.23457  0.71963  0.87533  Biso   1.000  H
  H140     1.0000 0.29847  0.74683  0.98723  Biso   1.000  H
  O41      1.0000 0.69582  0.88687  0.25788  Biso   1.000  O
  O42      1.0000 0.72238  0.90005  0.36390  Biso   1.000  O
  C181     1.0000 0.72118  0.91079  0.30402  Biso   1.000  C
  C182     1.0000 0.75409  0.95730  0.28347  Biso   1.000  C
  C183     1.0000 0.78345  0.98601  0.33327  Biso   1.000  C
  H141     1.0000 0.78273  0.97637  0.37767  Biso   1.000  H
  C184     1.0000 0.81299  0.02863  0.31401  Biso   1.000  C
  H142     1.0000 0.83443  0.04757  0.34497  Biso   1.000  H
  C185     1.0000 0.81217  0.04428  0.25117  Biso   1.000  C
  C186     1.0000 0.78307  0.01535  0.20172  Biso   1.000  C
  H143     1.0000 0.78323  0.02507  0.15757  Biso   1.000  H
  C187     1.0000 0.75434  0.97214  0.22065  Biso   1.000  C
  H144     1.0000 0.73433  0.95247  0.18867  Biso   1.000  H
  C188     1.0000 0.83991  0.09101  0.23327  Biso   1.000  C
  C189     1.0000 0.82084  0.11147  0.19977  Biso   1.000  C
  H145     1.0000 0.79073  0.09497  0.18857  Biso   1.000  H
  H146     1.0000 0.90123  0.05297  0.20867  Biso   1.000  H
  H147     1.0000 0.96513  0.08017  0.32057  Biso   1.000  H
  O43      1.0000 0.77980  0.14229  0.59121  Biso   1.000  O
  O44      1.0000 0.76662  0.15567  0.69723  Biso   1.000  O
  C190     1.0000 0.75588  0.14373  0.63735  Biso   1.000  C
  C191     1.0000 0.70937  0.13013  0.61680  Biso   1.000  C
  C192     1.0000 0.68066  0.13078  0.66660  Biso   1.000  C
  H148     1.0000 0.69030  0.13970  0.71100  Biso   1.000  H
  C193     1.0000 0.63804  0.11770  0.64734  Biso   1.000  C
  H149     1.0000 0.61910  0.12020  0.67830  Biso   1.000  H
  C194     1.0000 0.62239  0.10123  0.58450  Biso   1.000  C
  C195     1.0000 0.65132  0.10106  0.53505  Biso   1.000  C
  H150     1.0000 0.64160  0.09150  0.49090  Biso   1.000  H
  C196     1.0000 0.69453  0.11554  0.55398  Biso   1.000  C
  H151     1.0000 0.71420  0.11520  0.52200  Biso   1.000  H
  C197     1.0000 0.57566  0.08224  0.56660  Biso   1.000  C
  C198     1.0000 0.55520  0.04271  0.53310  Biso   1.000  C
  H152     1.0000 0.57170  0.02910  0.52190  Biso   1.000  H
  H153     1.0000 0.61370  0.18160  0.54200  Biso   1.000  H
  H154     1.0000 0.58650  0.21830  0.65390  Biso   1.000  H
  O45      1.0000 0.44647  0.47562  0.92454  Biso   1.000  O
  O46      1.0000 0.43329  0.48900  0.03056  Biso   1.000  O
  C199     1.0000 0.42255  0.47706  0.97068  Biso   1.000  C
  C200     1.0000 0.37604  0.46346  0.95013  Biso   1.000  C
  C201     1.0000 0.34733  0.46411  0.99993  Biso   1.000  C
  H155     1.0000 0.35697  0.47303  0.04433  Biso   1.000  H
  C202     1.0000 0.30471  0.45103  0.98067  Biso   1.000  C
  H156     1.0000 0.28577  0.45353  0.01163  Biso   1.000  H
  C203     1.0000 0.28906  0.43456  0.91783  Biso   1.000  C
  C204     1.0000 0.31799  0.43439  0.86838  Biso   1.000  C
  H157     1.0000 0.30827  0.42483  0.82423  Biso   1.000  H
  C205     1.0000 0.36120  0.44887  0.88731  Biso   1.000  C
  H158     1.0000 0.38087  0.44853  0.85533  Biso   1.000  H
  C206     1.0000 0.24233  0.41557  0.89993  Biso   1.000  C
  C207     1.0000 0.22187  0.37604  0.86643  Biso   1.000  C
  H159     1.0000 0.23837  0.36243  0.85523  Biso   1.000  H
  H160     1.0000 0.28037  0.51493  0.87533  Biso   1.000  H
  H161     1.0000 0.25317  0.55163  0.98723  Biso   1.000  H
  O47      1.0000 0.11313  0.80896  0.25788  Biso   1.000  O
  O48      1.0000 0.09995  0.82234  0.36390  Biso   1.000  O
  C208     1.0000 0.08921  0.81040  0.30402  Biso   1.000  C
  C209     1.0000 0.04270  0.79680  0.28347  Biso   1.000  C
  C210     1.0000 0.01399  0.79745  0.33327  Biso   1.000  C
  H162     1.0000 0.02363  0.80637  0.37767  Biso   1.000  H
  C211     1.0000 0.97137  0.78437  0.31401  Biso   1.000  C
  H163     1.0000 0.95243  0.78687  0.34497  Biso   1.000  H
  C212     1.0000 0.95572  0.76790  0.25117  Biso   1.000  C
  C213     1.0000 0.98465  0.76773  0.20172  Biso   1.000  C
  H164     1.0000 0.97493  0.75817  0.15757  Biso   1.000  H
  C214     1.0000 0.02786  0.78221  0.22065  Biso   1.000  C
  H165     1.0000 0.04753  0.78187  0.18867  Biso   1.000  H
  C215     1.0000 0.90899  0.74891  0.23327  Biso   1.000  C
  C216     1.0000 0.88853  0.70938  0.19977  Biso   1.000  C
  H166     1.0000 0.90503  0.69577  0.18857  Biso   1.000  H
  H167     1.0000 0.94703  0.84827  0.20867  Biso   1.000  H
  H168     1.0000 0.91983  0.88497  0.32057  Biso   1.000  H
  O49      1.0000 0.85771  0.63751  0.59121  Biso   1.000  O
  O50      1.0000 0.84433  0.61095  0.69723  Biso   1.000  O
  C217     1.0000 0.85627  0.61215  0.63735  Biso   1.000  C
  C218     1.0000 0.86987  0.57924  0.61680  Biso   1.000  C
  C219     1.0000 0.86922  0.54988  0.66660  Biso   1.000  C
  H169     1.0000 0.86030  0.55060  0.71100  Biso   1.000  H
  C220     1.0000 0.88230  0.52034  0.64734  Biso   1.000  C
  H170     1.0000 0.87980  0.49890  0.67830  Biso   1.000  H
  C221     1.0000 0.89877  0.52116  0.58450  Biso   1.000  C
  C222     1.0000 0.89894  0.55026  0.53505  Biso   1.000  C
  H171     1.0000 0.90850  0.55010  0.49090  Biso   1.000  H
  C223     1.0000 0.88446  0.57899  0.55398  Biso   1.000  C
  H172     1.0000 0.88480  0.59900  0.52200  Biso   1.000  H
  C224     1.0000 0.91776  0.49342  0.56660  Biso   1.000  C
  C225     1.0000 0.95729  0.51249  0.53310  Biso   1.000  C
  H173     1.0000 0.97090  0.54260  0.52190  Biso   1.000  H
  H174     1.0000 0.81840  0.43210  0.54200  Biso   1.000  H
  H175     1.0000 0.78170  0.36820  0.65390  Biso   1.000  H
  O51      1.0000 0.52438  0.97084  0.92454  Biso   1.000  O
  O52      1.0000 0.51100  0.94428  0.03056  Biso   1.000  O
  C226     1.0000 0.52294  0.94548  0.97068  Biso   1.000  C
  C227     1.0000 0.53654  0.91257  0.95013  Biso   1.000  C
  C228     1.0000 0.53589  0.88321  0.99993  Biso   1.000  C
  H176     1.0000 0.52697  0.88393  0.04433  Biso   1.000  H
  C229     1.0000 0.54897  0.85367  0.98067  Biso   1.000  C
  H177     1.0000 0.54647  0.83223  0.01163  Biso   1.000  H
  C230     1.0000 0.56544  0.85449  0.91783  Biso   1.000  C
  C231     1.0000 0.56561  0.88359  0.86838  Biso   1.000  C
  H178     1.0000 0.57517  0.88343  0.82423  Biso   1.000  H
  C232     1.0000 0.55113  0.91232  0.88731  Biso   1.000  C
  H179     1.0000 0.55147  0.93233  0.85533  Biso   1.000  H
  C233     1.0000 0.58443  0.82675  0.89993  Biso   1.000  C
  C234     1.0000 0.62396  0.84582  0.86643  Biso   1.000  C
  H180     1.0000 0.63757  0.87593  0.85523  Biso   1.000  H
  H181     1.0000 0.48507  0.76543  0.87533  Biso   1.000  H
  H182     1.0000 0.44837  0.70153  0.98723  Biso   1.000  H
  O53      1.0000 0.19104  0.30418  0.25788  Biso   1.000  O
  O54      1.0000 0.17766  0.27762  0.36390  Biso   1.000  O
  C235     1.0000 0.18960  0.27882  0.30402  Biso   1.000  C
  C236     1.0000 0.20320  0.24591  0.28347  Biso   1.000  C
  C237     1.0000 0.20255  0.21655  0.33327  Biso   1.000  C
  H183     1.0000 0.19363  0.21727  0.37767  Biso   1.000  H
  C238     1.0000 0.21563  0.18701  0.31401  Biso   1.000  C
  H184     1.0000 0.21313  0.16557  0.34497  Biso   1.000  H
  C239     1.0000 0.23210  0.18783  0.25117  Biso   1.000  C
  C240     1.0000 0.23227  0.21693  0.20172  Biso   1.000  C
  H185     1.0000 0.24183  0.21677  0.15757  Biso   1.000  H
  C241     1.0000 0.21779  0.24566  0.22065  Biso   1.000  C
  H186     1.0000 0.21813  0.26567  0.18867  Biso   1.000  H
  C242     1.0000 0.25109  0.16009  0.23327  Biso   1.000  C
  C243     1.0000 0.29062  0.17916  0.19977  Biso   1.000  C
  H187     1.0000 0.30423  0.20927  0.18857  Biso   1.000  H
  H188     1.0000 0.15173  0.09877  0.20867  Biso   1.000  H
  H189     1.0000 0.11503  0.03487  0.32057  Biso   1.000  H
  O55      1.0000 0.22020  0.36249  0.40879  Biso   1.000  O
  O56      1.0000 0.23338  0.38905  0.30277  Biso   1.000  O
  C244     1.0000 0.24412  0.38785  0.36265  Biso   1.000  C
  C245     1.0000 0.29063  0.42076  0.38320  Biso   1.000  C
  C246     1.0000 0.31934  0.45012  0.33340  Biso   1.000  C
  H190     1.0000 0.30970  0.44940  0.28900  Biso   1.000  H
  C247     1.0000 0.36196  0.47966  0.35266  Biso   1.000  C
  H191     1.0000 0.38090  0.50110  0.32170  Biso   1.000  H
  C248     1.0000 0.37761  0.47884  0.41550  Biso   1.000  C
  C249     1.0000 0.34868  0.44974  0.46495  Biso   1.000  C
  H192     1.0000 0.35840  0.44990  0.50910  Biso   1.000  H
  C250     1.0000 0.30547  0.42101  0.44602  Biso   1.000  C
  H193     1.0000 0.28580  0.40100  0.47800  Biso   1.000  H
  C251     1.0000 0.42434  0.50658  0.43340  Biso   1.000  C
  C252     1.0000 0.44480  0.48751  0.46690  Biso   1.000  C
  H194     1.0000 0.42830  0.45740  0.47810  Biso   1.000  H
  H195     1.0000 0.38630  0.56790  0.45800  Biso   1.000  H
  H196     1.0000 0.41350  0.63180  0.34610  Biso   1.000  H
  O57      1.0000 0.88687  0.69582  0.74212  Biso   1.000  O
  O58      1.0000 0.90005  0.72238  0.63610  Biso   1.000  O
  C253     1.0000 0.91079  0.72118  0.69598  Biso   1.000  C
  C254     1.0000 0.95730  0.75409  0.71653  Biso   1.000  C
  C255     1.0000 0.98601  0.78345  0.66673  Biso   1.000  C
  H197     1.0000 0.97637  0.78273  0.62233  Biso   1.000  H
  C256     1.0000 0.02863  0.81299  0.68599  Biso   1.000  C
  H198     1.0000 0.04757  0.83443  0.65503  Biso   1.000  H
  C257     1.0000 0.04428  0.81217  0.74883  Biso   1.000  C
  C258     1.0000 0.01535  0.78307  0.79828  Biso   1.000  C
  H199     1.0000 0.02507  0.78323  0.84243  Biso   1.000  H
  C259     1.0000 0.97214  0.75434  0.77935  Biso   1.000  C
  H200     1.0000 0.95247  0.73433  0.81133  Biso   1.000  H
  C260     1.0000 0.09101  0.83991  0.76673  Biso   1.000  C
  C261     1.0000 0.11147  0.82084  0.80023  Biso   1.000  C
  H201     1.0000 0.09497  0.79073  0.81143  Biso   1.000  H
  H202     1.0000 0.05297  0.90123  0.79133  Biso   1.000  H
  H203     1.0000 0.08017  0.96513  0.67943  Biso   1.000  H
  O59      1.0000 0.55353  0.02916  0.07546  Biso   1.000  O
  O60      1.0000 0.56671  0.05572  0.96944  Biso   1.000  O
  C262     1.0000 0.57745  0.05452  0.02932  Biso   1.000  C
  C263     1.0000 0.62396  0.08743  0.04987  Biso   1.000  C
  C264     1.0000 0.65267  0.11679  0.00007  Biso   1.000  C
  H204     1.0000 0.64303  0.11607  0.95567  Biso   1.000  H
  C265     1.0000 0.69529  0.14633  0.01933  Biso   1.000  C
  H205     1.0000 0.71423  0.16777  0.98837  Biso   1.000  H
  C266     1.0000 0.71094  0.14551  0.08217  Biso   1.000  C
  C267     1.0000 0.68201  0.11641  0.13162  Biso   1.000  C
  H206     1.0000 0.69173  0.11657  0.17577  Biso   1.000  H
  C268     1.0000 0.63880  0.08768  0.11269  Biso   1.000  C
  H207     1.0000 0.61913  0.06767  0.14467  Biso   1.000  H
  C269     1.0000 0.75767  0.17325  0.10007  Biso   1.000  C
  C270     1.0000 0.77813  0.15418  0.13357  Biso   1.000  C
  H208     1.0000 0.76163  0.12407  0.14477  Biso   1.000  H
  H209     1.0000 0.71963  0.23457  0.12467  Biso   1.000  H
  H210     1.0000 0.74683  0.29847  0.01277  Biso   1.000  H
  O61      1.0000 0.14229  0.77980  0.40879  Biso   1.000  O
  O62      1.0000 0.15567  0.76662  0.30277  Biso   1.000  O
  C271     1.0000 0.14373  0.75588  0.36265  Biso   1.000  C
  C272     1.0000 0.13013  0.70937  0.38320  Biso   1.000  C
  C273     1.0000 0.13078  0.68066  0.33340  Biso   1.000  C
  H211     1.0000 0.13970  0.69030  0.28900  Biso   1.000  H
  C274     1.0000 0.11770  0.63804  0.35266  Biso   1.000  C
  H212     1.0000 0.12020  0.61910  0.32170  Biso   1.000  H
  C275     1.0000 0.10123  0.62239  0.41550  Biso   1.000  C
  C276     1.0000 0.10106  0.65132  0.46495  Biso   1.000  C
  H213     1.0000 0.09150  0.64160  0.50910  Biso   1.000  H
  C277     1.0000 0.11554  0.69453  0.44602  Biso   1.000  C
  H214     1.0000 0.11520  0.71420  0.47800  Biso   1.000  H
  C278     1.0000 0.08224  0.57566  0.43340  Biso   1.000  C
  C279     1.0000 0.04271  0.55520  0.46690  Biso   1.000  C
  H215     1.0000 0.02910  0.57170  0.47810  Biso   1.000  H
  H216     1.0000 0.18160  0.61370  0.45800  Biso   1.000  H
  H217     1.0000 0.21830  0.58650  0.34610  Biso   1.000  H
  O63      1.0000 0.80896  0.11313  0.74212  Biso   1.000  O
  O64      1.0000 0.82234  0.09995  0.63610  Biso   1.000  O
  C280     1.0000 0.81040  0.08921  0.69598  Biso   1.000  C
  C281     1.0000 0.79680  0.04270  0.71653  Biso   1.000  C
  C282     1.0000 0.79745  0.01399  0.66673  Biso   1.000  C
  H218     1.0000 0.80637  0.02363  0.62233  Biso   1.000  H
  C283     1.0000 0.78437  0.97137  0.68599  Biso   1.000  C
  H219     1.0000 0.78687  0.95243  0.65503  Biso   1.000  H
  C284     1.0000 0.76790  0.95572  0.74883  Biso   1.000  C
  C285     1.0000 0.76773  0.98465  0.79828  Biso   1.000  C
  H220     1.0000 0.75817  0.97493  0.84243  Biso   1.000  H
  C286     1.0000 0.78221  0.02786  0.77935  Biso   1.000  C
  H221     1.0000 0.78187  0.04753  0.81133  Biso   1.000  H
  C287     1.0000 0.74891  0.90899  0.76673  Biso   1.000  C
  C288     1.0000 0.70938  0.88853  0.80023  Biso   1.000  C
  H222     1.0000 0.69577  0.90503  0.81143  Biso   1.000  H
  H223     1.0000 0.84827  0.94703  0.79133  Biso   1.000  H
  H224     1.0000 0.88497  0.91983  0.67943  Biso   1.000  H
  O65      1.0000 0.47562  0.44647  0.07546  Biso   1.000  O
  O66      1.0000 0.48900  0.43329  0.96944  Biso   1.000  O
  C289     1.0000 0.47706  0.42255  0.02932  Biso   1.000  C
  C290     1.0000 0.46346  0.37604  0.04987  Biso   1.000  C
  C291     1.0000 0.46411  0.34733  0.00007  Biso   1.000  C
  H225     1.0000 0.47303  0.35697  0.95567  Biso   1.000  H
  C292     1.0000 0.45103  0.30471  0.01933  Biso   1.000  C
  H226     1.0000 0.45353  0.28577  0.98837  Biso   1.000  H
  C293     1.0000 0.43456  0.28906  0.08217  Biso   1.000  C
  C294     1.0000 0.43439  0.31799  0.13162  Biso   1.000  C
  H227     1.0000 0.42483  0.30827  0.17577  Biso   1.000  H
  C295     1.0000 0.44887  0.36120  0.11269  Biso   1.000  C
  H228     1.0000 0.44853  0.38087  0.14467  Biso   1.000  H
  C296     1.0000 0.41557  0.24233  0.10007  Biso   1.000  C
  C297     1.0000 0.37604  0.22187  0.13357  Biso   1.000  C
  H229     1.0000 0.36243  0.23837  0.14477  Biso   1.000  H
  H230     1.0000 0.51493  0.28037  0.12467  Biso   1.000  H
  H231     1.0000 0.55163  0.25317  0.01277  Biso   1.000  H
  O67      1.0000 0.63751  0.85771  0.40879  Biso   1.000  O
  O68      1.0000 0.61095  0.84433  0.30277  Biso   1.000  O
  C298     1.0000 0.61215  0.85627  0.36265  Biso   1.000  C
  C299     1.0000 0.57924  0.86987  0.38320  Biso   1.000  C
  C300     1.0000 0.54988  0.86922  0.33340  Biso   1.000  C
  H232     1.0000 0.55060  0.86030  0.28900  Biso   1.000  H
  C301     1.0000 0.52034  0.88230  0.35266  Biso   1.000  C
  H233     1.0000 0.49890  0.87980  0.32170  Biso   1.000  H
  C302     1.0000 0.52116  0.89877  0.41550  Biso   1.000  C
  C303     1.0000 0.55026  0.89894  0.46495  Biso   1.000  C
  H234     1.0000 0.55010  0.90850  0.50910  Biso   1.000  H
  C304     1.0000 0.57899  0.88446  0.44602  Biso   1.000  C
  H235     1.0000 0.59900  0.88480  0.47800  Biso   1.000  H
  C305     1.0000 0.49342  0.91776  0.43340  Biso   1.000  C
  C306     1.0000 0.51249  0.95729  0.46690  Biso   1.000  C
  H236     1.0000 0.54260  0.97090  0.47810  Biso   1.000  H
  H237     1.0000 0.43210  0.81840  0.45800  Biso   1.000  H
  H238     1.0000 0.36820  0.78170  0.34610  Biso   1.000  H
  O69      1.0000 0.30418  0.19104  0.74212  Biso   1.000  O
  O70      1.0000 0.27762  0.17766  0.63610  Biso   1.000  O
  C307     1.0000 0.27882  0.18960  0.69598  Biso   1.000  C
  C308     1.0000 0.24591  0.20320  0.71653  Biso   1.000  C
  C309     1.0000 0.21655  0.20255  0.66673  Biso   1.000  C
  H239     1.0000 0.21727  0.19363  0.62233  Biso   1.000  H
  C310     1.0000 0.18701  0.21563  0.68599  Biso   1.000  C
  H240     1.0000 0.16557  0.21313  0.65503  Biso   1.000  H
  C311     1.0000 0.18783  0.23210  0.74883  Biso   1.000  C
  C312     1.0000 0.21693  0.23227  0.79828  Biso   1.000  C
  H241     1.0000 0.21677  0.24183  0.84243  Biso   1.000  H
  C313     1.0000 0.24566  0.21779  0.77935  Biso   1.000  C
  H242     1.0000 0.26567  0.21813  0.81133  Biso   1.000  H
  C314     1.0000 0.16009  0.25109  0.76673  Biso   1.000  C
  C315     1.0000 0.17916  0.29062  0.80023  Biso   1.000  C
  H243     1.0000 0.20927  0.30423  0.81143  Biso   1.000  H
  H244     1.0000 0.09877  0.15173  0.79133  Biso   1.000  H
  H245     1.0000 0.03487  0.11503  0.67943  Biso   1.000  H
  O71      1.0000 0.97084  0.52438  0.07546  Biso   1.000  O
  O72      1.0000 0.94428  0.51100  0.96944  Biso   1.000  O
  C316     1.0000 0.94548  0.52294  0.02932  Biso   1.000  C
  C317     1.0000 0.91257  0.53654  0.04987  Biso   1.000  C
  C318     1.0000 0.88321  0.53589  0.00007  Biso   1.000  C
  H246     1.0000 0.88393  0.52697  0.95567  Biso   1.000  H
  C319     1.0000 0.85367  0.54897  0.01933  Biso   1.000  C
  H247     1.0000 0.83223  0.54647  0.98837  Biso   1.000  H
  C320     1.0000 0.85449  0.56544  0.08217  Biso   1.000  C
  C321     1.0000 0.88359  0.56561  0.13162  Biso   1.000  C
  H248     1.0000 0.88343  0.57517  0.17577  Biso   1.000  H
  C322     1.0000 0.91232  0.55113  0.11269  Biso   1.000  C
  H249     1.0000 0.93233  0.55147  0.14467  Biso   1.000  H
  C323     1.0000 0.82675  0.58443  0.10007  Biso   1.000  C
  C324     1.0000 0.84582  0.62396  0.13357  Biso   1.000  C
  H250     1.0000 0.87593  0.63757  0.14477  Biso   1.000  H
  H251     1.0000 0.76543  0.48507  0.12467  Biso   1.000  H
  H252     1.0000 0.70153  0.44837  0.01277  Biso   1.000  H
  Cu1      1.0000 0.68170  0.84085  0.39427  Biso   1.000  Cu
  Cu2      1.0000 0.34837  0.17418  0.72760  Biso   1.000  Cu
  Cu3      1.0000 0.01503  0.50752  0.06094  Biso   1.000  Cu
  Cu4      1.0000 0.15915  0.84085  0.39427  Biso   1.000  Cu
  Cu5      1.0000 0.82582  0.17418  0.72760  Biso   1.000  Cu
  Cu6      1.0000 0.49248  0.50752  0.06094  Biso   1.000  Cu
  Cu7      1.0000 0.15915  0.31830  0.39427  Biso   1.000  Cu
  Cu8      1.0000 0.82582  0.65163  0.72760  Biso   1.000  Cu
  Cu9      1.0000 0.49248  0.98497  0.06094  Biso   1.000  Cu
  Cu10     1.0000 0.84085  0.68170  0.60573  Biso   1.000  Cu
  Cu11     1.0000 0.50752  0.01503  0.93906  Biso   1.000  Cu
  Cu12     1.0000 0.17418  0.34837  0.27240  Biso   1.000  Cu
  Cu13     1.0000 0.84085  0.15915  0.60573  Biso   1.000  Cu
  Cu14     1.0000 0.50752  0.49248  0.93906  Biso   1.000  Cu
  Cu15     1.0000 0.17418  0.82582  0.27240  Biso   1.000  Cu
  Cu16     1.0000 0.31830  0.15915  0.60573  Biso   1.000  Cu
  Cu17     1.0000 0.98497  0.49248  0.93906  Biso   1.000  Cu
  Cu18     1.0000 0.65163  0.82582  0.27240  Biso   1.000  Cu
  O73      1.0000 0.42854  0.57146  0.38330  Biso   1.000  O
  C325     1.0000 0.48893  0.51107  0.48490  Biso   1.000  C
  C326     1.0000 0.44941  0.55059  0.41580  Biso   1.000  C
  C327     1.0000 0.40956  0.59044  0.42960  Biso   1.000  C
  C328     1.0000 0.38970  0.61030  0.37410  Biso   1.000  C
  H253     1.0000 0.37560  0.62440  0.39700  Biso   1.000  H
  O74      1.0000 0.09521  0.90479  0.71663  Biso   1.000  O
  C329     1.0000 0.15560  0.84440  0.81823  Biso   1.000  C
  C330     1.0000 0.11608  0.88392  0.74913  Biso   1.000  C
  C331     1.0000 0.07623  0.92377  0.76293  Biso   1.000  C
  C332     1.0000 0.05637  0.94363  0.70743  Biso   1.000  C
  H254     1.0000 0.04227  0.95773  0.73033  Biso   1.000  H
  O75      1.0000 0.76187  0.23813  0.04997  Biso   1.000  O
  C333     1.0000 0.82226  0.17774  0.15157  Biso   1.000  C
  C334     1.0000 0.78274  0.21726  0.08247  Biso   1.000  C
  C335     1.0000 0.74289  0.25711  0.09627  Biso   1.000  C
  C336     1.0000 0.72303  0.27697  0.04077  Biso   1.000  C
  H255     1.0000 0.70893  0.29107  0.06367  Biso   1.000  H
  O76      1.0000 0.42854  0.85708  0.38330  Biso   1.000  O
  C337     1.0000 0.48893  0.97786  0.48490  Biso   1.000  C
  C338     1.0000 0.44941  0.89882  0.41580  Biso   1.000  C
  C339     1.0000 0.40956  0.81912  0.42960  Biso   1.000  C
  C340     1.0000 0.38970  0.77940  0.37410  Biso   1.000  C
  H256     1.0000 0.37560  0.75120  0.39700  Biso   1.000  H
  O77      1.0000 0.09521  0.19041  0.71663  Biso   1.000  O
  C341     1.0000 0.15560  0.31119  0.81823  Biso   1.000  C
  C342     1.0000 0.11608  0.23215  0.74913  Biso   1.000  C
  C343     1.0000 0.07623  0.15245  0.76293  Biso   1.000  C
  C344     1.0000 0.05637  0.11273  0.70743  Biso   1.000  C
  H257     1.0000 0.04227  0.08453  0.73033  Biso   1.000  H
  O78      1.0000 0.76187  0.52375  0.04997  Biso   1.000  O
  C345     1.0000 0.82226  0.64453  0.15157  Biso   1.000  C
  C346     1.0000 0.78274  0.56549  0.08247  Biso   1.000  C
  C347     1.0000 0.74289  0.48579  0.09627  Biso   1.000  C
  C348     1.0000 0.72303  0.44607  0.04077  Biso   1.000  C
  H258     1.0000 0.70893  0.41787  0.06367  Biso   1.000  H
  O79      1.0000 0.14292  0.57146  0.38330  Biso   1.000  O
  C349     1.0000 0.02214  0.51107  0.48490  Biso   1.000  C
  C350     1.0000 0.10118  0.55059  0.41580  Biso   1.000  C
  C351     1.0000 0.18088  0.59044  0.42960  Biso   1.000  C
  C352     1.0000 0.22060  0.61030  0.37410  Biso   1.000  C
  H259     1.0000 0.24880  0.62440  0.39700  Biso   1.000  H
  O80      1.0000 0.80959  0.90479  0.71663  Biso   1.000  O
  C353     1.0000 0.68881  0.84440  0.81823  Biso   1.000  C
  C354     1.0000 0.76785  0.88392  0.74913  Biso   1.000  C
  C355     1.0000 0.84755  0.92377  0.76293  Biso   1.000  C
  C356     1.0000 0.88727  0.94363  0.70743  Biso   1.000  C
  H260     1.0000 0.91547  0.95773  0.73033  Biso   1.000  H
  O81      1.0000 0.47625  0.23813  0.04997  Biso   1.000  O
  C357     1.0000 0.35547  0.17774  0.15157  Biso   1.000  C
  C358     1.0000 0.43451  0.21726  0.08247  Biso   1.000  C
  C359     1.0000 0.51421  0.25711  0.09627  Biso   1.000  C
  C360     1.0000 0.55393  0.27697  0.04077  Biso   1.000  C
  H261     1.0000 0.58213  0.29107  0.06367  Biso   1.000  H
  O82      1.0000 0.57146  0.42854  0.61670  Biso   1.000  O
  C361     1.0000 0.51107  0.48893  0.51510  Biso   1.000  C
  C362     1.0000 0.55059  0.44941  0.58420  Biso   1.000  C
  C363     1.0000 0.59044  0.40956  0.57040  Biso   1.000  C
  C364     1.0000 0.61030  0.38970  0.62590  Biso   1.000  C
  H262     1.0000 0.62440  0.37560  0.60300  Biso   1.000  H
  O83      1.0000 0.23813  0.76187  0.95003  Biso   1.000  O
  C365     1.0000 0.17774  0.82226  0.84843  Biso   1.000  C
  C366     1.0000 0.21726  0.78274  0.91753  Biso   1.000  C
  C367     1.0000 0.25711  0.74289  0.90373  Biso   1.000  C
  C368     1.0000 0.27697  0.72303  0.95923  Biso   1.000  C
  H263     1.0000 0.29107  0.70893  0.93633  Biso   1.000  H
  O84      1.0000 0.90479  0.09521  0.28337  Biso   1.000  O
  C369     1.0000 0.84440  0.15560  0.18177  Biso   1.000  C
  C370     1.0000 0.88392  0.11608  0.25087  Biso   1.000  C
  C371     1.0000 0.92377  0.07623  0.23707  Biso   1.000  C
  C372     1.0000 0.94363  0.05637  0.29257  Biso   1.000  C
  H264     1.0000 0.95773  0.04227  0.26967  Biso   1.000  H
  O85      1.0000 0.85708  0.42854  0.61670  Biso   1.000  O
  C373     1.0000 0.97786  0.48893  0.51510  Biso   1.000  C
  C374     1.0000 0.89882  0.44941  0.58420  Biso   1.000  C
  C375     1.0000 0.81912  0.40956  0.57040  Biso   1.000  C
  C376     1.0000 0.77940  0.38970  0.62590  Biso   1.000  C
  H265     1.0000 0.75120  0.37560  0.60300  Biso   1.000  H
  O86      1.0000 0.52375  0.76187  0.95003  Biso   1.000  O
  C377     1.0000 0.64453  0.82226  0.84843  Biso   1.000  C
  C378     1.0000 0.56549  0.78274  0.91753  Biso   1.000  C
  C379     1.0000 0.48579  0.74289  0.90373  Biso   1.000  C
  C380     1.0000 0.44607  0.72303  0.95923  Biso   1.000  C
  H266     1.0000 0.41787  0.70893  0.93633  Biso   1.000  H
  O87      1.0000 0.19041  0.09521  0.28337  Biso   1.000  O
  C381     1.0000 0.31119  0.15560  0.18177  Biso   1.000  C
  C382     1.0000 0.23215  0.11608  0.25087  Biso   1.000  C
  C383     1.0000 0.15245  0.07623  0.23707  Biso   1.000  C
  C384     1.0000 0.11273  0.05637  0.29257  Biso   1.000  C
  H267     1.0000 0.08453  0.04227  0.26967  Biso   1.000  H
  O88      1.0000 0.57146  0.14292  0.61670  Biso   1.000  O
  C385     1.0000 0.51107  0.02214  0.51510  Biso   1.000  C
  C386     1.0000 0.55059  0.10118  0.58420  Biso   1.000  C
  C387     1.0000 0.59044  0.18088  0.57040  Biso   1.000  C
  C388     1.0000 0.61030  0.22060  0.62590  Biso   1.000  C
  H268     1.0000 0.62440  0.24880  0.60300  Biso   1.000  H
  O89      1.0000 0.23813  0.47625  0.95003  Biso   1.000  O
  C389     1.0000 0.17774  0.35547  0.84843  Biso   1.000  C
  C390     1.0000 0.21726  0.43451  0.91753  Biso   1.000  C
  C391     1.0000 0.25711  0.51421  0.90373  Biso   1.000  C
  C392     1.0000 0.27697  0.55393  0.95923  Biso   1.000  C
  H269     1.0000 0.29107  0.58213  0.93633  Biso   1.000  H
  O90      1.0000 0.90479  0.80959  0.28337  Biso   1.000  O
  C393     1.0000 0.84440  0.68881  0.18177  Biso   1.000  C
  C394     1.0000 0.88392  0.76785  0.25087  Biso   1.000  C
  C395     1.0000 0.92377  0.84755  0.23707  Biso   1.000  C
  C396     1.0000 0.94363  0.88727  0.29257  Biso   1.000  C
  H270     1.0000 0.95773  0.91547  0.26967  Biso   1.000  H
