data_image0
_cell_length_a       35.1511
_cell_length_b       35.1511
_cell_length_c       22.1891
_cell_angle_alpha    90
_cell_angle_beta     90
_cell_angle_gamma    120

_symmetry_space_group_name_H-M    "P 1"
_symmetry_int_tables_number       1

loop_
  _symmetry_equiv_pos_as_xyz
  'x, y, z'

loop_
  _atom_site_label
  _atom_site_occupancy
  _atom_site_fract_x
  _atom_site_fract_y
  _atom_site_fract_z
  _atom_site_thermal_displace_type
  _atom_site_B_iso_or_equiv
  _atom_site_type_symbol
  O1       1.0000 0.52515  0.55366  0.43137  Biso   1.000  O
  O2       1.0000 0.51124  0.56719  0.52533  Biso   1.000  O
  C1       1.0000 0.52385  0.57827  0.47188  Biso   1.000  C
  C2       1.0000 0.53901  0.62485  0.45404  Biso   1.000  C
  C3       1.0000 0.53960  0.65458  0.49560  Biso   1.000  C
  H1       1.0000 0.53000  0.64540  0.53480  Biso   1.000  H
  C4       1.0000 0.55430  0.69761  0.47961  Biso   1.000  C
  H2       1.0000 0.55440  0.71710  0.50810  Biso   1.000  H
  C5       1.0000 0.56906  0.71240  0.42115  Biso   1.000  C
  C6       1.0000 0.56797  0.68246  0.38000  Biso   1.000  C
  H3       1.0000 0.57730  0.69140  0.34070  Biso   1.000  H
  C7       1.0000 0.55317  0.63921  0.39628  Biso   1.000  C
  H4       1.0000 0.55280  0.61960  0.36780  Biso   1.000  H
  C8       1.0000 0.58794  0.75921  0.40424  Biso   1.000  C
  C9       1.0000 0.62601  0.77924  0.37000  Biso   1.000  C
  H5       1.0000 0.63890  0.76270  0.35890  Biso   1.000  H
  H6       1.0000 0.48920  0.72220  0.39590  Biso   1.000  H
  H7       1.0000 0.45730  0.75090  0.49060  Biso   1.000  H
  O3       1.0000 0.19182  0.88699  0.76470  Biso   1.000  O
  O4       1.0000 0.17791  0.90052  0.85866  Biso   1.000  O
  C10      1.0000 0.19052  0.91160  0.80521  Biso   1.000  C
  C11      1.0000 0.20568  0.95818  0.78737  Biso   1.000  C
  C12      1.0000 0.20627  0.98791  0.82893  Biso   1.000  C
  H8       1.0000 0.19667  0.97873  0.86813  Biso   1.000  H
  C13      1.0000 0.22097  0.03094  0.81294  Biso   1.000  C
  H9       1.0000 0.22107  0.05043  0.84143  Biso   1.000  H
  C14      1.0000 0.23573  0.04573  0.75448  Biso   1.000  C
  C15      1.0000 0.23464  0.01579  0.71333  Biso   1.000  C
  H10      1.0000 0.24397  0.02473  0.67403  Biso   1.000  H
  C16      1.0000 0.21984  0.97254  0.72961  Biso   1.000  C
  H11      1.0000 0.21947  0.95293  0.70113  Biso   1.000  H
  C17      1.0000 0.25461  0.09254  0.73757  Biso   1.000  C
  C18      1.0000 0.29268  0.11257  0.70333  Biso   1.000  C
  H12      1.0000 0.30557  0.09603  0.69223  Biso   1.000  H
  H13      1.0000 0.15587  0.05553  0.72923  Biso   1.000  H
  H14      1.0000 0.12397  0.08423  0.82393  Biso   1.000  H
  O5       1.0000 0.85848  0.22033  0.09804  Biso   1.000  O
  O6       1.0000 0.84457  0.23386  0.19200  Biso   1.000  O
  C19      1.0000 0.85718  0.24494  0.13855  Biso   1.000  C
  C20      1.0000 0.87234  0.29152  0.12071  Biso   1.000  C
  C21      1.0000 0.87293  0.32125  0.16227  Biso   1.000  C
  H15      1.0000 0.86333  0.31207  0.20147  Biso   1.000  H
  C22      1.0000 0.88763  0.36428  0.14628  Biso   1.000  C
  H16      1.0000 0.88773  0.38377  0.17477  Biso   1.000  H
  C23      1.0000 0.90239  0.37907  0.08782  Biso   1.000  C
  C24      1.0000 0.90130  0.34913  0.04667  Biso   1.000  C
  H17      1.0000 0.91063  0.35807  0.00737  Biso   1.000  H
  C25      1.0000 0.88650  0.30588  0.06295  Biso   1.000  C
  H18      1.0000 0.88613  0.28627  0.03447  Biso   1.000  H
  C26      1.0000 0.92127  0.42588  0.07091  Biso   1.000  C
  C27      1.0000 0.95934  0.44591  0.03667  Biso   1.000  C
  H19      1.0000 0.97223  0.42937  0.02557  Biso   1.000  H
  H20      1.0000 0.82253  0.38887  0.06257  Biso   1.000  H
  H21      1.0000 0.79063  0.41757  0.15727  Biso   1.000  H
  O7       1.0000 0.44634  0.97149  0.43137  Biso   1.000  O
  O8       1.0000 0.43281  0.94405  0.52533  Biso   1.000  O
  C28      1.0000 0.42173  0.94558  0.47188  Biso   1.000  C
  C29      1.0000 0.37515  0.91416  0.45404  Biso   1.000  C
  C30      1.0000 0.34542  0.88502  0.49560  Biso   1.000  C
  H22      1.0000 0.35460  0.88460  0.53480  Biso   1.000  H
  C31      1.0000 0.30239  0.85669  0.47961  Biso   1.000  C
  H23      1.0000 0.28290  0.83730  0.50810  Biso   1.000  H
  C32      1.0000 0.28760  0.85666  0.42115  Biso   1.000  C
  C33      1.0000 0.31754  0.88551  0.38000  Biso   1.000  C
  H24      1.0000 0.30860  0.88590  0.34070  Biso   1.000  H
  C34      1.0000 0.36079  0.91396  0.39628  Biso   1.000  C
  H25      1.0000 0.38040  0.93320  0.36780  Biso   1.000  H
  C35      1.0000 0.24079  0.82873  0.40424  Biso   1.000  C
  C36      1.0000 0.22076  0.84677  0.37000  Biso   1.000  C
  H26      1.0000 0.23730  0.87620  0.35890  Biso   1.000  H
  H27      1.0000 0.27780  0.76700  0.39590  Biso   1.000  H
  H28      1.0000 0.24910  0.70640  0.49060  Biso   1.000  H
  O9       1.0000 0.11301  0.30482  0.76470  Biso   1.000  O
  O10      1.0000 0.09948  0.27738  0.85866  Biso   1.000  O
  C37      1.0000 0.08840  0.27891  0.80521  Biso   1.000  C
  C38      1.0000 0.04182  0.24749  0.78737  Biso   1.000  C
  C39      1.0000 0.01209  0.21835  0.82893  Biso   1.000  C
  H29      1.0000 0.02127  0.21793  0.86813  Biso   1.000  H
  C40      1.0000 0.96906  0.19002  0.81294  Biso   1.000  C
  H30      1.0000 0.94957  0.17063  0.84143  Biso   1.000  H
  C41      1.0000 0.95427  0.18999  0.75448  Biso   1.000  C
  C42      1.0000 0.98421  0.21884  0.71333  Biso   1.000  C
  H31      1.0000 0.97527  0.21923  0.67403  Biso   1.000  H
  C43      1.0000 0.02746  0.24729  0.72961  Biso   1.000  C
  H32      1.0000 0.04707  0.26653  0.70113  Biso   1.000  H
  C44      1.0000 0.90746  0.16206  0.73757  Biso   1.000  C
  C45      1.0000 0.88743  0.18010  0.70333  Biso   1.000  C
  H33      1.0000 0.90397  0.20953  0.69223  Biso   1.000  H
  H34      1.0000 0.94447  0.10033  0.72923  Biso   1.000  H
  H35      1.0000 0.91577  0.03973  0.82393  Biso   1.000  H
  O11      1.0000 0.77967  0.63816  0.09804  Biso   1.000  O
  O12      1.0000 0.76614  0.61072  0.19200  Biso   1.000  O
  C46      1.0000 0.75506  0.61225  0.13855  Biso   1.000  C
  C47      1.0000 0.70848  0.58083  0.12071  Biso   1.000  C
  C48      1.0000 0.67875  0.55169  0.16227  Biso   1.000  C
  H36      1.0000 0.68793  0.55127  0.20147  Biso   1.000  H
  C49      1.0000 0.63572  0.52336  0.14628  Biso   1.000  C
  H37      1.0000 0.61623  0.50397  0.17477  Biso   1.000  H
  C50      1.0000 0.62093  0.52333  0.08782  Biso   1.000  C
  C51      1.0000 0.65087  0.55218  0.04667  Biso   1.000  C
  H38      1.0000 0.64193  0.55257  0.00737  Biso   1.000  H
  C52      1.0000 0.69412  0.58063  0.06295  Biso   1.000  C
  H39      1.0000 0.71373  0.59987  0.03447  Biso   1.000  H
  C53      1.0000 0.57412  0.49540  0.07091  Biso   1.000  C
  C54      1.0000 0.55409  0.51344  0.03667  Biso   1.000  C
  H40      1.0000 0.57063  0.54287  0.02557  Biso   1.000  H
  H41      1.0000 0.61113  0.43367  0.06257  Biso   1.000  H
  H42      1.0000 0.58243  0.37307  0.15727  Biso   1.000  H
  O13      1.0000 0.02851  0.47485  0.43137  Biso   1.000  O
  O14      1.0000 0.05595  0.48876  0.52533  Biso   1.000  O
  C55      1.0000 0.05442  0.47615  0.47188  Biso   1.000  C
  C56      1.0000 0.08584  0.46099  0.45404  Biso   1.000  C
  C57      1.0000 0.11498  0.46040  0.49560  Biso   1.000  C
  H43      1.0000 0.11540  0.47000  0.53480  Biso   1.000  H
  C58      1.0000 0.14331  0.44570  0.47961  Biso   1.000  C
  H44      1.0000 0.16270  0.44560  0.50810  Biso   1.000  H
  C59      1.0000 0.14334  0.43094  0.42115  Biso   1.000  C
  C60      1.0000 0.11449  0.43203  0.38000  Biso   1.000  C
  H45      1.0000 0.11410  0.42270  0.34070  Biso   1.000  H
  C61      1.0000 0.08604  0.44683  0.39628  Biso   1.000  C
  H46      1.0000 0.06680  0.44720  0.36780  Biso   1.000  H
  C62      1.0000 0.17127  0.41206  0.40424  Biso   1.000  C
  C63      1.0000 0.15323  0.37399  0.37000  Biso   1.000  C
  H47      1.0000 0.12380  0.36110  0.35890  Biso   1.000  H
  H48      1.0000 0.23300  0.51080  0.39590  Biso   1.000  H
  H49      1.0000 0.29360  0.54270  0.49060  Biso   1.000  H
  O15      1.0000 0.69518  0.80818  0.76470  Biso   1.000  O
  O16      1.0000 0.72262  0.82209  0.85866  Biso   1.000  O
  C64      1.0000 0.72109  0.80948  0.80521  Biso   1.000  C
  C65      1.0000 0.75251  0.79432  0.78737  Biso   1.000  C
  C66      1.0000 0.78165  0.79373  0.82893  Biso   1.000  C
  H50      1.0000 0.78207  0.80333  0.86813  Biso   1.000  H
  C67      1.0000 0.80998  0.77903  0.81294  Biso   1.000  C
  H51      1.0000 0.82937  0.77893  0.84143  Biso   1.000  H
  C68      1.0000 0.81001  0.76427  0.75448  Biso   1.000  C
  C69      1.0000 0.78116  0.76536  0.71333  Biso   1.000  C
  H52      1.0000 0.78077  0.75603  0.67403  Biso   1.000  H
  C70      1.0000 0.75271  0.78016  0.72961  Biso   1.000  C
  H53      1.0000 0.73347  0.78053  0.70113  Biso   1.000  H
  C71      1.0000 0.83794  0.74539  0.73757  Biso   1.000  C
  C72      1.0000 0.81990  0.70732  0.70333  Biso   1.000  C
  H54      1.0000 0.79047  0.69443  0.69223  Biso   1.000  H
  H55      1.0000 0.89967  0.84413  0.72923  Biso   1.000  H
  H56      1.0000 0.96027  0.87603  0.82393  Biso   1.000  H
  O17      1.0000 0.36184  0.14152  0.09804  Biso   1.000  O
  O18      1.0000 0.38928  0.15543  0.19200  Biso   1.000  O
  C73      1.0000 0.38775  0.14282  0.13855  Biso   1.000  C
  C74      1.0000 0.41917  0.12766  0.12071  Biso   1.000  C
  C75      1.0000 0.44831  0.12707  0.16227  Biso   1.000  C
  H57      1.0000 0.44873  0.13667  0.20147  Biso   1.000  H
  C76      1.0000 0.47664  0.11237  0.14628  Biso   1.000  C
  H58      1.0000 0.49603  0.11227  0.17477  Biso   1.000  H
  C77      1.0000 0.47667  0.09761  0.08782  Biso   1.000  C
  C78      1.0000 0.44782  0.09870  0.04667  Biso   1.000  C
  H59      1.0000 0.44743  0.08937  0.00737  Biso   1.000  H
  C79      1.0000 0.41937  0.11350  0.06295  Biso   1.000  C
  H60      1.0000 0.40013  0.11387  0.03447  Biso   1.000  H
  C80      1.0000 0.50460  0.07873  0.07091  Biso   1.000  C
  C81      1.0000 0.48656  0.04066  0.03667  Biso   1.000  C
  H61      1.0000 0.45713  0.02777  0.02557  Biso   1.000  H
  H62      1.0000 0.56633  0.17747  0.06257  Biso   1.000  H
  H63      1.0000 0.62693  0.20937  0.15727  Biso   1.000  H
  O19      1.0000 0.55366  0.52515  0.56863  Biso   1.000  O
  O20      1.0000 0.56719  0.51124  0.47467  Biso   1.000  O
  C82      1.0000 0.57827  0.52385  0.52812  Biso   1.000  C
  C83      1.0000 0.62485  0.53901  0.54596  Biso   1.000  C
  C84      1.0000 0.65458  0.53960  0.50440  Biso   1.000  C
  H64      1.0000 0.64540  0.53000  0.46520  Biso   1.000  H
  C85      1.0000 0.69761  0.55430  0.52039  Biso   1.000  C
  H65      1.0000 0.71710  0.55440  0.49190  Biso   1.000  H
  C86      1.0000 0.71240  0.56906  0.57885  Biso   1.000  C
  C87      1.0000 0.68246  0.56797  0.62000  Biso   1.000  C
  H66      1.0000 0.69140  0.57730  0.65930  Biso   1.000  H
  C88      1.0000 0.63921  0.55317  0.60372  Biso   1.000  C
  H67      1.0000 0.61960  0.55280  0.63220  Biso   1.000  H
  C89      1.0000 0.75921  0.58794  0.59576  Biso   1.000  C
  C90      1.0000 0.77924  0.62601  0.63000  Biso   1.000  C
  H68      1.0000 0.76270  0.63890  0.64110  Biso   1.000  H
  H69      1.0000 0.72220  0.48920  0.60410  Biso   1.000  H
  H70      1.0000 0.75090  0.45730  0.50940  Biso   1.000  H
  O21      1.0000 0.22033  0.85848  0.90196  Biso   1.000  O
  O22      1.0000 0.23386  0.84457  0.80800  Biso   1.000  O
  C91      1.0000 0.24494  0.85718  0.86145  Biso   1.000  C
  C92      1.0000 0.29152  0.87234  0.87929  Biso   1.000  C
  C93      1.0000 0.32125  0.87293  0.83773  Biso   1.000  C
  H71      1.0000 0.31207  0.86333  0.79853  Biso   1.000  H
  C94      1.0000 0.36428  0.88763  0.85372  Biso   1.000  C
  H72      1.0000 0.38377  0.88773  0.82523  Biso   1.000  H
  C95      1.0000 0.37907  0.90239  0.91218  Biso   1.000  C
  C96      1.0000 0.34913  0.90130  0.95333  Biso   1.000  C
  H73      1.0000 0.35807  0.91063  0.99263  Biso   1.000  H
  C97      1.0000 0.30588  0.88650  0.93705  Biso   1.000  C
  H74      1.0000 0.28627  0.88613  0.96553  Biso   1.000  H
  C98      1.0000 0.42588  0.92127  0.92909  Biso   1.000  C
  C99      1.0000 0.44591  0.95934  0.96333  Biso   1.000  C
  H75      1.0000 0.42937  0.97223  0.97443  Biso   1.000  H
  H76      1.0000 0.38887  0.82253  0.93743  Biso   1.000  H
  H77      1.0000 0.41757  0.79063  0.84273  Biso   1.000  H
  O23      1.0000 0.88699  0.19182  0.23530  Biso   1.000  O
  O24      1.0000 0.90052  0.17791  0.14134  Biso   1.000  O
  C100     1.0000 0.91160  0.19052  0.19479  Biso   1.000  C
  C101     1.0000 0.95818  0.20568  0.21263  Biso   1.000  C
  C102     1.0000 0.98791  0.20627  0.17107  Biso   1.000  C
  H78      1.0000 0.97873  0.19667  0.13187  Biso   1.000  H
  C103     1.0000 0.03094  0.22097  0.18706  Biso   1.000  C
  H79      1.0000 0.05043  0.22107  0.15857  Biso   1.000  H
  C104     1.0000 0.04573  0.23573  0.24552  Biso   1.000  C
  C105     1.0000 0.01579  0.23464  0.28667  Biso   1.000  C
  H80      1.0000 0.02473  0.24397  0.32597  Biso   1.000  H
  C106     1.0000 0.97254  0.21984  0.27039  Biso   1.000  C
  H81      1.0000 0.95293  0.21947  0.29887  Biso   1.000  H
  C107     1.0000 0.09254  0.25461  0.26243  Biso   1.000  C
  C108     1.0000 0.11257  0.29268  0.29667  Biso   1.000  C
  H82      1.0000 0.09603  0.30557  0.30777  Biso   1.000  H
  H83      1.0000 0.05553  0.15587  0.27077  Biso   1.000  H
  H84      1.0000 0.08423  0.12397  0.17607  Biso   1.000  H
  O25      1.0000 0.97149  0.44634  0.56863  Biso   1.000  O
  O26      1.0000 0.94405  0.43281  0.47467  Biso   1.000  O
  C109     1.0000 0.94558  0.42173  0.52812  Biso   1.000  C
  C110     1.0000 0.91416  0.37515  0.54596  Biso   1.000  C
  C111     1.0000 0.88502  0.34542  0.50440  Biso   1.000  C
  H85      1.0000 0.88460  0.35460  0.46520  Biso   1.000  H
  C112     1.0000 0.85669  0.30239  0.52039  Biso   1.000  C
  H86      1.0000 0.83730  0.28290  0.49190  Biso   1.000  H
  C113     1.0000 0.85666  0.28760  0.57885  Biso   1.000  C
  C114     1.0000 0.88551  0.31754  0.62000  Biso   1.000  C
  H87      1.0000 0.88590  0.30860  0.65930  Biso   1.000  H
  C115     1.0000 0.91396  0.36079  0.60372  Biso   1.000  C
  H88      1.0000 0.93320  0.38040  0.63220  Biso   1.000  H
  C116     1.0000 0.82873  0.24079  0.59576  Biso   1.000  C
  C117     1.0000 0.84677  0.22076  0.63000  Biso   1.000  C
  H89      1.0000 0.87620  0.23730  0.64110  Biso   1.000  H
  H90      1.0000 0.76700  0.27780  0.60410  Biso   1.000  H
  H91      1.0000 0.70640  0.24910  0.50940  Biso   1.000  H
  O27      1.0000 0.63816  0.77967  0.90196  Biso   1.000  O
  O28      1.0000 0.61072  0.76614  0.80800  Biso   1.000  O
  C118     1.0000 0.61225  0.75506  0.86145  Biso   1.000  C
  C119     1.0000 0.58083  0.70848  0.87929  Biso   1.000  C
  C120     1.0000 0.55169  0.67875  0.83773  Biso   1.000  C
  H92      1.0000 0.55127  0.68793  0.79853  Biso   1.000  H
  C121     1.0000 0.52336  0.63572  0.85372  Biso   1.000  C
  H93      1.0000 0.50397  0.61623  0.82523  Biso   1.000  H
  C122     1.0000 0.52333  0.62093  0.91218  Biso   1.000  C
  C123     1.0000 0.55218  0.65087  0.95333  Biso   1.000  C
  H94      1.0000 0.55257  0.64193  0.99263  Biso   1.000  H
  C124     1.0000 0.58063  0.69412  0.93705  Biso   1.000  C
  H95      1.0000 0.59987  0.71373  0.96553  Biso   1.000  H
  C125     1.0000 0.49540  0.57412  0.92909  Biso   1.000  C
  C126     1.0000 0.51344  0.55409  0.96333  Biso   1.000  C
  H96      1.0000 0.54287  0.57063  0.97443  Biso   1.000  H
  H97      1.0000 0.43367  0.61113  0.93743  Biso   1.000  H
  H98      1.0000 0.37307  0.58243  0.84273  Biso   1.000  H
  O29      1.0000 0.30482  0.11301  0.23530  Biso   1.000  O
  O30      1.0000 0.27738  0.09948  0.14134  Biso   1.000  O
  C127     1.0000 0.27891  0.08840  0.19479  Biso   1.000  C
  C128     1.0000 0.24749  0.04182  0.21263  Biso   1.000  C
  C129     1.0000 0.21835  0.01209  0.17107  Biso   1.000  C
  H99      1.0000 0.21793  0.02127  0.13187  Biso   1.000  H
  C130     1.0000 0.19002  0.96906  0.18706  Biso   1.000  C
  H100     1.0000 0.17063  0.94957  0.15857  Biso   1.000  H
  C131     1.0000 0.18999  0.95427  0.24552  Biso   1.000  C
  C132     1.0000 0.21884  0.98421  0.28667  Biso   1.000  C
  H101     1.0000 0.21923  0.97527  0.32597  Biso   1.000  H
  C133     1.0000 0.24729  0.02746  0.27039  Biso   1.000  C
  H102     1.0000 0.26653  0.04707  0.29887  Biso   1.000  H
  C134     1.0000 0.16206  0.90746  0.26243  Biso   1.000  C
  C135     1.0000 0.18010  0.88743  0.29667  Biso   1.000  C
  H103     1.0000 0.20953  0.90397  0.30777  Biso   1.000  H
  H104     1.0000 0.10033  0.94447  0.27077  Biso   1.000  H
  H105     1.0000 0.03973  0.91577  0.17607  Biso   1.000  H
  O31      1.0000 0.47485  0.02851  0.56863  Biso   1.000  O
  O32      1.0000 0.48876  0.05595  0.47467  Biso   1.000  O
  C136     1.0000 0.47615  0.05442  0.52812  Biso   1.000  C
  C137     1.0000 0.46099  0.08584  0.54596  Biso   1.000  C
  C138     1.0000 0.46040  0.11498  0.50440  Biso   1.000  C
  H106     1.0000 0.47000  0.11540  0.46520  Biso   1.000  H
  C139     1.0000 0.44570  0.14331  0.52039  Biso   1.000  C
  H107     1.0000 0.44560  0.16270  0.49190  Biso   1.000  H
  C140     1.0000 0.43094  0.14334  0.57885  Biso   1.000  C
  C141     1.0000 0.43203  0.11449  0.62000  Biso   1.000  C
  H108     1.0000 0.42270  0.11410  0.65930  Biso   1.000  H
  C142     1.0000 0.44683  0.08604  0.60372  Biso   1.000  C
  H109     1.0000 0.44720  0.06680  0.63220  Biso   1.000  H
  C143     1.0000 0.41206  0.17127  0.59576  Biso   1.000  C
  C144     1.0000 0.37399  0.15323  0.63000  Biso   1.000  C
  H110     1.0000 0.36110  0.12380  0.64110  Biso   1.000  H
  H111     1.0000 0.51080  0.23300  0.60410  Biso   1.000  H
  H112     1.0000 0.54270  0.29360  0.50940  Biso   1.000  H
  O33      1.0000 0.14152  0.36184  0.90196  Biso   1.000  O
  O34      1.0000 0.15543  0.38928  0.80800  Biso   1.000  O
  C145     1.0000 0.14282  0.38775  0.86145  Biso   1.000  C
  C146     1.0000 0.12766  0.41917  0.87929  Biso   1.000  C
  C147     1.0000 0.12707  0.44831  0.83773  Biso   1.000  C
  H113     1.0000 0.13667  0.44873  0.79853  Biso   1.000  H
  C148     1.0000 0.11237  0.47664  0.85372  Biso   1.000  C
  H114     1.0000 0.11227  0.49603  0.82523  Biso   1.000  H
  C149     1.0000 0.09761  0.47667  0.91218  Biso   1.000  C
  C150     1.0000 0.09870  0.44782  0.95333  Biso   1.000  C
  H115     1.0000 0.08937  0.44743  0.99263  Biso   1.000  H
  C151     1.0000 0.11350  0.41937  0.93705  Biso   1.000  C
  H116     1.0000 0.11387  0.40013  0.96553  Biso   1.000  H
  C152     1.0000 0.07873  0.50460  0.92909  Biso   1.000  C
  C153     1.0000 0.04066  0.48656  0.96333  Biso   1.000  C
  H117     1.0000 0.02777  0.45713  0.97443  Biso   1.000  H
  H118     1.0000 0.17747  0.56633  0.93743  Biso   1.000  H
  H119     1.0000 0.20937  0.62693  0.84273  Biso   1.000  H
  O35      1.0000 0.80818  0.69518  0.23530  Biso   1.000  O
  O36      1.0000 0.82209  0.72262  0.14134  Biso   1.000  O
  C154     1.0000 0.80948  0.72109  0.19479  Biso   1.000  C
  C155     1.0000 0.79432  0.75251  0.21263  Biso   1.000  C
  C156     1.0000 0.79373  0.78165  0.17107  Biso   1.000  C
  H120     1.0000 0.80333  0.78207  0.13187  Biso   1.000  H
  C157     1.0000 0.77903  0.80998  0.18706  Biso   1.000  C
  H121     1.0000 0.77893  0.82937  0.15857  Biso   1.000  H
  C158     1.0000 0.76427  0.81001  0.24552  Biso   1.000  C
  C159     1.0000 0.76536  0.78116  0.28667  Biso   1.000  C
  H122     1.0000 0.75603  0.78077  0.32597  Biso   1.000  H
  C160     1.0000 0.78016  0.75271  0.27039  Biso   1.000  C
  H123     1.0000 0.78053  0.73347  0.29887  Biso   1.000  H
  C161     1.0000 0.74539  0.83794  0.26243  Biso   1.000  C
  C162     1.0000 0.70732  0.81990  0.29667  Biso   1.000  C
  H124     1.0000 0.69443  0.79047  0.30777  Biso   1.000  H
  H125     1.0000 0.84413  0.89967  0.27077  Biso   1.000  H
  H126     1.0000 0.87603  0.96027  0.17607  Biso   1.000  H
  O37      1.0000 0.47485  0.44634  0.56863  Biso   1.000  O
  O38      1.0000 0.48876  0.43281  0.47467  Biso   1.000  O
  C163     1.0000 0.47615  0.42173  0.52812  Biso   1.000  C
  C164     1.0000 0.46099  0.37515  0.54596  Biso   1.000  C
  C165     1.0000 0.46040  0.34542  0.50440  Biso   1.000  C
  H127     1.0000 0.47000  0.35460  0.46520  Biso   1.000  H
  C166     1.0000 0.44570  0.30239  0.52039  Biso   1.000  C
  H128     1.0000 0.44560  0.28290  0.49190  Biso   1.000  H
  C167     1.0000 0.43094  0.28760  0.57885  Biso   1.000  C
  C168     1.0000 0.43203  0.31754  0.62000  Biso   1.000  C
  H129     1.0000 0.42270  0.30860  0.65930  Biso   1.000  H
  C169     1.0000 0.44683  0.36079  0.60372  Biso   1.000  C
  H130     1.0000 0.44720  0.38040  0.63220  Biso   1.000  H
  C170     1.0000 0.41206  0.24079  0.59576  Biso   1.000  C
  C171     1.0000 0.37399  0.22076  0.63000  Biso   1.000  C
  H131     1.0000 0.36110  0.23730  0.64110  Biso   1.000  H
  H132     1.0000 0.51080  0.27780  0.60410  Biso   1.000  H
  H133     1.0000 0.54270  0.24910  0.50940  Biso   1.000  H
  O39      1.0000 0.14152  0.77967  0.90196  Biso   1.000  O
  O40      1.0000 0.15543  0.76614  0.80800  Biso   1.000  O
  C172     1.0000 0.14282  0.75506  0.86145  Biso   1.000  C
  C173     1.0000 0.12766  0.70848  0.87929  Biso   1.000  C
  C174     1.0000 0.12707  0.67875  0.83773  Biso   1.000  C
  H134     1.0000 0.13667  0.68793  0.79853  Biso   1.000  H
  C175     1.0000 0.11237  0.63572  0.85372  Biso   1.000  C
  H135     1.0000 0.11227  0.61623  0.82523  Biso   1.000  H
  C176     1.0000 0.09761  0.62093  0.91218  Biso   1.000  C
  C177     1.0000 0.09870  0.65087  0.95333  Biso   1.000  C
  H136     1.0000 0.08937  0.64193  0.99263  Biso   1.000  H
  C178     1.0000 0.11350  0.69412  0.93705  Biso   1.000  C
  H137     1.0000 0.11387  0.71373  0.96553  Biso   1.000  H
  C179     1.0000 0.07873  0.57412  0.92909  Biso   1.000  C
  C180     1.0000 0.04066  0.55409  0.96333  Biso   1.000  C
  H138     1.0000 0.02777  0.57063  0.97443  Biso   1.000  H
  H139     1.0000 0.17747  0.61113  0.93743  Biso   1.000  H
  H140     1.0000 0.20937  0.58243  0.84273  Biso   1.000  H
  O41      1.0000 0.80818  0.11301  0.23530  Biso   1.000  O
  O42      1.0000 0.82209  0.09948  0.14134  Biso   1.000  O
  C181     1.0000 0.80948  0.08840  0.19479  Biso   1.000  C
  C182     1.0000 0.79432  0.04182  0.21263  Biso   1.000  C
  C183     1.0000 0.79373  0.01209  0.17107  Biso   1.000  C
  H141     1.0000 0.80333  0.02127  0.13187  Biso   1.000  H
  C184     1.0000 0.77903  0.96906  0.18706  Biso   1.000  C
  H142     1.0000 0.77893  0.94957  0.15857  Biso   1.000  H
  C185     1.0000 0.76427  0.95427  0.24552  Biso   1.000  C
  C186     1.0000 0.76536  0.98421  0.28667  Biso   1.000  C
  H143     1.0000 0.75603  0.97527  0.32597  Biso   1.000  H
  C187     1.0000 0.78016  0.02746  0.27039  Biso   1.000  C
  H144     1.0000 0.78053  0.04707  0.29887  Biso   1.000  H
  C188     1.0000 0.74539  0.90746  0.26243  Biso   1.000  C
  C189     1.0000 0.70732  0.88743  0.29667  Biso   1.000  C
  H145     1.0000 0.69443  0.90397  0.30777  Biso   1.000  H
  H146     1.0000 0.84413  0.94447  0.27077  Biso   1.000  H
  H147     1.0000 0.87603  0.91577  0.17607  Biso   1.000  H
  O43      1.0000 0.55366  0.02851  0.56863  Biso   1.000  O
  O44      1.0000 0.56719  0.05595  0.47467  Biso   1.000  O
  C190     1.0000 0.57827  0.05442  0.52812  Biso   1.000  C
  C191     1.0000 0.62485  0.08584  0.54596  Biso   1.000  C
  C192     1.0000 0.65458  0.11498  0.50440  Biso   1.000  C
  H148     1.0000 0.64540  0.11540  0.46520  Biso   1.000  H
  C193     1.0000 0.69761  0.14331  0.52039  Biso   1.000  C
  H149     1.0000 0.71710  0.16270  0.49190  Biso   1.000  H
  C194     1.0000 0.71240  0.14334  0.57885  Biso   1.000  C
  C195     1.0000 0.68246  0.11449  0.62000  Biso   1.000  C
  H150     1.0000 0.69140  0.11410  0.65930  Biso   1.000  H
  C196     1.0000 0.63921  0.08604  0.60372  Biso   1.000  C
  H151     1.0000 0.61960  0.06680  0.63220  Biso   1.000  H
  C197     1.0000 0.75921  0.17127  0.59576  Biso   1.000  C
  C198     1.0000 0.77924  0.15323  0.63000  Biso   1.000  C
  H152     1.0000 0.76270  0.12380  0.64110  Biso   1.000  H
  H153     1.0000 0.72220  0.23300  0.60410  Biso   1.000  H
  H154     1.0000 0.75090  0.29360  0.50940  Biso   1.000  H
  O45      1.0000 0.22033  0.36184  0.90196  Biso   1.000  O
  O46      1.0000 0.23386  0.38928  0.80800  Biso   1.000  O
  C199     1.0000 0.24494  0.38775  0.86145  Biso   1.000  C
  C200     1.0000 0.29152  0.41917  0.87929  Biso   1.000  C
  C201     1.0000 0.32125  0.44831  0.83773  Biso   1.000  C
  H155     1.0000 0.31207  0.44873  0.79853  Biso   1.000  H
  C202     1.0000 0.36428  0.47664  0.85372  Biso   1.000  C
  H156     1.0000 0.38377  0.49603  0.82523  Biso   1.000  H
  C203     1.0000 0.37907  0.47667  0.91218  Biso   1.000  C
  C204     1.0000 0.34913  0.44782  0.95333  Biso   1.000  C
  H157     1.0000 0.35807  0.44743  0.99263  Biso   1.000  H
  C205     1.0000 0.30588  0.41937  0.93705  Biso   1.000  C
  H158     1.0000 0.28627  0.40013  0.96553  Biso   1.000  H
  C206     1.0000 0.42588  0.50460  0.92909  Biso   1.000  C
  C207     1.0000 0.44591  0.48656  0.96333  Biso   1.000  C
  H159     1.0000 0.42937  0.45713  0.97443  Biso   1.000  H
  H160     1.0000 0.38887  0.56633  0.93743  Biso   1.000  H
  H161     1.0000 0.41757  0.62693  0.84273  Biso   1.000  H
  O47      1.0000 0.88699  0.69518  0.23530  Biso   1.000  O
  O48      1.0000 0.90052  0.72262  0.14134  Biso   1.000  O
  C208     1.0000 0.91160  0.72109  0.19479  Biso   1.000  C
  C209     1.0000 0.95818  0.75251  0.21263  Biso   1.000  C
  C210     1.0000 0.98791  0.78165  0.17107  Biso   1.000  C
  H162     1.0000 0.97873  0.78207  0.13187  Biso   1.000  H
  C211     1.0000 0.03094  0.80998  0.18706  Biso   1.000  C
  H163     1.0000 0.05043  0.82937  0.15857  Biso   1.000  H
  C212     1.0000 0.04573  0.81001  0.24552  Biso   1.000  C
  C213     1.0000 0.01579  0.78116  0.28667  Biso   1.000  C
  H164     1.0000 0.02473  0.78077  0.32597  Biso   1.000  H
  C214     1.0000 0.97254  0.75271  0.27039  Biso   1.000  C
  H165     1.0000 0.95293  0.73347  0.29887  Biso   1.000  H
  C215     1.0000 0.09254  0.83794  0.26243  Biso   1.000  C
  C216     1.0000 0.11257  0.81990  0.29667  Biso   1.000  C
  H166     1.0000 0.09603  0.79047  0.30777  Biso   1.000  H
  H167     1.0000 0.05553  0.89967  0.27077  Biso   1.000  H
  H168     1.0000 0.08423  0.96027  0.17607  Biso   1.000  H
  O49      1.0000 0.97149  0.52515  0.56863  Biso   1.000  O
  O50      1.0000 0.94405  0.51124  0.47467  Biso   1.000  O
  C217     1.0000 0.94558  0.52385  0.52812  Biso   1.000  C
  C218     1.0000 0.91416  0.53901  0.54596  Biso   1.000  C
  C219     1.0000 0.88502  0.53960  0.50440  Biso   1.000  C
  H169     1.0000 0.88460  0.53000  0.46520  Biso   1.000  H
  C220     1.0000 0.85669  0.55430  0.52039  Biso   1.000  C
  H170     1.0000 0.83730  0.55440  0.49190  Biso   1.000  H
  C221     1.0000 0.85666  0.56906  0.57885  Biso   1.000  C
  C222     1.0000 0.88551  0.56797  0.62000  Biso   1.000  C
  H171     1.0000 0.88590  0.57730  0.65930  Biso   1.000  H
  C223     1.0000 0.91396  0.55317  0.60372  Biso   1.000  C
  H172     1.0000 0.93320  0.55280  0.63220  Biso   1.000  H
  C224     1.0000 0.82873  0.58794  0.59576  Biso   1.000  C
  C225     1.0000 0.84677  0.62601  0.63000  Biso   1.000  C
  H173     1.0000 0.87620  0.63890  0.64110  Biso   1.000  H
  H174     1.0000 0.76700  0.48920  0.60410  Biso   1.000  H
  H175     1.0000 0.70640  0.45730  0.50940  Biso   1.000  H
  O51      1.0000 0.63816  0.85848  0.90196  Biso   1.000  O
  O52      1.0000 0.61072  0.84457  0.80800  Biso   1.000  O
  C226     1.0000 0.61225  0.85718  0.86145  Biso   1.000  C
  C227     1.0000 0.58083  0.87234  0.87929  Biso   1.000  C
  C228     1.0000 0.55169  0.87293  0.83773  Biso   1.000  C
  H176     1.0000 0.55127  0.86333  0.79853  Biso   1.000  H
  C229     1.0000 0.52336  0.88763  0.85372  Biso   1.000  C
  H177     1.0000 0.50397  0.88773  0.82523  Biso   1.000  H
  C230     1.0000 0.52333  0.90239  0.91218  Biso   1.000  C
  C231     1.0000 0.55218  0.90130  0.95333  Biso   1.000  C
  H178     1.0000 0.55257  0.91063  0.99263  Biso   1.000  H
  C232     1.0000 0.58063  0.88650  0.93705  Biso   1.000  C
  H179     1.0000 0.59987  0.88613  0.96553  Biso   1.000  H
  C233     1.0000 0.49540  0.92127  0.92909  Biso   1.000  C
  C234     1.0000 0.51344  0.95934  0.96333  Biso   1.000  C
  H180     1.0000 0.54287  0.97223  0.97443  Biso   1.000  H
  H181     1.0000 0.43367  0.82253  0.93743  Biso   1.000  H
  H182     1.0000 0.37307  0.79063  0.84273  Biso   1.000  H
  O53      1.0000 0.30482  0.19182  0.23530  Biso   1.000  O
  O54      1.0000 0.27738  0.17791  0.14134  Biso   1.000  O
  C235     1.0000 0.27891  0.19052  0.19479  Biso   1.000  C
  C236     1.0000 0.24749  0.20568  0.21263  Biso   1.000  C
  C237     1.0000 0.21835  0.20627  0.17107  Biso   1.000  C
  H183     1.0000 0.21793  0.19667  0.13187  Biso   1.000  H
  C238     1.0000 0.19002  0.22097  0.18706  Biso   1.000  C
  H184     1.0000 0.17063  0.22107  0.15857  Biso   1.000  H
  C239     1.0000 0.18999  0.23573  0.24552  Biso   1.000  C
  C240     1.0000 0.21884  0.23464  0.28667  Biso   1.000  C
  H185     1.0000 0.21923  0.24397  0.32597  Biso   1.000  H
  C241     1.0000 0.24729  0.21984  0.27039  Biso   1.000  C
  H186     1.0000 0.26653  0.21947  0.29887  Biso   1.000  H
  C242     1.0000 0.16206  0.25461  0.26243  Biso   1.000  C
  C243     1.0000 0.18010  0.29268  0.29667  Biso   1.000  C
  H187     1.0000 0.20953  0.30557  0.30777  Biso   1.000  H
  H188     1.0000 0.10033  0.15587  0.27077  Biso   1.000  H
  H189     1.0000 0.03973  0.12397  0.17607  Biso   1.000  H
  O55      1.0000 0.44634  0.47485  0.43137  Biso   1.000  O
  O56      1.0000 0.43281  0.48876  0.52533  Biso   1.000  O
  C244     1.0000 0.42173  0.47615  0.47188  Biso   1.000  C
  C245     1.0000 0.37515  0.46099  0.45404  Biso   1.000  C
  C246     1.0000 0.34542  0.46040  0.49560  Biso   1.000  C
  H190     1.0000 0.35460  0.47000  0.53480  Biso   1.000  H
  C247     1.0000 0.30239  0.44570  0.47961  Biso   1.000  C
  H191     1.0000 0.28290  0.44560  0.50810  Biso   1.000  H
  C248     1.0000 0.28760  0.43094  0.42115  Biso   1.000  C
  C249     1.0000 0.31754  0.43203  0.38000  Biso   1.000  C
  H192     1.0000 0.30860  0.42270  0.34070  Biso   1.000  H
  C250     1.0000 0.36079  0.44683  0.39628  Biso   1.000  C
  H193     1.0000 0.38040  0.44720  0.36780  Biso   1.000  H
  C251     1.0000 0.24079  0.41206  0.40424  Biso   1.000  C
  C252     1.0000 0.22076  0.37399  0.37000  Biso   1.000  C
  H194     1.0000 0.23730  0.36110  0.35890  Biso   1.000  H
  H195     1.0000 0.27780  0.51080  0.39590  Biso   1.000  H
  H196     1.0000 0.24910  0.54270  0.49060  Biso   1.000  H
  O57      1.0000 0.11301  0.80818  0.76470  Biso   1.000  O
  O58      1.0000 0.09948  0.82209  0.85866  Biso   1.000  O
  C253     1.0000 0.08840  0.80948  0.80521  Biso   1.000  C
  C254     1.0000 0.04182  0.79432  0.78737  Biso   1.000  C
  C255     1.0000 0.01209  0.79373  0.82893  Biso   1.000  C
  H197     1.0000 0.02127  0.80333  0.86813  Biso   1.000  H
  C256     1.0000 0.96906  0.77903  0.81294  Biso   1.000  C
  H198     1.0000 0.94957  0.77893  0.84143  Biso   1.000  H
  C257     1.0000 0.95427  0.76427  0.75448  Biso   1.000  C
  C258     1.0000 0.98421  0.76536  0.71333  Biso   1.000  C
  H199     1.0000 0.97527  0.75603  0.67403  Biso   1.000  H
  C259     1.0000 0.02746  0.78016  0.72961  Biso   1.000  C
  H200     1.0000 0.04707  0.78053  0.70113  Biso   1.000  H
  C260     1.0000 0.90746  0.74539  0.73757  Biso   1.000  C
  C261     1.0000 0.88743  0.70732  0.70333  Biso   1.000  C
  H201     1.0000 0.90397  0.69443  0.69223  Biso   1.000  H
  H202     1.0000 0.94447  0.84413  0.72923  Biso   1.000  H
  H203     1.0000 0.91577  0.87603  0.82393  Biso   1.000  H
  O59      1.0000 0.77967  0.14152  0.09804  Biso   1.000  O
  O60      1.0000 0.76614  0.15543  0.19200  Biso   1.000  O
  C262     1.0000 0.75506  0.14282  0.13855  Biso   1.000  C
  C263     1.0000 0.70848  0.12766  0.12071  Biso   1.000  C
  C264     1.0000 0.67875  0.12707  0.16227  Biso   1.000  C
  H204     1.0000 0.68793  0.13667  0.20147  Biso   1.000  H
  C265     1.0000 0.63572  0.11237  0.14628  Biso   1.000  C
  H205     1.0000 0.61623  0.11227  0.17477  Biso   1.000  H
  C266     1.0000 0.62093  0.09761  0.08782  Biso   1.000  C
  C267     1.0000 0.65087  0.09870  0.04667  Biso   1.000  C
  H206     1.0000 0.64193  0.08937  0.00737  Biso   1.000  H
  C268     1.0000 0.69412  0.11350  0.06295  Biso   1.000  C
  H207     1.0000 0.71373  0.11387  0.03447  Biso   1.000  H
  C269     1.0000 0.57412  0.07873  0.07091  Biso   1.000  C
  C270     1.0000 0.55409  0.04066  0.03667  Biso   1.000  C
  H208     1.0000 0.57063  0.02777  0.02557  Biso   1.000  H
  H209     1.0000 0.61113  0.17747  0.06257  Biso   1.000  H
  H210     1.0000 0.58243  0.20937  0.15727  Biso   1.000  H
  O61      1.0000 0.02851  0.55366  0.43137  Biso   1.000  O
  O62      1.0000 0.05595  0.56719  0.52533  Biso   1.000  O
  C271     1.0000 0.05442  0.57827  0.47188  Biso   1.000  C
  C272     1.0000 0.08584  0.62485  0.45404  Biso   1.000  C
  C273     1.0000 0.11498  0.65458  0.49560  Biso   1.000  C
  H211     1.0000 0.11540  0.64540  0.53480  Biso   1.000  H
  C274     1.0000 0.14331  0.69761  0.47961  Biso   1.000  C
  H212     1.0000 0.16270  0.71710  0.50810  Biso   1.000  H
  C275     1.0000 0.14334  0.71240  0.42115  Biso   1.000  C
  C276     1.0000 0.11449  0.68246  0.38000  Biso   1.000  C
  H213     1.0000 0.11410  0.69140  0.34070  Biso   1.000  H
  C277     1.0000 0.08604  0.63921  0.39628  Biso   1.000  C
  H214     1.0000 0.06680  0.61960  0.36780  Biso   1.000  H
  C278     1.0000 0.17127  0.75921  0.40424  Biso   1.000  C
  C279     1.0000 0.15323  0.77924  0.37000  Biso   1.000  C
  H215     1.0000 0.12380  0.76270  0.35890  Biso   1.000  H
  H216     1.0000 0.23300  0.72220  0.39590  Biso   1.000  H
  H217     1.0000 0.29360  0.75090  0.49060  Biso   1.000  H
  O63      1.0000 0.69518  0.88699  0.76470  Biso   1.000  O
  O64      1.0000 0.72262  0.90052  0.85866  Biso   1.000  O
  C280     1.0000 0.72109  0.91160  0.80521  Biso   1.000  C
  C281     1.0000 0.75251  0.95818  0.78737  Biso   1.000  C
  C282     1.0000 0.78165  0.98791  0.82893  Biso   1.000  C
  H218     1.0000 0.78207  0.97873  0.86813  Biso   1.000  H
  C283     1.0000 0.80998  0.03094  0.81294  Biso   1.000  C
  H219     1.0000 0.82937  0.05043  0.84143  Biso   1.000  H
  C284     1.0000 0.81001  0.04573  0.75448  Biso   1.000  C
  C285     1.0000 0.78116  0.01579  0.71333  Biso   1.000  C
  H220     1.0000 0.78077  0.02473  0.67403  Biso   1.000  H
  C286     1.0000 0.75271  0.97254  0.72961  Biso   1.000  C
  H221     1.0000 0.73347  0.95293  0.70113  Biso   1.000  H
  C287     1.0000 0.83794  0.09254  0.73757  Biso   1.000  C
  C288     1.0000 0.81990  0.11257  0.70333  Biso   1.000  C
  H222     1.0000 0.79047  0.09603  0.69223  Biso   1.000  H
  H223     1.0000 0.89967  0.05553  0.72923  Biso   1.000  H
  H224     1.0000 0.96027  0.08423  0.82393  Biso   1.000  H
  O65      1.0000 0.36184  0.22033  0.09804  Biso   1.000  O
  O66      1.0000 0.38928  0.23386  0.19200  Biso   1.000  O
  C289     1.0000 0.38775  0.24494  0.13855  Biso   1.000  C
  C290     1.0000 0.41917  0.29152  0.12071  Biso   1.000  C
  C291     1.0000 0.44831  0.32125  0.16227  Biso   1.000  C
  H225     1.0000 0.44873  0.31207  0.20147  Biso   1.000  H
  C292     1.0000 0.47664  0.36428  0.14628  Biso   1.000  C
  H226     1.0000 0.49603  0.38377  0.17477  Biso   1.000  H
  C293     1.0000 0.47667  0.37907  0.08782  Biso   1.000  C
  C294     1.0000 0.44782  0.34913  0.04667  Biso   1.000  C
  H227     1.0000 0.44743  0.35807  0.00737  Biso   1.000  H
  C295     1.0000 0.41937  0.30588  0.06295  Biso   1.000  C
  H228     1.0000 0.40013  0.28627  0.03447  Biso   1.000  H
  C296     1.0000 0.50460  0.42588  0.07091  Biso   1.000  C
  C297     1.0000 0.48656  0.44591  0.03667  Biso   1.000  C
  H229     1.0000 0.45713  0.42937  0.02557  Biso   1.000  H
  H230     1.0000 0.56633  0.38887  0.06257  Biso   1.000  H
  H231     1.0000 0.62693  0.41757  0.15727  Biso   1.000  H
  O67      1.0000 0.52515  0.97149  0.43137  Biso   1.000  O
  O68      1.0000 0.51124  0.94405  0.52533  Biso   1.000  O
  C298     1.0000 0.52385  0.94558  0.47188  Biso   1.000  C
  C299     1.0000 0.53901  0.91416  0.45404  Biso   1.000  C
  C300     1.0000 0.53960  0.88502  0.49560  Biso   1.000  C
  H232     1.0000 0.53000  0.88460  0.53480  Biso   1.000  H
  C301     1.0000 0.55430  0.85669  0.47961  Biso   1.000  C
  H233     1.0000 0.55440  0.83730  0.50810  Biso   1.000  H
  C302     1.0000 0.56906  0.85666  0.42115  Biso   1.000  C
  C303     1.0000 0.56797  0.88551  0.38000  Biso   1.000  C
  H234     1.0000 0.57730  0.88590  0.34070  Biso   1.000  H
  C304     1.0000 0.55317  0.91396  0.39628  Biso   1.000  C
  H235     1.0000 0.55280  0.93320  0.36780  Biso   1.000  H
  C305     1.0000 0.58794  0.82873  0.40424  Biso   1.000  C
  C306     1.0000 0.62601  0.84677  0.37000  Biso   1.000  C
  H236     1.0000 0.63890  0.87620  0.35890  Biso   1.000  H
  H237     1.0000 0.48920  0.76700  0.39590  Biso   1.000  H
  H238     1.0000 0.45730  0.70640  0.49060  Biso   1.000  H
  O69      1.0000 0.19182  0.30482  0.76470  Biso   1.000  O
  O70      1.0000 0.17791  0.27738  0.85866  Biso   1.000  O
  C307     1.0000 0.19052  0.27891  0.80521  Biso   1.000  C
  C308     1.0000 0.20568  0.24749  0.78737  Biso   1.000  C
  C309     1.0000 0.20627  0.21835  0.82893  Biso   1.000  C
  H239     1.0000 0.19667  0.21793  0.86813  Biso   1.000  H
  C310     1.0000 0.22097  0.19002  0.81294  Biso   1.000  C
  H240     1.0000 0.22107  0.17063  0.84143  Biso   1.000  H
  C311     1.0000 0.23573  0.18999  0.75448  Biso   1.000  C
  C312     1.0000 0.23464  0.21884  0.71333  Biso   1.000  C
  H241     1.0000 0.24397  0.21923  0.67403  Biso   1.000  H
  C313     1.0000 0.21984  0.24729  0.72961  Biso   1.000  C
  H242     1.0000 0.21947  0.26653  0.70113  Biso   1.000  H
  C314     1.0000 0.25461  0.16206  0.73757  Biso   1.000  C
  C315     1.0000 0.29268  0.18010  0.70333  Biso   1.000  C
  H243     1.0000 0.30557  0.20953  0.69223  Biso   1.000  H
  H244     1.0000 0.15587  0.10033  0.72923  Biso   1.000  H
  H245     1.0000 0.12397  0.03973  0.82393  Biso   1.000  H
  O71      1.0000 0.85848  0.63816  0.09804  Biso   1.000  O
  O72      1.0000 0.84457  0.61072  0.19200  Biso   1.000  O
  C316     1.0000 0.85718  0.61225  0.13855  Biso   1.000  C
  C317     1.0000 0.87234  0.58083  0.12071  Biso   1.000  C
  C318     1.0000 0.87293  0.55169  0.16227  Biso   1.000  C
  H246     1.0000 0.86333  0.55127  0.20147  Biso   1.000  H
  C319     1.0000 0.88763  0.52336  0.14628  Biso   1.000  C
  H247     1.0000 0.88773  0.50397  0.17477  Biso   1.000  H
  C320     1.0000 0.90239  0.52333  0.08782  Biso   1.000  C
  C321     1.0000 0.90130  0.55218  0.04667  Biso   1.000  C
  H248     1.0000 0.91063  0.55257  0.00737  Biso   1.000  H
  C322     1.0000 0.88650  0.58063  0.06295  Biso   1.000  C
  H249     1.0000 0.88613  0.59987  0.03447  Biso   1.000  H
  C323     1.0000 0.92127  0.49540  0.07091  Biso   1.000  C
  C324     1.0000 0.95934  0.51344  0.03667  Biso   1.000  C
  H250     1.0000 0.97223  0.54287  0.02557  Biso   1.000  H
  H251     1.0000 0.82253  0.43367  0.06257  Biso   1.000  H
  H252     1.0000 0.79063  0.37307  0.15727  Biso   1.000  H
  Cu1      1.0000 0.50796  0.49204  0.44492  Biso   1.000  Cu
  Cu2      1.0000 0.17463  0.82537  0.77825  Biso   1.000  Cu
  Cu3      1.0000 0.84129  0.15871  0.11159  Biso   1.000  Cu
  Cu4      1.0000 0.50796  0.01592  0.44492  Biso   1.000  Cu
  Cu5      1.0000 0.17463  0.34925  0.77825  Biso   1.000  Cu
  Cu6      1.0000 0.84129  0.68259  0.11159  Biso   1.000  Cu
  Cu7      1.0000 0.98408  0.49204  0.44492  Biso   1.000  Cu
  Cu8      1.0000 0.65075  0.82537  0.77825  Biso   1.000  Cu
  Cu9      1.0000 0.31741  0.15871  0.11159  Biso   1.000  Cu
  Cu10     1.0000 0.49204  0.50796  0.55508  Biso   1.000  Cu
  Cu11     1.0000 0.15871  0.84129  0.88841  Biso   1.000  Cu
  Cu12     1.0000 0.82537  0.17463  0.22175  Biso   1.000  Cu
  Cu13     1.0000 0.01592  0.50796  0.55508  Biso   1.000  Cu
  Cu14     1.0000 0.68259  0.84129  0.88841  Biso   1.000  Cu
  Cu15     1.0000 0.34925  0.17463  0.22175  Biso   1.000  Cu
  Cu16     1.0000 0.49204  0.98408  0.55508  Biso   1.000  Cu
  Cu17     1.0000 0.15871  0.31741  0.88841  Biso   1.000  Cu
  Cu18     1.0000 0.82537  0.65075  0.22175  Biso   1.000  Cu
  O73      1.0000 0.53030  0.76515  0.45507  Biso   1.000  O
  C325     1.0000 0.64605  0.82302  0.35136  Biso   1.000  C
  C326     1.0000 0.56904  0.78452  0.42042  Biso   1.000  C
  C327     1.0000 0.49082  0.74541  0.42130  Biso   1.000  C
  C328     1.0000 0.45507  0.72753  0.46580  Biso   1.000  C
  H253     1.0000 0.42730  0.71365  0.44520  Biso   1.000  H
  O74      1.0000 0.19697  0.09848  0.78840  Biso   1.000  O
  C329     1.0000 0.31272  0.15636  0.68469  Biso   1.000  C
  C330     1.0000 0.23571  0.11785  0.75375  Biso   1.000  C
  C331     1.0000 0.15749  0.07874  0.75463  Biso   1.000  C
  C332     1.0000 0.12174  0.06087  0.79913  Biso   1.000  C
  H254     1.0000 0.09397  0.04698  0.77853  Biso   1.000  H
  O75      1.0000 0.86363  0.43182  0.12174  Biso   1.000  O
  C333     1.0000 0.97938  0.48969  0.01803  Biso   1.000  C
  C334     1.0000 0.90237  0.45119  0.08709  Biso   1.000  C
  C335     1.0000 0.82415  0.41208  0.08797  Biso   1.000  C
  C336     1.0000 0.78840  0.39420  0.13247  Biso   1.000  C
  H255     1.0000 0.76063  0.38032  0.11187  Biso   1.000  H
  O76      1.0000 0.23485  0.76515  0.45507  Biso   1.000  O
  C337     1.0000 0.17698  0.82302  0.35136  Biso   1.000  C
  C338     1.0000 0.21548  0.78452  0.42042  Biso   1.000  C
  C339     1.0000 0.25459  0.74541  0.42130  Biso   1.000  C
  C340     1.0000 0.27247  0.72753  0.46580  Biso   1.000  C
  H256     1.0000 0.28635  0.71365  0.44520  Biso   1.000  H
  O77      1.0000 0.90152  0.09848  0.78840  Biso   1.000  O
  C341     1.0000 0.84364  0.15636  0.68469  Biso   1.000  C
  C342     1.0000 0.88215  0.11785  0.75375  Biso   1.000  C
  C343     1.0000 0.92126  0.07874  0.75463  Biso   1.000  C
  C344     1.0000 0.93913  0.06087  0.79913  Biso   1.000  C
  H257     1.0000 0.95302  0.04698  0.77853  Biso   1.000  H
  O78      1.0000 0.56818  0.43182  0.12174  Biso   1.000  O
  C345     1.0000 0.51031  0.48969  0.01803  Biso   1.000  C
  C346     1.0000 0.54881  0.45119  0.08709  Biso   1.000  C
  C347     1.0000 0.58792  0.41208  0.08797  Biso   1.000  C
  C348     1.0000 0.60580  0.39420  0.13247  Biso   1.000  C
  H258     1.0000 0.61968  0.38032  0.11187  Biso   1.000  H
  O79      1.0000 0.23485  0.46970  0.45507  Biso   1.000  O
  C349     1.0000 0.17698  0.35395  0.35136  Biso   1.000  C
  C350     1.0000 0.21548  0.43096  0.42042  Biso   1.000  C
  C351     1.0000 0.25459  0.50918  0.42130  Biso   1.000  C
  C352     1.0000 0.27247  0.54493  0.46580  Biso   1.000  C
  H259     1.0000 0.28635  0.57270  0.44520  Biso   1.000  H
  O80      1.0000 0.90152  0.80303  0.78840  Biso   1.000  O
  C353     1.0000 0.84364  0.68728  0.68469  Biso   1.000  C
  C354     1.0000 0.88215  0.76429  0.75375  Biso   1.000  C
  C355     1.0000 0.92126  0.84251  0.75463  Biso   1.000  C
  C356     1.0000 0.93913  0.87826  0.79913  Biso   1.000  C
  H260     1.0000 0.95302  0.90603  0.77853  Biso   1.000  H
  O81      1.0000 0.56818  0.13637  0.12174  Biso   1.000  O
  C357     1.0000 0.51031  0.02062  0.01803  Biso   1.000  C
  C358     1.0000 0.54881  0.09763  0.08709  Biso   1.000  C
  C359     1.0000 0.58792  0.17585  0.08797  Biso   1.000  C
  C360     1.0000 0.60580  0.21160  0.13247  Biso   1.000  C
  H261     1.0000 0.61968  0.23937  0.11187  Biso   1.000  H
  O82      1.0000 0.76515  0.53030  0.54493  Biso   1.000  O
  C361     1.0000 0.82302  0.64605  0.64864  Biso   1.000  C
  C362     1.0000 0.78452  0.56904  0.57958  Biso   1.000  C
  C363     1.0000 0.74541  0.49082  0.57870  Biso   1.000  C
  C364     1.0000 0.72753  0.45507  0.53420  Biso   1.000  C
  H262     1.0000 0.71365  0.42730  0.55480  Biso   1.000  H
  O83      1.0000 0.43182  0.86363  0.87826  Biso   1.000  O
  C365     1.0000 0.48969  0.97938  0.98197  Biso   1.000  C
  C366     1.0000 0.45119  0.90237  0.91291  Biso   1.000  C
  C367     1.0000 0.41208  0.82415  0.91203  Biso   1.000  C
  C368     1.0000 0.39420  0.78840  0.86753  Biso   1.000  C
  H263     1.0000 0.38032  0.76063  0.88813  Biso   1.000  H
  O84      1.0000 0.09848  0.19697  0.21160  Biso   1.000  O
  C369     1.0000 0.15636  0.31272  0.31531  Biso   1.000  C
  C370     1.0000 0.11785  0.23571  0.24625  Biso   1.000  C
  C371     1.0000 0.07874  0.15749  0.24537  Biso   1.000  C
  C372     1.0000 0.06087  0.12174  0.20087  Biso   1.000  C
  H264     1.0000 0.04698  0.09397  0.22147  Biso   1.000  H
  O85      1.0000 0.76515  0.23485  0.54493  Biso   1.000  O
  C373     1.0000 0.82302  0.17698  0.64864  Biso   1.000  C
  C374     1.0000 0.78452  0.21548  0.57958  Biso   1.000  C
  C375     1.0000 0.74541  0.25459  0.57870  Biso   1.000  C
  C376     1.0000 0.72753  0.27247  0.53420  Biso   1.000  C
  H265     1.0000 0.71365  0.28635  0.55480  Biso   1.000  H
  O86      1.0000 0.43182  0.56818  0.87826  Biso   1.000  O
  C377     1.0000 0.48969  0.51031  0.98197  Biso   1.000  C
  C378     1.0000 0.45119  0.54881  0.91291  Biso   1.000  C
  C379     1.0000 0.41208  0.58792  0.91203  Biso   1.000  C
  C380     1.0000 0.39420  0.60580  0.86753  Biso   1.000  C
  H266     1.0000 0.38032  0.61968  0.88813  Biso   1.000  H
  O87      1.0000 0.09848  0.90152  0.21160  Biso   1.000  O
  C381     1.0000 0.15636  0.84364  0.31531  Biso   1.000  C
  C382     1.0000 0.11785  0.88215  0.24625  Biso   1.000  C
  C383     1.0000 0.07874  0.92126  0.24537  Biso   1.000  C
  C384     1.0000 0.06087  0.93913  0.20087  Biso   1.000  C
  H267     1.0000 0.04698  0.95302  0.22147  Biso   1.000  H
  O88      1.0000 0.46970  0.23485  0.54493  Biso   1.000  O
  C385     1.0000 0.35395  0.17698  0.64864  Biso   1.000  C
  C386     1.0000 0.43096  0.21548  0.57958  Biso   1.000  C
  C387     1.0000 0.50918  0.25459  0.57870  Biso   1.000  C
  C388     1.0000 0.54493  0.27247  0.53420  Biso   1.000  C
  H268     1.0000 0.57270  0.28635  0.55480  Biso   1.000  H
  O89      1.0000 0.13637  0.56818  0.87826  Biso   1.000  O
  C389     1.0000 0.02062  0.51031  0.98197  Biso   1.000  C
  C390     1.0000 0.09763  0.54881  0.91291  Biso   1.000  C
  C391     1.0000 0.17585  0.58792  0.91203  Biso   1.000  C
  C392     1.0000 0.21160  0.60580  0.86753  Biso   1.000  C
  H269     1.0000 0.23937  0.61968  0.88813  Biso   1.000  H
  O90      1.0000 0.80303  0.90152  0.21160  Biso   1.000  O
  C393     1.0000 0.68728  0.84364  0.31531  Biso   1.000  C
  C394     1.0000 0.76429  0.88215  0.24625  Biso   1.000  C
  C395     1.0000 0.84251  0.92126  0.24537  Biso   1.000  C
  C396     1.0000 0.87826  0.93913  0.20087  Biso   1.000  C
  H270     1.0000 0.90603  0.95302  0.22147  Biso   1.000  H
