data_image0
_cell_length_a       35.2965
_cell_length_b       35.2965
_cell_length_c       20.9926
_cell_angle_alpha    90
_cell_angle_beta     90
_cell_angle_gamma    120

_symmetry_space_group_name_H-M    "P 1"
_symmetry_int_tables_number       1

loop_
  _symmetry_equiv_pos_as_xyz
  'x, y, z'

loop_
  _atom_site_label
  _atom_site_occupancy
  _atom_site_fract_x
  _atom_site_fract_y
  _atom_site_fract_z
  _atom_site_thermal_displace_type
  _atom_site_B_iso_or_equiv
  _atom_site_type_symbol
  O1       1.0000 0.30244  0.19024  0.23666  Biso   1.000  O
  O2       1.0000 0.27809  0.17827  0.13540  Biso   1.000  O
  C1       1.0000 0.27822  0.19002  0.19203  Biso   1.000  C
  C2       1.0000 0.24681  0.20546  0.20869  Biso   1.000  C
  C3       1.0000 0.22016  0.20816  0.16198  Biso   1.000  C
  H1       1.0000 0.22110  0.19950  0.12040  Biso   1.000  H
  C4       1.0000 0.19212  0.22386  0.17776  Biso   1.000  C
  H2       1.0000 0.17440  0.22560  0.14640  Biso   1.000  H
  C5       1.0000 0.19021  0.23683  0.23880  Biso   1.000  C
  C6       1.0000 0.21662  0.23354  0.28518  Biso   1.000  C
  H3       1.0000 0.21540  0.24180  0.32690  Biso   1.000  H
  C7       1.0000 0.24480  0.21808  0.26976  Biso   1.000  C
  H4       1.0000 0.26240  0.21630  0.30120  Biso   1.000  H
  C8       1.0000 0.16249  0.25629  0.25663  Biso   1.000  C
  C9       1.0000 0.18018  0.29324  0.29402  Biso   1.000  C
  H5       1.0000 0.20920  0.30540  0.30690  Biso   1.000  H
  H6       1.0000 0.05740  0.15930  0.26090  Biso   1.000  H
  H7       1.0000 0.03980  0.12400  0.16020  Biso   1.000  H
  O3       1.0000 0.96911  0.52357  0.56999  Biso   1.000  O
  O4       1.0000 0.94476  0.51160  0.46873  Biso   1.000  O
  C10      1.0000 0.94489  0.52335  0.52536  Biso   1.000  C
  C11      1.0000 0.91348  0.53879  0.54202  Biso   1.000  C
  C12      1.0000 0.88683  0.54149  0.49531  Biso   1.000  C
  H8       1.0000 0.88777  0.53283  0.45373  Biso   1.000  H
  C13      1.0000 0.85879  0.55719  0.51109  Biso   1.000  C
  H9       1.0000 0.84107  0.55893  0.47973  Biso   1.000  H
  C14      1.0000 0.85688  0.57016  0.57213  Biso   1.000  C
  C15      1.0000 0.88329  0.56687  0.61851  Biso   1.000  C
  H10      1.0000 0.88207  0.57513  0.66023  Biso   1.000  H
  C16      1.0000 0.91147  0.55141  0.60309  Biso   1.000  C
  H11      1.0000 0.92907  0.54963  0.63453  Biso   1.000  H
  C17      1.0000 0.82916  0.58962  0.58996  Biso   1.000  C
  C18      1.0000 0.84685  0.62657  0.62735  Biso   1.000  C
  H12      1.0000 0.87587  0.63873  0.64023  Biso   1.000  H
  H13      1.0000 0.72407  0.49263  0.59423  Biso   1.000  H
  H14      1.0000 0.70647  0.45733  0.49353  Biso   1.000  H
  O5       1.0000 0.63577  0.85691  0.90333  Biso   1.000  O
  O6       1.0000 0.61142  0.84494  0.80207  Biso   1.000  O
  C19      1.0000 0.61155  0.85669  0.85870  Biso   1.000  C
  C20      1.0000 0.58014  0.87213  0.87536  Biso   1.000  C
  C21      1.0000 0.55349  0.87483  0.82865  Biso   1.000  C
  H15      1.0000 0.55443  0.86617  0.78707  Biso   1.000  H
  C22      1.0000 0.52545  0.89053  0.84443  Biso   1.000  C
  H16      1.0000 0.50773  0.89227  0.81307  Biso   1.000  H
  C23      1.0000 0.52354  0.90350  0.90547  Biso   1.000  C
  C24      1.0000 0.54995  0.90021  0.95185  Biso   1.000  C
  H17      1.0000 0.54873  0.90847  0.99357  Biso   1.000  H
  C25      1.0000 0.57813  0.88475  0.93643  Biso   1.000  C
  H18      1.0000 0.59573  0.88297  0.96787  Biso   1.000  H
  C26      1.0000 0.49582  0.92296  0.92330  Biso   1.000  C
  C27      1.0000 0.51351  0.95991  0.96069  Biso   1.000  C
  H19      1.0000 0.54253  0.97207  0.97357  Biso   1.000  H
  H20      1.0000 0.39073  0.82597  0.92757  Biso   1.000  H
  H21      1.0000 0.37313  0.79067  0.82687  Biso   1.000  H
  O7       1.0000 0.80976  0.11220  0.23666  Biso   1.000  O
  O8       1.0000 0.82173  0.09982  0.13540  Biso   1.000  O
  C28      1.0000 0.80998  0.08820  0.19203  Biso   1.000  C
  C29      1.0000 0.79454  0.04135  0.20869  Biso   1.000  C
  C30      1.0000 0.79184  0.01200  0.16198  Biso   1.000  C
  H22      1.0000 0.80050  0.02160  0.12040  Biso   1.000  H
  C31      1.0000 0.77614  0.96826  0.17776  Biso   1.000  C
  H23      1.0000 0.77440  0.94880  0.14640  Biso   1.000  H
  C32      1.0000 0.76317  0.95338  0.23880  Biso   1.000  C
  C33      1.0000 0.76646  0.98308  0.28518  Biso   1.000  C
  H24      1.0000 0.75820  0.97360  0.32690  Biso   1.000  H
  C34      1.0000 0.78192  0.02672  0.26976  Biso   1.000  C
  H25      1.0000 0.78370  0.04610  0.30120  Biso   1.000  H
  C35      1.0000 0.74371  0.90620  0.25663  Biso   1.000  C
  C36      1.0000 0.70676  0.88694  0.29402  Biso   1.000  C
  H26      1.0000 0.69460  0.90380  0.30690  Biso   1.000  H
  H27      1.0000 0.84070  0.89810  0.26090  Biso   1.000  H
  H28      1.0000 0.87600  0.91580  0.16020  Biso   1.000  H
  O9       1.0000 0.47643  0.44553  0.56999  Biso   1.000  O
  O10      1.0000 0.48840  0.43315  0.46873  Biso   1.000  O
  C37      1.0000 0.47665  0.42153  0.52536  Biso   1.000  C
  C38      1.0000 0.46121  0.37468  0.54202  Biso   1.000  C
  C39      1.0000 0.45851  0.34533  0.49531  Biso   1.000  C
  H29      1.0000 0.46717  0.35493  0.45373  Biso   1.000  H
  C40      1.0000 0.44281  0.30159  0.51109  Biso   1.000  C
  H30      1.0000 0.44107  0.28213  0.47973  Biso   1.000  H
  C41      1.0000 0.42984  0.28671  0.57213  Biso   1.000  C
  C42      1.0000 0.43313  0.31641  0.61851  Biso   1.000  C
  H31      1.0000 0.42487  0.30693  0.66023  Biso   1.000  H
  C43      1.0000 0.44859  0.36005  0.60309  Biso   1.000  C
  H32      1.0000 0.45037  0.37943  0.63453  Biso   1.000  H
  C44      1.0000 0.41038  0.23953  0.58996  Biso   1.000  C
  C45      1.0000 0.37343  0.22027  0.62735  Biso   1.000  C
  H33      1.0000 0.36127  0.23713  0.64023  Biso   1.000  H
  H34      1.0000 0.50737  0.23143  0.59423  Biso   1.000  H
  H35      1.0000 0.54267  0.24913  0.49353  Biso   1.000  H
  O11      1.0000 0.14309  0.77887  0.90333  Biso   1.000  O
  O12      1.0000 0.15506  0.76649  0.80207  Biso   1.000  O
  C46      1.0000 0.14331  0.75487  0.85870  Biso   1.000  C
  C47      1.0000 0.12787  0.70802  0.87536  Biso   1.000  C
  C48      1.0000 0.12517  0.67867  0.82865  Biso   1.000  C
  H36      1.0000 0.13383  0.68827  0.78707  Biso   1.000  H
  C49      1.0000 0.10947  0.63493  0.84443  Biso   1.000  C
  H37      1.0000 0.10773  0.61547  0.81307  Biso   1.000  H
  C50      1.0000 0.09650  0.62005  0.90547  Biso   1.000  C
  C51      1.0000 0.09979  0.64975  0.95185  Biso   1.000  C
  H38      1.0000 0.09153  0.64027  0.99357  Biso   1.000  H
  C52      1.0000 0.11525  0.69339  0.93643  Biso   1.000  C
  H39      1.0000 0.11703  0.71277  0.96787  Biso   1.000  H
  C53      1.0000 0.07704  0.57287  0.92330  Biso   1.000  C
  C54      1.0000 0.04009  0.55361  0.96069  Biso   1.000  C
  H40      1.0000 0.02793  0.57047  0.97357  Biso   1.000  H
  H41      1.0000 0.17403  0.56477  0.92757  Biso   1.000  H
  H42      1.0000 0.20933  0.58247  0.82687  Biso   1.000  H
  O13      1.0000 0.88780  0.69756  0.23666  Biso   1.000  O
  O14      1.0000 0.90018  0.72191  0.13540  Biso   1.000  O
  C55      1.0000 0.91180  0.72178  0.19203  Biso   1.000  C
  C56      1.0000 0.95865  0.75319  0.20869  Biso   1.000  C
  C57      1.0000 0.98800  0.77984  0.16198  Biso   1.000  C
  H43      1.0000 0.97840  0.77890  0.12040  Biso   1.000  H
  C58      1.0000 0.03174  0.80788  0.17776  Biso   1.000  C
  H44      1.0000 0.05120  0.82560  0.14640  Biso   1.000  H
  C59      1.0000 0.04662  0.80979  0.23880  Biso   1.000  C
  C60      1.0000 0.01692  0.78338  0.28518  Biso   1.000  C
  H45      1.0000 0.02640  0.78460  0.32690  Biso   1.000  H
  C61      1.0000 0.97328  0.75520  0.26976  Biso   1.000  C
  H46      1.0000 0.95390  0.73760  0.30120  Biso   1.000  H
  C62      1.0000 0.09380  0.83751  0.25663  Biso   1.000  C
  C63      1.0000 0.11306  0.81982  0.29402  Biso   1.000  C
  H47      1.0000 0.09620  0.79080  0.30690  Biso   1.000  H
  H48      1.0000 0.10190  0.94260  0.26090  Biso   1.000  H
  H49      1.0000 0.08420  0.96020  0.16020  Biso   1.000  H
  O15      1.0000 0.55447  0.03089  0.56999  Biso   1.000  O
  O16      1.0000 0.56685  0.05524  0.46873  Biso   1.000  O
  C64      1.0000 0.57847  0.05511  0.52536  Biso   1.000  C
  C65      1.0000 0.62532  0.08652  0.54202  Biso   1.000  C
  C66      1.0000 0.65467  0.11317  0.49531  Biso   1.000  C
  H50      1.0000 0.64507  0.11223  0.45373  Biso   1.000  H
  C67      1.0000 0.69841  0.14121  0.51109  Biso   1.000  C
  H51      1.0000 0.71787  0.15893  0.47973  Biso   1.000  H
  C68      1.0000 0.71329  0.14312  0.57213  Biso   1.000  C
  C69      1.0000 0.68359  0.11671  0.61851  Biso   1.000  C
  H52      1.0000 0.69307  0.11793  0.66023  Biso   1.000  H
  C70      1.0000 0.63995  0.08853  0.60309  Biso   1.000  C
  H53      1.0000 0.62057  0.07093  0.63453  Biso   1.000  H
  C71      1.0000 0.76047  0.17084  0.58996  Biso   1.000  C
  C72      1.0000 0.77973  0.15315  0.62735  Biso   1.000  C
  H54      1.0000 0.76287  0.12413  0.64023  Biso   1.000  H
  H55      1.0000 0.76857  0.27593  0.59423  Biso   1.000  H
  H56      1.0000 0.75087  0.29353  0.49353  Biso   1.000  H
  O17      1.0000 0.22113  0.36423  0.90333  Biso   1.000  O
  O18      1.0000 0.23351  0.38858  0.80207  Biso   1.000  O
  C73      1.0000 0.24513  0.38845  0.85870  Biso   1.000  C
  C74      1.0000 0.29198  0.41986  0.87536  Biso   1.000  C
  C75      1.0000 0.32133  0.44651  0.82865  Biso   1.000  C
  H57      1.0000 0.31173  0.44557  0.78707  Biso   1.000  H
  C76      1.0000 0.36507  0.47455  0.84443  Biso   1.000  C
  H58      1.0000 0.38453  0.49227  0.81307  Biso   1.000  H
  C77      1.0000 0.37995  0.47646  0.90547  Biso   1.000  C
  C78      1.0000 0.35025  0.45005  0.95185  Biso   1.000  C
  H59      1.0000 0.35973  0.45127  0.99357  Biso   1.000  H
  C79      1.0000 0.30661  0.42187  0.93643  Biso   1.000  C
  H60      1.0000 0.28723  0.40427  0.96787  Biso   1.000  H
  C80      1.0000 0.42713  0.50418  0.92330  Biso   1.000  C
  C81      1.0000 0.44639  0.48649  0.96069  Biso   1.000  C
  H61      1.0000 0.42953  0.45747  0.97357  Biso   1.000  H
  H62      1.0000 0.43523  0.60927  0.92757  Biso   1.000  H
  H63      1.0000 0.41753  0.62687  0.82687  Biso   1.000  H
  O19      1.0000 0.19024  0.30244  0.76334  Biso   1.000  O
  O20      1.0000 0.17827  0.27809  0.86460  Biso   1.000  O
  C82      1.0000 0.19002  0.27822  0.80797  Biso   1.000  C
  C83      1.0000 0.20546  0.24681  0.79131  Biso   1.000  C
  C84      1.0000 0.20816  0.22016  0.83802  Biso   1.000  C
  H64      1.0000 0.19950  0.22110  0.87960  Biso   1.000  H
  C85      1.0000 0.22386  0.19212  0.82224  Biso   1.000  C
  H65      1.0000 0.22560  0.17440  0.85360  Biso   1.000  H
  C86      1.0000 0.23683  0.19021  0.76120  Biso   1.000  C
  C87      1.0000 0.23354  0.21662  0.71482  Biso   1.000  C
  H66      1.0000 0.24180  0.21540  0.67310  Biso   1.000  H
  C88      1.0000 0.21808  0.24480  0.73024  Biso   1.000  C
  H67      1.0000 0.21630  0.26240  0.69880  Biso   1.000  H
  C89      1.0000 0.25629  0.16249  0.74337  Biso   1.000  C
  C90      1.0000 0.29324  0.18018  0.70598  Biso   1.000  C
  H68      1.0000 0.30540  0.20920  0.69310  Biso   1.000  H
  H69      1.0000 0.15930  0.05740  0.73910  Biso   1.000  H
  H70      1.0000 0.12400  0.03980  0.83980  Biso   1.000  H
  O21      1.0000 0.85691  0.63577  0.09667  Biso   1.000  O
  O22      1.0000 0.84494  0.61142  0.19793  Biso   1.000  O
  C91      1.0000 0.85669  0.61155  0.14130  Biso   1.000  C
  C92      1.0000 0.87213  0.58014  0.12464  Biso   1.000  C
  C93      1.0000 0.87483  0.55349  0.17135  Biso   1.000  C
  H71      1.0000 0.86617  0.55443  0.21293  Biso   1.000  H
  C94      1.0000 0.89053  0.52545  0.15557  Biso   1.000  C
  H72      1.0000 0.89227  0.50773  0.18693  Biso   1.000  H
  C95      1.0000 0.90350  0.52354  0.09453  Biso   1.000  C
  C96      1.0000 0.90021  0.54995  0.04815  Biso   1.000  C
  H73      1.0000 0.90847  0.54873  0.00643  Biso   1.000  H
  C97      1.0000 0.88475  0.57813  0.06357  Biso   1.000  C
  H74      1.0000 0.88297  0.59573  0.03213  Biso   1.000  H
  C98      1.0000 0.92296  0.49582  0.07670  Biso   1.000  C
  C99      1.0000 0.95991  0.51351  0.03931  Biso   1.000  C
  H75      1.0000 0.97207  0.54253  0.02643  Biso   1.000  H
  H76      1.0000 0.82597  0.39073  0.07243  Biso   1.000  H
  H77      1.0000 0.79067  0.37313  0.17313  Biso   1.000  H
  O23      1.0000 0.52357  0.96911  0.43001  Biso   1.000  O
  O24      1.0000 0.51160  0.94476  0.53127  Biso   1.000  O
  C100     1.0000 0.52335  0.94489  0.47464  Biso   1.000  C
  C101     1.0000 0.53879  0.91348  0.45798  Biso   1.000  C
  C102     1.0000 0.54149  0.88683  0.50469  Biso   1.000  C
  H78      1.0000 0.53283  0.88777  0.54627  Biso   1.000  H
  C103     1.0000 0.55719  0.85879  0.48891  Biso   1.000  C
  H79      1.0000 0.55893  0.84107  0.52027  Biso   1.000  H
  C104     1.0000 0.57016  0.85688  0.42787  Biso   1.000  C
  C105     1.0000 0.56687  0.88329  0.38149  Biso   1.000  C
  H80      1.0000 0.57513  0.88207  0.33977  Biso   1.000  H
  C106     1.0000 0.55141  0.91147  0.39691  Biso   1.000  C
  H81      1.0000 0.54963  0.92907  0.36547  Biso   1.000  H
  C107     1.0000 0.58962  0.82916  0.41004  Biso   1.000  C
  C108     1.0000 0.62657  0.84685  0.37265  Biso   1.000  C
  H82      1.0000 0.63873  0.87587  0.35977  Biso   1.000  H
  H83      1.0000 0.49263  0.72407  0.40577  Biso   1.000  H
  H84      1.0000 0.45733  0.70647  0.50647  Biso   1.000  H
  O25      1.0000 0.11220  0.80976  0.76334  Biso   1.000  O
  O26      1.0000 0.09982  0.82173  0.86460  Biso   1.000  O
  C109     1.0000 0.08820  0.80998  0.80797  Biso   1.000  C
  C110     1.0000 0.04135  0.79454  0.79131  Biso   1.000  C
  C111     1.0000 0.01200  0.79184  0.83802  Biso   1.000  C
  H85      1.0000 0.02160  0.80050  0.87960  Biso   1.000  H
  C112     1.0000 0.96826  0.77614  0.82224  Biso   1.000  C
  H86      1.0000 0.94880  0.77440  0.85360  Biso   1.000  H
  C113     1.0000 0.95338  0.76317  0.76120  Biso   1.000  C
  C114     1.0000 0.98308  0.76646  0.71482  Biso   1.000  C
  H87      1.0000 0.97360  0.75820  0.67310  Biso   1.000  H
  C115     1.0000 0.02672  0.78192  0.73024  Biso   1.000  C
  H88      1.0000 0.04610  0.78370  0.69880  Biso   1.000  H
  C116     1.0000 0.90620  0.74371  0.74337  Biso   1.000  C
  C117     1.0000 0.88694  0.70676  0.70598  Biso   1.000  C
  H89      1.0000 0.90380  0.69460  0.69310  Biso   1.000  H
  H90      1.0000 0.89810  0.84070  0.73910  Biso   1.000  H
  H91      1.0000 0.91580  0.87600  0.83980  Biso   1.000  H
  O27      1.0000 0.77887  0.14309  0.09667  Biso   1.000  O
  O28      1.0000 0.76649  0.15506  0.19793  Biso   1.000  O
  C118     1.0000 0.75487  0.14331  0.14130  Biso   1.000  C
  C119     1.0000 0.70802  0.12787  0.12464  Biso   1.000  C
  C120     1.0000 0.67867  0.12517  0.17135  Biso   1.000  C
  H92      1.0000 0.68827  0.13383  0.21293  Biso   1.000  H
  C121     1.0000 0.63493  0.10947  0.15557  Biso   1.000  C
  H93      1.0000 0.61547  0.10773  0.18693  Biso   1.000  H
  C122     1.0000 0.62005  0.09650  0.09453  Biso   1.000  C
  C123     1.0000 0.64975  0.09979  0.04815  Biso   1.000  C
  H94      1.0000 0.64027  0.09153  0.00643  Biso   1.000  H
  C124     1.0000 0.69339  0.11525  0.06357  Biso   1.000  C
  H95      1.0000 0.71277  0.11703  0.03213  Biso   1.000  H
  C125     1.0000 0.57287  0.07704  0.07670  Biso   1.000  C
  C126     1.0000 0.55361  0.04009  0.03931  Biso   1.000  C
  H96      1.0000 0.57047  0.02793  0.02643  Biso   1.000  H
  H97      1.0000 0.56477  0.17403  0.07243  Biso   1.000  H
  H98      1.0000 0.58247  0.20933  0.17313  Biso   1.000  H
  O29      1.0000 0.44553  0.47643  0.43001  Biso   1.000  O
  O30      1.0000 0.43315  0.48840  0.53127  Biso   1.000  O
  C127     1.0000 0.42153  0.47665  0.47464  Biso   1.000  C
  C128     1.0000 0.37468  0.46121  0.45798  Biso   1.000  C
  C129     1.0000 0.34533  0.45851  0.50469  Biso   1.000  C
  H99      1.0000 0.35493  0.46717  0.54627  Biso   1.000  H
  C130     1.0000 0.30159  0.44281  0.48891  Biso   1.000  C
  H100     1.0000 0.28213  0.44107  0.52027  Biso   1.000  H
  C131     1.0000 0.28671  0.42984  0.42787  Biso   1.000  C
  C132     1.0000 0.31641  0.43313  0.38149  Biso   1.000  C
  H101     1.0000 0.30693  0.42487  0.33977  Biso   1.000  H
  C133     1.0000 0.36005  0.44859  0.39691  Biso   1.000  C
  H102     1.0000 0.37943  0.45037  0.36547  Biso   1.000  H
  C134     1.0000 0.23953  0.41038  0.41004  Biso   1.000  C
  C135     1.0000 0.22027  0.37343  0.37265  Biso   1.000  C
  H103     1.0000 0.23713  0.36127  0.35977  Biso   1.000  H
  H104     1.0000 0.23143  0.50737  0.40577  Biso   1.000  H
  H105     1.0000 0.24913  0.54267  0.50647  Biso   1.000  H
  O31      1.0000 0.69756  0.88780  0.76334  Biso   1.000  O
  O32      1.0000 0.72191  0.90018  0.86460  Biso   1.000  O
  C136     1.0000 0.72178  0.91180  0.80797  Biso   1.000  C
  C137     1.0000 0.75319  0.95865  0.79131  Biso   1.000  C
  C138     1.0000 0.77984  0.98800  0.83802  Biso   1.000  C
  H106     1.0000 0.77890  0.97840  0.87960  Biso   1.000  H
  C139     1.0000 0.80788  0.03174  0.82224  Biso   1.000  C
  H107     1.0000 0.82560  0.05120  0.85360  Biso   1.000  H
  C140     1.0000 0.80979  0.04662  0.76120  Biso   1.000  C
  C141     1.0000 0.78338  0.01692  0.71482  Biso   1.000  C
  H108     1.0000 0.78460  0.02640  0.67310  Biso   1.000  H
  C142     1.0000 0.75520  0.97328  0.73024  Biso   1.000  C
  H109     1.0000 0.73760  0.95390  0.69880  Biso   1.000  H
  C143     1.0000 0.83751  0.09380  0.74337  Biso   1.000  C
  C144     1.0000 0.81982  0.11306  0.70598  Biso   1.000  C
  H110     1.0000 0.79080  0.09620  0.69310  Biso   1.000  H
  H111     1.0000 0.94260  0.10190  0.73910  Biso   1.000  H
  H112     1.0000 0.96020  0.08420  0.83980  Biso   1.000  H
  O33      1.0000 0.36423  0.22113  0.09667  Biso   1.000  O
  O34      1.0000 0.38858  0.23351  0.19793  Biso   1.000  O
  C145     1.0000 0.38845  0.24513  0.14130  Biso   1.000  C
  C146     1.0000 0.41986  0.29198  0.12464  Biso   1.000  C
  C147     1.0000 0.44651  0.32133  0.17135  Biso   1.000  C
  H113     1.0000 0.44557  0.31173  0.21293  Biso   1.000  H
  C148     1.0000 0.47455  0.36507  0.15557  Biso   1.000  C
  H114     1.0000 0.49227  0.38453  0.18693  Biso   1.000  H
  C149     1.0000 0.47646  0.37995  0.09453  Biso   1.000  C
  C150     1.0000 0.45005  0.35025  0.04815  Biso   1.000  C
  H115     1.0000 0.45127  0.35973  0.00643  Biso   1.000  H
  C151     1.0000 0.42187  0.30661  0.06357  Biso   1.000  C
  H116     1.0000 0.40427  0.28723  0.03213  Biso   1.000  H
  C152     1.0000 0.50418  0.42713  0.07670  Biso   1.000  C
  C153     1.0000 0.48649  0.44639  0.03931  Biso   1.000  C
  H117     1.0000 0.45747  0.42953  0.02643  Biso   1.000  H
  H118     1.0000 0.60927  0.43523  0.07243  Biso   1.000  H
  H119     1.0000 0.62687  0.41753  0.17313  Biso   1.000  H
  O35      1.0000 0.03089  0.55447  0.43001  Biso   1.000  O
  O36      1.0000 0.05524  0.56685  0.53127  Biso   1.000  O
  C154     1.0000 0.05511  0.57847  0.47464  Biso   1.000  C
  C155     1.0000 0.08652  0.62532  0.45798  Biso   1.000  C
  C156     1.0000 0.11317  0.65467  0.50469  Biso   1.000  C
  H120     1.0000 0.11223  0.64507  0.54627  Biso   1.000  H
  C157     1.0000 0.14121  0.69841  0.48891  Biso   1.000  C
  H121     1.0000 0.15893  0.71787  0.52027  Biso   1.000  H
  C158     1.0000 0.14312  0.71329  0.42787  Biso   1.000  C
  C159     1.0000 0.11671  0.68359  0.38149  Biso   1.000  C
  H122     1.0000 0.11793  0.69307  0.33977  Biso   1.000  H
  C160     1.0000 0.08853  0.63995  0.39691  Biso   1.000  C
  H123     1.0000 0.07093  0.62057  0.36547  Biso   1.000  H
  C161     1.0000 0.17084  0.76047  0.41004  Biso   1.000  C
  C162     1.0000 0.15315  0.77973  0.37265  Biso   1.000  C
  H124     1.0000 0.12413  0.76287  0.35977  Biso   1.000  H
  H125     1.0000 0.27593  0.76857  0.40577  Biso   1.000  H
  H126     1.0000 0.29353  0.75087  0.50647  Biso   1.000  H
  O37      1.0000 0.69756  0.80976  0.76334  Biso   1.000  O
  O38      1.0000 0.72191  0.82173  0.86460  Biso   1.000  O
  C163     1.0000 0.72178  0.80998  0.80797  Biso   1.000  C
  C164     1.0000 0.75319  0.79454  0.79131  Biso   1.000  C
  C165     1.0000 0.77984  0.79184  0.83802  Biso   1.000  C
  H127     1.0000 0.77890  0.80050  0.87960  Biso   1.000  H
  C166     1.0000 0.80788  0.77614  0.82224  Biso   1.000  C
  H128     1.0000 0.82560  0.77440  0.85360  Biso   1.000  H
  C167     1.0000 0.80979  0.76317  0.76120  Biso   1.000  C
  C168     1.0000 0.78338  0.76646  0.71482  Biso   1.000  C
  H129     1.0000 0.78460  0.75820  0.67310  Biso   1.000  H
  C169     1.0000 0.75520  0.78192  0.73024  Biso   1.000  C
  H130     1.0000 0.73760  0.78370  0.69880  Biso   1.000  H
  C170     1.0000 0.83751  0.74371  0.74337  Biso   1.000  C
  C171     1.0000 0.81982  0.70676  0.70598  Biso   1.000  C
  H131     1.0000 0.79080  0.69460  0.69310  Biso   1.000  H
  H132     1.0000 0.94260  0.84070  0.73910  Biso   1.000  H
  H133     1.0000 0.96020  0.87600  0.83980  Biso   1.000  H
  O39      1.0000 0.36423  0.14309  0.09667  Biso   1.000  O
  O40      1.0000 0.38858  0.15506  0.19793  Biso   1.000  O
  C172     1.0000 0.38845  0.14331  0.14130  Biso   1.000  C
  C173     1.0000 0.41986  0.12787  0.12464  Biso   1.000  C
  C174     1.0000 0.44651  0.12517  0.17135  Biso   1.000  C
  H134     1.0000 0.44557  0.13383  0.21293  Biso   1.000  H
  C175     1.0000 0.47455  0.10947  0.15557  Biso   1.000  C
  H135     1.0000 0.49227  0.10773  0.18693  Biso   1.000  H
  C176     1.0000 0.47646  0.09650  0.09453  Biso   1.000  C
  C177     1.0000 0.45005  0.09979  0.04815  Biso   1.000  C
  H136     1.0000 0.45127  0.09153  0.00643  Biso   1.000  H
  C178     1.0000 0.42187  0.11525  0.06357  Biso   1.000  C
  H137     1.0000 0.40427  0.11703  0.03213  Biso   1.000  H
  C179     1.0000 0.50418  0.07704  0.07670  Biso   1.000  C
  C180     1.0000 0.48649  0.04009  0.03931  Biso   1.000  C
  H138     1.0000 0.45747  0.02793  0.02643  Biso   1.000  H
  H139     1.0000 0.60927  0.17403  0.07243  Biso   1.000  H
  H140     1.0000 0.62687  0.20933  0.17313  Biso   1.000  H
  O41      1.0000 0.03089  0.47643  0.43001  Biso   1.000  O
  O42      1.0000 0.05524  0.48840  0.53127  Biso   1.000  O
  C181     1.0000 0.05511  0.47665  0.47464  Biso   1.000  C
  C182     1.0000 0.08652  0.46121  0.45798  Biso   1.000  C
  C183     1.0000 0.11317  0.45851  0.50469  Biso   1.000  C
  H141     1.0000 0.11223  0.46717  0.54627  Biso   1.000  H
  C184     1.0000 0.14121  0.44281  0.48891  Biso   1.000  C
  H142     1.0000 0.15893  0.44107  0.52027  Biso   1.000  H
  C185     1.0000 0.14312  0.42984  0.42787  Biso   1.000  C
  C186     1.0000 0.11671  0.43313  0.38149  Biso   1.000  C
  H143     1.0000 0.11793  0.42487  0.33977  Biso   1.000  H
  C187     1.0000 0.08853  0.44859  0.39691  Biso   1.000  C
  H144     1.0000 0.07093  0.45037  0.36547  Biso   1.000  H
  C188     1.0000 0.17084  0.41038  0.41004  Biso   1.000  C
  C189     1.0000 0.15315  0.37343  0.37265  Biso   1.000  C
  H145     1.0000 0.12413  0.36127  0.35977  Biso   1.000  H
  H146     1.0000 0.27593  0.50737  0.40577  Biso   1.000  H
  H147     1.0000 0.29353  0.54267  0.50647  Biso   1.000  H
  O43      1.0000 0.19024  0.88780  0.76334  Biso   1.000  O
  O44      1.0000 0.17827  0.90018  0.86460  Biso   1.000  O
  C190     1.0000 0.19002  0.91180  0.80797  Biso   1.000  C
  C191     1.0000 0.20546  0.95865  0.79131  Biso   1.000  C
  C192     1.0000 0.20816  0.98800  0.83802  Biso   1.000  C
  H148     1.0000 0.19950  0.97840  0.87960  Biso   1.000  H
  C193     1.0000 0.22386  0.03174  0.82224  Biso   1.000  C
  H149     1.0000 0.22560  0.05120  0.85360  Biso   1.000  H
  C194     1.0000 0.23683  0.04662  0.76120  Biso   1.000  C
  C195     1.0000 0.23354  0.01692  0.71482  Biso   1.000  C
  H150     1.0000 0.24180  0.02640  0.67310  Biso   1.000  H
  C196     1.0000 0.21808  0.97328  0.73024  Biso   1.000  C
  H151     1.0000 0.21630  0.95390  0.69880  Biso   1.000  H
  C197     1.0000 0.25629  0.09380  0.74337  Biso   1.000  C
  C198     1.0000 0.29324  0.11306  0.70598  Biso   1.000  C
  H152     1.0000 0.30540  0.09620  0.69310  Biso   1.000  H
  H153     1.0000 0.15930  0.10190  0.73910  Biso   1.000  H
  H154     1.0000 0.12400  0.08420  0.83980  Biso   1.000  H
  O45      1.0000 0.85691  0.22113  0.09667  Biso   1.000  O
  O46      1.0000 0.84494  0.23351  0.19793  Biso   1.000  O
  C199     1.0000 0.85669  0.24513  0.14130  Biso   1.000  C
  C200     1.0000 0.87213  0.29198  0.12464  Biso   1.000  C
  C201     1.0000 0.87483  0.32133  0.17135  Biso   1.000  C
  H155     1.0000 0.86617  0.31173  0.21293  Biso   1.000  H
  C202     1.0000 0.89053  0.36507  0.15557  Biso   1.000  C
  H156     1.0000 0.89227  0.38453  0.18693  Biso   1.000  H
  C203     1.0000 0.90350  0.37995  0.09453  Biso   1.000  C
  C204     1.0000 0.90021  0.35025  0.04815  Biso   1.000  C
  H157     1.0000 0.90847  0.35973  0.00643  Biso   1.000  H
  C205     1.0000 0.88475  0.30661  0.06357  Biso   1.000  C
  H158     1.0000 0.88297  0.28723  0.03213  Biso   1.000  H
  C206     1.0000 0.92296  0.42713  0.07670  Biso   1.000  C
  C207     1.0000 0.95991  0.44639  0.03931  Biso   1.000  C
  H159     1.0000 0.97207  0.42953  0.02643  Biso   1.000  H
  H160     1.0000 0.82597  0.43523  0.07243  Biso   1.000  H
  H161     1.0000 0.79067  0.41753  0.17313  Biso   1.000  H
  O47      1.0000 0.52357  0.55447  0.43001  Biso   1.000  O
  O48      1.0000 0.51160  0.56685  0.53127  Biso   1.000  O
  C208     1.0000 0.52335  0.57847  0.47464  Biso   1.000  C
  C209     1.0000 0.53879  0.62532  0.45798  Biso   1.000  C
  C210     1.0000 0.54149  0.65467  0.50469  Biso   1.000  C
  H162     1.0000 0.53283  0.64507  0.54627  Biso   1.000  H
  C211     1.0000 0.55719  0.69841  0.48891  Biso   1.000  C
  H163     1.0000 0.55893  0.71787  0.52027  Biso   1.000  H
  C212     1.0000 0.57016  0.71329  0.42787  Biso   1.000  C
  C213     1.0000 0.56687  0.68359  0.38149  Biso   1.000  C
  H164     1.0000 0.57513  0.69307  0.33977  Biso   1.000  H
  C214     1.0000 0.55141  0.63995  0.39691  Biso   1.000  C
  H165     1.0000 0.54963  0.62057  0.36547  Biso   1.000  H
  C215     1.0000 0.58962  0.76047  0.41004  Biso   1.000  C
  C216     1.0000 0.62657  0.77973  0.37265  Biso   1.000  C
  H166     1.0000 0.63873  0.76287  0.35977  Biso   1.000  H
  H167     1.0000 0.49263  0.76857  0.40577  Biso   1.000  H
  H168     1.0000 0.45733  0.75087  0.50647  Biso   1.000  H
  O49      1.0000 0.11220  0.30244  0.76334  Biso   1.000  O
  O50      1.0000 0.09982  0.27809  0.86460  Biso   1.000  O
  C217     1.0000 0.08820  0.27822  0.80797  Biso   1.000  C
  C218     1.0000 0.04135  0.24681  0.79131  Biso   1.000  C
  C219     1.0000 0.01200  0.22016  0.83802  Biso   1.000  C
  H169     1.0000 0.02160  0.22110  0.87960  Biso   1.000  H
  C220     1.0000 0.96826  0.19212  0.82224  Biso   1.000  C
  H170     1.0000 0.94880  0.17440  0.85360  Biso   1.000  H
  C221     1.0000 0.95338  0.19021  0.76120  Biso   1.000  C
  C222     1.0000 0.98308  0.21662  0.71482  Biso   1.000  C
  H171     1.0000 0.97360  0.21540  0.67310  Biso   1.000  H
  C223     1.0000 0.02672  0.24480  0.73024  Biso   1.000  C
  H172     1.0000 0.04610  0.26240  0.69880  Biso   1.000  H
  C224     1.0000 0.90620  0.16249  0.74337  Biso   1.000  C
  C225     1.0000 0.88694  0.18018  0.70598  Biso   1.000  C
  H173     1.0000 0.90380  0.20920  0.69310  Biso   1.000  H
  H174     1.0000 0.89810  0.05740  0.73910  Biso   1.000  H
  H175     1.0000 0.91580  0.03980  0.83980  Biso   1.000  H
  O51      1.0000 0.77887  0.63577  0.09667  Biso   1.000  O
  O52      1.0000 0.76649  0.61142  0.19793  Biso   1.000  O
  C226     1.0000 0.75487  0.61155  0.14130  Biso   1.000  C
  C227     1.0000 0.70802  0.58014  0.12464  Biso   1.000  C
  C228     1.0000 0.67867  0.55349  0.17135  Biso   1.000  C
  H176     1.0000 0.68827  0.55443  0.21293  Biso   1.000  H
  C229     1.0000 0.63493  0.52545  0.15557  Biso   1.000  C
  H177     1.0000 0.61547  0.50773  0.18693  Biso   1.000  H
  C230     1.0000 0.62005  0.52354  0.09453  Biso   1.000  C
  C231     1.0000 0.64975  0.54995  0.04815  Biso   1.000  C
  H178     1.0000 0.64027  0.54873  0.00643  Biso   1.000  H
  C232     1.0000 0.69339  0.57813  0.06357  Biso   1.000  C
  H179     1.0000 0.71277  0.59573  0.03213  Biso   1.000  H
  C233     1.0000 0.57287  0.49582  0.07670  Biso   1.000  C
  C234     1.0000 0.55361  0.51351  0.03931  Biso   1.000  C
  H180     1.0000 0.57047  0.54253  0.02643  Biso   1.000  H
  H181     1.0000 0.56477  0.39073  0.07243  Biso   1.000  H
  H182     1.0000 0.58247  0.37313  0.17313  Biso   1.000  H
  O53      1.0000 0.44553  0.96911  0.43001  Biso   1.000  O
  O54      1.0000 0.43315  0.94476  0.53127  Biso   1.000  O
  C235     1.0000 0.42153  0.94489  0.47464  Biso   1.000  C
  C236     1.0000 0.37468  0.91348  0.45798  Biso   1.000  C
  C237     1.0000 0.34533  0.88683  0.50469  Biso   1.000  C
  H183     1.0000 0.35493  0.88777  0.54627  Biso   1.000  H
  C238     1.0000 0.30159  0.85879  0.48891  Biso   1.000  C
  H184     1.0000 0.28213  0.84107  0.52027  Biso   1.000  H
  C239     1.0000 0.28671  0.85688  0.42787  Biso   1.000  C
  C240     1.0000 0.31641  0.88329  0.38149  Biso   1.000  C
  H185     1.0000 0.30693  0.88207  0.33977  Biso   1.000  H
  C241     1.0000 0.36005  0.91147  0.39691  Biso   1.000  C
  H186     1.0000 0.37943  0.92907  0.36547  Biso   1.000  H
  C242     1.0000 0.23953  0.82916  0.41004  Biso   1.000  C
  C243     1.0000 0.22027  0.84685  0.37265  Biso   1.000  C
  H187     1.0000 0.23713  0.87587  0.35977  Biso   1.000  H
  H188     1.0000 0.23143  0.72407  0.40577  Biso   1.000  H
  H189     1.0000 0.24913  0.70647  0.50647  Biso   1.000  H
  O55      1.0000 0.80976  0.69756  0.23666  Biso   1.000  O
  O56      1.0000 0.82173  0.72191  0.13540  Biso   1.000  O
  C244     1.0000 0.80998  0.72178  0.19203  Biso   1.000  C
  C245     1.0000 0.79454  0.75319  0.20869  Biso   1.000  C
  C246     1.0000 0.79184  0.77984  0.16198  Biso   1.000  C
  H190     1.0000 0.80050  0.77890  0.12040  Biso   1.000  H
  C247     1.0000 0.77614  0.80788  0.17776  Biso   1.000  C
  H191     1.0000 0.77440  0.82560  0.14640  Biso   1.000  H
  C248     1.0000 0.76317  0.80979  0.23880  Biso   1.000  C
  C249     1.0000 0.76646  0.78338  0.28518  Biso   1.000  C
  H192     1.0000 0.75820  0.78460  0.32690  Biso   1.000  H
  C250     1.0000 0.78192  0.75520  0.26976  Biso   1.000  C
  H193     1.0000 0.78370  0.73760  0.30120  Biso   1.000  H
  C251     1.0000 0.74371  0.83751  0.25663  Biso   1.000  C
  C252     1.0000 0.70676  0.81982  0.29402  Biso   1.000  C
  H194     1.0000 0.69460  0.79080  0.30690  Biso   1.000  H
  H195     1.0000 0.84070  0.94260  0.26090  Biso   1.000  H
  H196     1.0000 0.87600  0.96020  0.16020  Biso   1.000  H
  O57      1.0000 0.47643  0.03089  0.56999  Biso   1.000  O
  O58      1.0000 0.48840  0.05524  0.46873  Biso   1.000  O
  C253     1.0000 0.47665  0.05511  0.52536  Biso   1.000  C
  C254     1.0000 0.46121  0.08652  0.54202  Biso   1.000  C
  C255     1.0000 0.45851  0.11317  0.49531  Biso   1.000  C
  H197     1.0000 0.46717  0.11223  0.45373  Biso   1.000  H
  C256     1.0000 0.44281  0.14121  0.51109  Biso   1.000  C
  H198     1.0000 0.44107  0.15893  0.47973  Biso   1.000  H
  C257     1.0000 0.42984  0.14312  0.57213  Biso   1.000  C
  C258     1.0000 0.43313  0.11671  0.61851  Biso   1.000  C
  H199     1.0000 0.42487  0.11793  0.66023  Biso   1.000  H
  C259     1.0000 0.44859  0.08853  0.60309  Biso   1.000  C
  H200     1.0000 0.45037  0.07093  0.63453  Biso   1.000  H
  C260     1.0000 0.41038  0.17084  0.58996  Biso   1.000  C
  C261     1.0000 0.37343  0.15315  0.62735  Biso   1.000  C
  H201     1.0000 0.36127  0.12413  0.64023  Biso   1.000  H
  H202     1.0000 0.50737  0.27593  0.59423  Biso   1.000  H
  H203     1.0000 0.54267  0.29353  0.49353  Biso   1.000  H
  O59      1.0000 0.14309  0.36423  0.90333  Biso   1.000  O
  O60      1.0000 0.15506  0.38858  0.80207  Biso   1.000  O
  C262     1.0000 0.14331  0.38845  0.85870  Biso   1.000  C
  C263     1.0000 0.12787  0.41986  0.87536  Biso   1.000  C
  C264     1.0000 0.12517  0.44651  0.82865  Biso   1.000  C
  H204     1.0000 0.13383  0.44557  0.78707  Biso   1.000  H
  C265     1.0000 0.10947  0.47455  0.84443  Biso   1.000  C
  H205     1.0000 0.10773  0.49227  0.81307  Biso   1.000  H
  C266     1.0000 0.09650  0.47646  0.90547  Biso   1.000  C
  C267     1.0000 0.09979  0.45005  0.95185  Biso   1.000  C
  H206     1.0000 0.09153  0.45127  0.99357  Biso   1.000  H
  C268     1.0000 0.11525  0.42187  0.93643  Biso   1.000  C
  H207     1.0000 0.11703  0.40427  0.96787  Biso   1.000  H
  C269     1.0000 0.07704  0.50418  0.92330  Biso   1.000  C
  C270     1.0000 0.04009  0.48649  0.96069  Biso   1.000  C
  H208     1.0000 0.02793  0.45747  0.97357  Biso   1.000  H
  H209     1.0000 0.17403  0.60927  0.92757  Biso   1.000  H
  H210     1.0000 0.20933  0.62687  0.82687  Biso   1.000  H
  O61      1.0000 0.88780  0.19024  0.23666  Biso   1.000  O
  O62      1.0000 0.90018  0.17827  0.13540  Biso   1.000  O
  C271     1.0000 0.91180  0.19002  0.19203  Biso   1.000  C
  C272     1.0000 0.95865  0.20546  0.20869  Biso   1.000  C
  C273     1.0000 0.98800  0.20816  0.16198  Biso   1.000  C
  H211     1.0000 0.97840  0.19950  0.12040  Biso   1.000  H
  C274     1.0000 0.03174  0.22386  0.17776  Biso   1.000  C
  H212     1.0000 0.05120  0.22560  0.14640  Biso   1.000  H
  C275     1.0000 0.04662  0.23683  0.23880  Biso   1.000  C
  C276     1.0000 0.01692  0.23354  0.28518  Biso   1.000  C
  H213     1.0000 0.02640  0.24180  0.32690  Biso   1.000  H
  C277     1.0000 0.97328  0.21808  0.26976  Biso   1.000  C
  H214     1.0000 0.95390  0.21630  0.30120  Biso   1.000  H
  C278     1.0000 0.09380  0.25629  0.25663  Biso   1.000  C
  C279     1.0000 0.11306  0.29324  0.29402  Biso   1.000  C
  H215     1.0000 0.09620  0.30540  0.30690  Biso   1.000  H
  H216     1.0000 0.10190  0.15930  0.26090  Biso   1.000  H
  H217     1.0000 0.08420  0.12400  0.16020  Biso   1.000  H
  O63      1.0000 0.55447  0.52357  0.56999  Biso   1.000  O
  O64      1.0000 0.56685  0.51160  0.46873  Biso   1.000  O
  C280     1.0000 0.57847  0.52335  0.52536  Biso   1.000  C
  C281     1.0000 0.62532  0.53879  0.54202  Biso   1.000  C
  C282     1.0000 0.65467  0.54149  0.49531  Biso   1.000  C
  H218     1.0000 0.64507  0.53283  0.45373  Biso   1.000  H
  C283     1.0000 0.69841  0.55719  0.51109  Biso   1.000  C
  H219     1.0000 0.71787  0.55893  0.47973  Biso   1.000  H
  C284     1.0000 0.71329  0.57016  0.57213  Biso   1.000  C
  C285     1.0000 0.68359  0.56687  0.61851  Biso   1.000  C
  H220     1.0000 0.69307  0.57513  0.66023  Biso   1.000  H
  C286     1.0000 0.63995  0.55141  0.60309  Biso   1.000  C
  H221     1.0000 0.62057  0.54963  0.63453  Biso   1.000  H
  C287     1.0000 0.76047  0.58962  0.58996  Biso   1.000  C
  C288     1.0000 0.77973  0.62657  0.62735  Biso   1.000  C
  H222     1.0000 0.76287  0.63873  0.64023  Biso   1.000  H
  H223     1.0000 0.76857  0.49263  0.59423  Biso   1.000  H
  H224     1.0000 0.75087  0.45733  0.49353  Biso   1.000  H
  O65      1.0000 0.22113  0.85691  0.90333  Biso   1.000  O
  O66      1.0000 0.23351  0.84494  0.80207  Biso   1.000  O
  C289     1.0000 0.24513  0.85669  0.85870  Biso   1.000  C
  C290     1.0000 0.29198  0.87213  0.87536  Biso   1.000  C
  C291     1.0000 0.32133  0.87483  0.82865  Biso   1.000  C
  H225     1.0000 0.31173  0.86617  0.78707  Biso   1.000  H
  C292     1.0000 0.36507  0.89053  0.84443  Biso   1.000  C
  H226     1.0000 0.38453  0.89227  0.81307  Biso   1.000  H
  C293     1.0000 0.37995  0.90350  0.90547  Biso   1.000  C
  C294     1.0000 0.35025  0.90021  0.95185  Biso   1.000  C
  H227     1.0000 0.35973  0.90847  0.99357  Biso   1.000  H
  C295     1.0000 0.30661  0.88475  0.93643  Biso   1.000  C
  H228     1.0000 0.28723  0.88297  0.96787  Biso   1.000  H
  C296     1.0000 0.42713  0.92296  0.92330  Biso   1.000  C
  C297     1.0000 0.44639  0.95991  0.96069  Biso   1.000  C
  H229     1.0000 0.42953  0.97207  0.97357  Biso   1.000  H
  H230     1.0000 0.43523  0.82597  0.92757  Biso   1.000  H
  H231     1.0000 0.41753  0.79067  0.82687  Biso   1.000  H
  O67      1.0000 0.30244  0.11220  0.23666  Biso   1.000  O
  O68      1.0000 0.27809  0.09982  0.13540  Biso   1.000  O
  C298     1.0000 0.27822  0.08820  0.19203  Biso   1.000  C
  C299     1.0000 0.24681  0.04135  0.20869  Biso   1.000  C
  C300     1.0000 0.22016  0.01200  0.16198  Biso   1.000  C
  H232     1.0000 0.22110  0.02160  0.12040  Biso   1.000  H
  C301     1.0000 0.19212  0.96826  0.17776  Biso   1.000  C
  H233     1.0000 0.17440  0.94880  0.14640  Biso   1.000  H
  C302     1.0000 0.19021  0.95338  0.23880  Biso   1.000  C
  C303     1.0000 0.21662  0.98308  0.28518  Biso   1.000  C
  H234     1.0000 0.21540  0.97360  0.32690  Biso   1.000  H
  C304     1.0000 0.24480  0.02672  0.26976  Biso   1.000  C
  H235     1.0000 0.26240  0.04610  0.30120  Biso   1.000  H
  C305     1.0000 0.16249  0.90620  0.25663  Biso   1.000  C
  C306     1.0000 0.18018  0.88694  0.29402  Biso   1.000  C
  H236     1.0000 0.20920  0.90380  0.30690  Biso   1.000  H
  H237     1.0000 0.05740  0.89810  0.26090  Biso   1.000  H
  H238     1.0000 0.03980  0.91580  0.16020  Biso   1.000  H
  O69      1.0000 0.96911  0.44553  0.56999  Biso   1.000  O
  O70      1.0000 0.94476  0.43315  0.46873  Biso   1.000  O
  C307     1.0000 0.94489  0.42153  0.52536  Biso   1.000  C
  C308     1.0000 0.91348  0.37468  0.54202  Biso   1.000  C
  C309     1.0000 0.88683  0.34533  0.49531  Biso   1.000  C
  H239     1.0000 0.88777  0.35493  0.45373  Biso   1.000  H
  C310     1.0000 0.85879  0.30159  0.51109  Biso   1.000  C
  H240     1.0000 0.84107  0.28213  0.47973  Biso   1.000  H
  C311     1.0000 0.85688  0.28671  0.57213  Biso   1.000  C
  C312     1.0000 0.88329  0.31641  0.61851  Biso   1.000  C
  H241     1.0000 0.88207  0.30693  0.66023  Biso   1.000  H
  C313     1.0000 0.91147  0.36005  0.60309  Biso   1.000  C
  H242     1.0000 0.92907  0.37943  0.63453  Biso   1.000  H
  C314     1.0000 0.82916  0.23953  0.58996  Biso   1.000  C
  C315     1.0000 0.84685  0.22027  0.62735  Biso   1.000  C
  H243     1.0000 0.87587  0.23713  0.64023  Biso   1.000  H
  H244     1.0000 0.72407  0.23143  0.59423  Biso   1.000  H
  H245     1.0000 0.70647  0.24913  0.49353  Biso   1.000  H
  O71      1.0000 0.63577  0.77887  0.90333  Biso   1.000  O
  O72      1.0000 0.61142  0.76649  0.80207  Biso   1.000  O
  C316     1.0000 0.61155  0.75487  0.85870  Biso   1.000  C
  C317     1.0000 0.58014  0.70802  0.87536  Biso   1.000  C
  C318     1.0000 0.55349  0.67867  0.82865  Biso   1.000  C
  H246     1.0000 0.55443  0.68827  0.78707  Biso   1.000  H
  C319     1.0000 0.52545  0.63493  0.84443  Biso   1.000  C
  H247     1.0000 0.50773  0.61547  0.81307  Biso   1.000  H
  C320     1.0000 0.52354  0.62005  0.90547  Biso   1.000  C
  C321     1.0000 0.54995  0.64975  0.95185  Biso   1.000  C
  H248     1.0000 0.54873  0.64027  0.99357  Biso   1.000  H
  C322     1.0000 0.57813  0.69339  0.93643  Biso   1.000  C
  H249     1.0000 0.59573  0.71277  0.96787  Biso   1.000  H
  C323     1.0000 0.49582  0.57287  0.92330  Biso   1.000  C
  C324     1.0000 0.51351  0.55361  0.96069  Biso   1.000  C
  H250     1.0000 0.54253  0.57047  0.97357  Biso   1.000  H
  H251     1.0000 0.39073  0.56477  0.92757  Biso   1.000  H
  H252     1.0000 0.37313  0.58247  0.82687  Biso   1.000  H
  Cu1      1.0000 0.31931  0.15965  0.10728  Biso   1.000  Cu
  Cu2      1.0000 0.98598  0.49299  0.44061  Biso   1.000  Cu
  Cu3      1.0000 0.65264  0.82632  0.77395  Biso   1.000  Cu
  Cu4      1.0000 0.84034  0.15966  0.10728  Biso   1.000  Cu
  Cu5      1.0000 0.50701  0.49299  0.44061  Biso   1.000  Cu
  Cu6      1.0000 0.17368  0.82632  0.77395  Biso   1.000  Cu
  Cu7      1.0000 0.84034  0.68069  0.10728  Biso   1.000  Cu
  Cu8      1.0000 0.50701  0.01402  0.44061  Biso   1.000  Cu
  Cu9      1.0000 0.17368  0.34736  0.77395  Biso   1.000  Cu
  Cu10     1.0000 0.15966  0.31931  0.89272  Biso   1.000  Cu
  Cu11     1.0000 0.82632  0.65264  0.22605  Biso   1.000  Cu
  Cu12     1.0000 0.49299  0.98598  0.55939  Biso   1.000  Cu
  Cu13     1.0000 0.15966  0.84034  0.89272  Biso   1.000  Cu
  Cu14     1.0000 0.82632  0.17368  0.22605  Biso   1.000  Cu
  Cu15     1.0000 0.49299  0.50701  0.55939  Biso   1.000  Cu
  Cu16     1.0000 0.68069  0.84034  0.89272  Biso   1.000  Cu
  Cu17     1.0000 0.34736  0.17368  0.22605  Biso   1.000  Cu
  Cu18     1.0000 0.01402  0.50701  0.55939  Biso   1.000  Cu
  O73      1.0000 0.10029  0.20057  0.19953  Biso   1.000  O
  C325     1.0000 0.15668  0.31336  0.31360  Biso   1.000  C
  C326     1.0000 0.11866  0.23732  0.23781  Biso   1.000  C
  C327     1.0000 0.08044  0.16087  0.23390  Biso   1.000  C
  C328     1.0000 0.06120  0.12240  0.18650  Biso   1.000  C
  H253     1.0000 0.04765  0.09530  0.20960  Biso   1.000  H
  O74      1.0000 0.76695  0.53390  0.53286  Biso   1.000  O
  C329     1.0000 0.82335  0.64669  0.64693  Biso   1.000  C
  C330     1.0000 0.78533  0.57065  0.57114  Biso   1.000  C
  C331     1.0000 0.74710  0.49420  0.56723  Biso   1.000  C
  C332     1.0000 0.72787  0.45573  0.51983  Biso   1.000  C
  H254     1.0000 0.71432  0.42863  0.54293  Biso   1.000  H
  O75      1.0000 0.43362  0.86724  0.86620  Biso   1.000  O
  C333     1.0000 0.49001  0.98003  0.98027  Biso   1.000  C
  C334     1.0000 0.45199  0.90399  0.90448  Biso   1.000  C
  C335     1.0000 0.41377  0.82754  0.90057  Biso   1.000  C
  C336     1.0000 0.39453  0.78907  0.85317  Biso   1.000  C
  H255     1.0000 0.38098  0.76197  0.87627  Biso   1.000  H
  O76      1.0000 0.79943  0.89971  0.19953  Biso   1.000  O
  C337     1.0000 0.68664  0.84332  0.31360  Biso   1.000  C
  C338     1.0000 0.76268  0.88134  0.23781  Biso   1.000  C
  C339     1.0000 0.83913  0.91957  0.23390  Biso   1.000  C
  C340     1.0000 0.87760  0.93880  0.18650  Biso   1.000  C
  H256     1.0000 0.90470  0.95235  0.20960  Biso   1.000  H
  O77      1.0000 0.46610  0.23305  0.53286  Biso   1.000  O
  C341     1.0000 0.35331  0.17665  0.64693  Biso   1.000  C
  C342     1.0000 0.42935  0.21467  0.57114  Biso   1.000  C
  C343     1.0000 0.50580  0.25290  0.56723  Biso   1.000  C
  C344     1.0000 0.54427  0.27213  0.51983  Biso   1.000  C
  H257     1.0000 0.57137  0.28568  0.54293  Biso   1.000  H
  O78      1.0000 0.13276  0.56638  0.86620  Biso   1.000  O
  C345     1.0000 0.01997  0.50999  0.98027  Biso   1.000  C
  C346     1.0000 0.09601  0.54801  0.90448  Biso   1.000  C
  C347     1.0000 0.17246  0.58623  0.90057  Biso   1.000  C
  C348     1.0000 0.21093  0.60547  0.85317  Biso   1.000  C
  H258     1.0000 0.23803  0.61902  0.87627  Biso   1.000  H
  O79      1.0000 0.10029  0.89971  0.19953  Biso   1.000  O
  C349     1.0000 0.15668  0.84332  0.31360  Biso   1.000  C
  C350     1.0000 0.11866  0.88134  0.23781  Biso   1.000  C
  C351     1.0000 0.08044  0.91956  0.23390  Biso   1.000  C
  C352     1.0000 0.06120  0.93880  0.18650  Biso   1.000  C
  H259     1.0000 0.04765  0.95235  0.20960  Biso   1.000  H
  O80      1.0000 0.76695  0.23305  0.53286  Biso   1.000  O
  C353     1.0000 0.82335  0.17665  0.64693  Biso   1.000  C
  C354     1.0000 0.78533  0.21467  0.57114  Biso   1.000  C
  C355     1.0000 0.74710  0.25290  0.56723  Biso   1.000  C
  C356     1.0000 0.72787  0.27213  0.51983  Biso   1.000  C
  H260     1.0000 0.71432  0.28568  0.54293  Biso   1.000  H
  O81      1.0000 0.43362  0.56638  0.86620  Biso   1.000  O
  C357     1.0000 0.49001  0.50999  0.98027  Biso   1.000  C
  C358     1.0000 0.45199  0.54801  0.90448  Biso   1.000  C
  C359     1.0000 0.41377  0.58623  0.90057  Biso   1.000  C
  C360     1.0000 0.39453  0.60547  0.85317  Biso   1.000  C
  H261     1.0000 0.38098  0.61902  0.87627  Biso   1.000  H
  O82      1.0000 0.20057  0.10029  0.80047  Biso   1.000  O
  C361     1.0000 0.31336  0.15668  0.68640  Biso   1.000  C
  C362     1.0000 0.23732  0.11866  0.76219  Biso   1.000  C
  C363     1.0000 0.16087  0.08044  0.76610  Biso   1.000  C
  C364     1.0000 0.12240  0.06120  0.81350  Biso   1.000  C
  H262     1.0000 0.09530  0.04765  0.79040  Biso   1.000  H
  O83      1.0000 0.86724  0.43362  0.13380  Biso   1.000  O
  C365     1.0000 0.98003  0.49001  0.01973  Biso   1.000  C
  C366     1.0000 0.90399  0.45199  0.09552  Biso   1.000  C
  C367     1.0000 0.82754  0.41377  0.09943  Biso   1.000  C
  C368     1.0000 0.78907  0.39453  0.14683  Biso   1.000  C
  H263     1.0000 0.76197  0.38098  0.12373  Biso   1.000  H
  O84      1.0000 0.53390  0.76695  0.46714  Biso   1.000  O
  C369     1.0000 0.64669  0.82335  0.35307  Biso   1.000  C
  C370     1.0000 0.57065  0.78533  0.42886  Biso   1.000  C
  C371     1.0000 0.49420  0.74710  0.43277  Biso   1.000  C
  C372     1.0000 0.45573  0.72787  0.48017  Biso   1.000  C
  H264     1.0000 0.42863  0.71432  0.45707  Biso   1.000  H
  O85      1.0000 0.89971  0.79943  0.80047  Biso   1.000  O
  C373     1.0000 0.84332  0.68664  0.68640  Biso   1.000  C
  C374     1.0000 0.88134  0.76268  0.76219  Biso   1.000  C
  C375     1.0000 0.91956  0.83913  0.76610  Biso   1.000  C
  C376     1.0000 0.93880  0.87760  0.81350  Biso   1.000  C
  H265     1.0000 0.95235  0.90470  0.79040  Biso   1.000  H
  O86      1.0000 0.56638  0.13276  0.13380  Biso   1.000  O
  C377     1.0000 0.50999  0.01997  0.01973  Biso   1.000  C
  C378     1.0000 0.54801  0.09601  0.09552  Biso   1.000  C
  C379     1.0000 0.58623  0.17246  0.09943  Biso   1.000  C
  C380     1.0000 0.60547  0.21093  0.14683  Biso   1.000  C
  H266     1.0000 0.61902  0.23803  0.12373  Biso   1.000  H
  O87      1.0000 0.23305  0.46610  0.46714  Biso   1.000  O
  C381     1.0000 0.17665  0.35331  0.35307  Biso   1.000  C
  C382     1.0000 0.21467  0.42935  0.42886  Biso   1.000  C
  C383     1.0000 0.25290  0.50580  0.43277  Biso   1.000  C
  C384     1.0000 0.27213  0.54427  0.48017  Biso   1.000  C
  H267     1.0000 0.28568  0.57137  0.45707  Biso   1.000  H
  O88      1.0000 0.89971  0.10029  0.80047  Biso   1.000  O
  C385     1.0000 0.84332  0.15668  0.68640  Biso   1.000  C
  C386     1.0000 0.88134  0.11866  0.76219  Biso   1.000  C
  C387     1.0000 0.91956  0.08044  0.76610  Biso   1.000  C
  C388     1.0000 0.93880  0.06120  0.81350  Biso   1.000  C
  H268     1.0000 0.95235  0.04765  0.79040  Biso   1.000  H
  O89      1.0000 0.56638  0.43362  0.13380  Biso   1.000  O
  C389     1.0000 0.50999  0.49001  0.01973  Biso   1.000  C
  C390     1.0000 0.54801  0.45199  0.09552  Biso   1.000  C
  C391     1.0000 0.58623  0.41377  0.09943  Biso   1.000  C
  C392     1.0000 0.60547  0.39453  0.14683  Biso   1.000  C
  H269     1.0000 0.61902  0.38098  0.12373  Biso   1.000  H
  O90      1.0000 0.23305  0.76695  0.46714  Biso   1.000  O
  C393     1.0000 0.17665  0.82335  0.35307  Biso   1.000  C
  C394     1.0000 0.21467  0.78533  0.42886  Biso   1.000  C
  C395     1.0000 0.25290  0.74710  0.43277  Biso   1.000  C
  C396     1.0000 0.27213  0.72787  0.48017  Biso   1.000  C
  H270     1.0000 0.28568  0.71432  0.45707  Biso   1.000  H
