data_image0
_cell_length_a       34.6084
_cell_length_b       34.6084
_cell_length_c       25.7181
_cell_angle_alpha    90
_cell_angle_beta     90
_cell_angle_gamma    120

_symmetry_space_group_name_H-M    "P 1"
_symmetry_int_tables_number       1

loop_
  _symmetry_equiv_pos_as_xyz
  'x, y, z'

loop_
  _atom_site_label
  _atom_site_occupancy
  _atom_site_fract_x
  _atom_site_fract_y
  _atom_site_fract_z
  _atom_site_thermal_displace_type
  _atom_site_B_iso_or_equiv
  _atom_site_type_symbol
  O1       1.0000 0.64149  0.78084  0.39724  Biso   1.000  O
  O2       1.0000 0.60939  0.76436  0.31832  Biso   1.000  O
  C1       1.0000 0.61370  0.75494  0.36379  Biso   1.000  C
  C2       1.0000 0.58320  0.70790  0.38173  Biso   1.000  C
  C3       1.0000 0.55456  0.67616  0.34654  Biso   1.000  C
  H1       1.0000 0.55400  0.68430  0.31140  Biso   1.000  H
  C4       1.0000 0.52674  0.63250  0.36251  Biso   1.000  C
  H2       1.0000 0.50760  0.61090  0.33790  Biso   1.000  H
  C5       1.0000 0.52641  0.61978  0.41413  Biso   1.000  C
  C6       1.0000 0.55548  0.65196  0.44816  Biso   1.000  C
  H3       1.0000 0.55620  0.64420  0.48340  Biso   1.000  H
  C7       1.0000 0.58375  0.69562  0.43201  Biso   1.000  C
  H4       1.0000 0.60360  0.71710  0.45620  Biso   1.000  H
  C8       1.0000 0.49772  0.57273  0.43159  Biso   1.000  C
  C9       1.0000 0.51496  0.55385  0.46421  Biso   1.000  C
  H5       1.0000 0.54500  0.57140  0.47540  Biso   1.000  H
  H6       1.0000 0.43590  0.61070  0.43120  Biso   1.000  H
  H7       1.0000 0.37560  0.57820  0.34590  Biso   1.000  H
  O3       1.0000 0.30816  0.11417  0.73057  Biso   1.000  O
  O4       1.0000 0.27606  0.09769  0.65165  Biso   1.000  O
  C10      1.0000 0.28037  0.08827  0.69712  Biso   1.000  C
  C11      1.0000 0.24987  0.04123  0.71506  Biso   1.000  C
  C12      1.0000 0.22123  0.00949  0.67987  Biso   1.000  C
  H8       1.0000 0.22067  0.01763  0.64473  Biso   1.000  H
  C13      1.0000 0.19341  0.96583  0.69584  Biso   1.000  C
  H9       1.0000 0.17427  0.94423  0.67123  Biso   1.000  H
  C14      1.0000 0.19308  0.95311  0.74746  Biso   1.000  C
  C15      1.0000 0.22215  0.98529  0.78149  Biso   1.000  C
  H10      1.0000 0.22287  0.97753  0.81673  Biso   1.000  H
  C16      1.0000 0.25042  0.02895  0.76534  Biso   1.000  C
  H11      1.0000 0.27027  0.05043  0.78953  Biso   1.000  H
  C17      1.0000 0.16439  0.90606  0.76492  Biso   1.000  C
  C18      1.0000 0.18163  0.88718  0.79754  Biso   1.000  C
  H12      1.0000 0.21167  0.90473  0.80873  Biso   1.000  H
  H13      1.0000 0.10257  0.94403  0.76453  Biso   1.000  H
  H14      1.0000 0.04227  0.91153  0.67923  Biso   1.000  H
  O5       1.0000 0.97482  0.44751  0.06391  Biso   1.000  O
  O6       1.0000 0.94272  0.43103  0.98499  Biso   1.000  O
  C19      1.0000 0.94703  0.42161  0.03046  Biso   1.000  C
  C20      1.0000 0.91653  0.37457  0.04840  Biso   1.000  C
  C21      1.0000 0.88789  0.34283  0.01321  Biso   1.000  C
  H15      1.0000 0.88733  0.35097  0.97807  Biso   1.000  H
  C22      1.0000 0.86007  0.29917  0.02918  Biso   1.000  C
  H16      1.0000 0.84093  0.27757  0.00457  Biso   1.000  H
  C23      1.0000 0.85974  0.28645  0.08080  Biso   1.000  C
  C24      1.0000 0.88881  0.31863  0.11483  Biso   1.000  C
  H17      1.0000 0.88953  0.31087  0.15007  Biso   1.000  H
  C25      1.0000 0.91708  0.36229  0.09868  Biso   1.000  C
  H18      1.0000 0.93693  0.38377  0.12287  Biso   1.000  H
  C26      1.0000 0.83105  0.23940  0.09826  Biso   1.000  C
  C27      1.0000 0.84829  0.22052  0.13088  Biso   1.000  C
  H19      1.0000 0.87833  0.23807  0.14207  Biso   1.000  H
  H20      1.0000 0.76923  0.27737  0.09787  Biso   1.000  H
  H21      1.0000 0.70893  0.24487  0.01257  Biso   1.000  H
  O7       1.0000 0.21916  0.86065  0.39724  Biso   1.000  O
  O8       1.0000 0.23564  0.84503  0.31832  Biso   1.000  O
  C28      1.0000 0.24506  0.85876  0.36379  Biso   1.000  C
  C29      1.0000 0.29210  0.87530  0.38173  Biso   1.000  C
  C30      1.0000 0.32384  0.87840  0.34654  Biso   1.000  C
  H22      1.0000 0.31570  0.86970  0.31140  Biso   1.000  H
  C31      1.0000 0.36750  0.89424  0.36251  Biso   1.000  C
  H23      1.0000 0.38910  0.89670  0.33790  Biso   1.000  H
  C32      1.0000 0.38022  0.90663  0.41413  Biso   1.000  C
  C33      1.0000 0.34804  0.90352  0.44816  Biso   1.000  C
  H24      1.0000 0.35580  0.91200  0.48340  Biso   1.000  H
  C34      1.0000 0.30438  0.88813  0.43201  Biso   1.000  C
  H25      1.0000 0.28290  0.88650  0.45620  Biso   1.000  H
  C35      1.0000 0.42727  0.92499  0.43159  Biso   1.000  C
  C36      1.0000 0.44615  0.96111  0.46421  Biso   1.000  C
  H26      1.0000 0.42860  0.97360  0.47540  Biso   1.000  H
  H27      1.0000 0.38930  0.82520  0.43120  Biso   1.000  H
  H28      1.0000 0.42180  0.79740  0.34590  Biso   1.000  H
  O9       1.0000 0.88583  0.19398  0.73057  Biso   1.000  O
  O10      1.0000 0.90231  0.17836  0.65165  Biso   1.000  O
  C37      1.0000 0.91173  0.19209  0.69712  Biso   1.000  C
  C38      1.0000 0.95877  0.20863  0.71506  Biso   1.000  C
  C39      1.0000 0.99051  0.21173  0.67987  Biso   1.000  C
  H29      1.0000 0.98237  0.20303  0.64473  Biso   1.000  H
  C40      1.0000 0.03417  0.22757  0.69584  Biso   1.000  C
  H30      1.0000 0.05577  0.23003  0.67123  Biso   1.000  H
  C41      1.0000 0.04689  0.23996  0.74746  Biso   1.000  C
  C42      1.0000 0.01471  0.23685  0.78149  Biso   1.000  C
  H31      1.0000 0.02247  0.24533  0.81673  Biso   1.000  H
  C43      1.0000 0.97105  0.22146  0.76534  Biso   1.000  C
  H32      1.0000 0.94957  0.21983  0.78953  Biso   1.000  H
  C44      1.0000 0.09394  0.25832  0.76492  Biso   1.000  C
  C45      1.0000 0.11282  0.29444  0.79754  Biso   1.000  C
  H33      1.0000 0.09527  0.30693  0.80873  Biso   1.000  H
  H34      1.0000 0.05597  0.15853  0.76453  Biso   1.000  H
  H35      1.0000 0.08847  0.13073  0.67923  Biso   1.000  H
  O11      1.0000 0.55249  0.52732  0.06391  Biso   1.000  O
  O12      1.0000 0.56897  0.51170  0.98499  Biso   1.000  O
  C46      1.0000 0.57839  0.52543  0.03046  Biso   1.000  C
  C47      1.0000 0.62543  0.54197  0.04840  Biso   1.000  C
  C48      1.0000 0.65717  0.54507  0.01321  Biso   1.000  C
  H36      1.0000 0.64903  0.53637  0.97807  Biso   1.000  H
  C49      1.0000 0.70083  0.56091  0.02918  Biso   1.000  C
  H37      1.0000 0.72243  0.56337  0.00457  Biso   1.000  H
  C50      1.0000 0.71355  0.57330  0.08080  Biso   1.000  C
  C51      1.0000 0.68137  0.57019  0.11483  Biso   1.000  C
  H38      1.0000 0.68913  0.57867  0.15007  Biso   1.000  H
  C52      1.0000 0.63771  0.55480  0.09868  Biso   1.000  C
  H39      1.0000 0.61623  0.55317  0.12287  Biso   1.000  H
  C53      1.0000 0.76060  0.59166  0.09826  Biso   1.000  C
  C54      1.0000 0.77948  0.62778  0.13088  Biso   1.000  C
  H40      1.0000 0.76193  0.64027  0.14207  Biso   1.000  H
  H41      1.0000 0.72263  0.49187  0.09787  Biso   1.000  H
  H42      1.0000 0.75513  0.46407  0.01257  Biso   1.000  H
  O13      1.0000 0.13935  0.35851  0.39724  Biso   1.000  O
  O14      1.0000 0.15497  0.39061  0.31832  Biso   1.000  O
  C55      1.0000 0.14124  0.38630  0.36379  Biso   1.000  C
  C56      1.0000 0.12470  0.41680  0.38173  Biso   1.000  C
  C57      1.0000 0.12160  0.44544  0.34654  Biso   1.000  C
  H43      1.0000 0.13030  0.44600  0.31140  Biso   1.000  H
  C58      1.0000 0.10576  0.47326  0.36251  Biso   1.000  C
  H44      1.0000 0.10330  0.49240  0.33790  Biso   1.000  H
  C59      1.0000 0.09337  0.47359  0.41413  Biso   1.000  C
  C60      1.0000 0.09648  0.44452  0.44816  Biso   1.000  C
  H45      1.0000 0.08800  0.44380  0.48340  Biso   1.000  H
  C61      1.0000 0.11187  0.41625  0.43201  Biso   1.000  C
  H46      1.0000 0.11350  0.39640  0.45620  Biso   1.000  H
  C62      1.0000 0.07501  0.50228  0.43159  Biso   1.000  C
  C63      1.0000 0.03889  0.48504  0.46421  Biso   1.000  C
  H47      1.0000 0.02640  0.45500  0.47540  Biso   1.000  H
  H48      1.0000 0.17480  0.56410  0.43120  Biso   1.000  H
  H49      1.0000 0.20260  0.62440  0.34590  Biso   1.000  H
  O15      1.0000 0.80602  0.69184  0.73057  Biso   1.000  O
  O16      1.0000 0.82164  0.72394  0.65165  Biso   1.000  O
  C64      1.0000 0.80791  0.71963  0.69712  Biso   1.000  C
  C65      1.0000 0.79137  0.75013  0.71506  Biso   1.000  C
  C66      1.0000 0.78827  0.77877  0.67987  Biso   1.000  C
  H50      1.0000 0.79697  0.77933  0.64473  Biso   1.000  H
  C67      1.0000 0.77243  0.80659  0.69584  Biso   1.000  C
  H51      1.0000 0.76997  0.82573  0.67123  Biso   1.000  H
  C68      1.0000 0.76004  0.80692  0.74746  Biso   1.000  C
  C69      1.0000 0.76315  0.77785  0.78149  Biso   1.000  C
  H52      1.0000 0.75467  0.77713  0.81673  Biso   1.000  H
  C70      1.0000 0.77854  0.74958  0.76534  Biso   1.000  C
  H53      1.0000 0.78017  0.72973  0.78953  Biso   1.000  H
  C71      1.0000 0.74168  0.83561  0.76492  Biso   1.000  C
  C72      1.0000 0.70556  0.81837  0.79754  Biso   1.000  C
  H54      1.0000 0.69307  0.78833  0.80873  Biso   1.000  H
  H55      1.0000 0.84147  0.89743  0.76453  Biso   1.000  H
  H56      1.0000 0.86927  0.95773  0.67923  Biso   1.000  H
  O17      1.0000 0.47268  0.02518  0.06391  Biso   1.000  O
  O18      1.0000 0.48830  0.05728  0.98499  Biso   1.000  O
  C73      1.0000 0.47457  0.05297  0.03046  Biso   1.000  C
  C74      1.0000 0.45803  0.08347  0.04840  Biso   1.000  C
  C75      1.0000 0.45493  0.11211  0.01321  Biso   1.000  C
  H57      1.0000 0.46363  0.11267  0.97807  Biso   1.000  H
  C76      1.0000 0.43909  0.13993  0.02918  Biso   1.000  C
  H58      1.0000 0.43663  0.15907  0.00457  Biso   1.000  H
  C77      1.0000 0.42670  0.14026  0.08080  Biso   1.000  C
  C78      1.0000 0.42981  0.11119  0.11483  Biso   1.000  C
  H59      1.0000 0.42133  0.11047  0.15007  Biso   1.000  H
  C79      1.0000 0.44520  0.08292  0.09868  Biso   1.000  C
  H60      1.0000 0.44683  0.06307  0.12287  Biso   1.000  H
  C80      1.0000 0.40834  0.16895  0.09826  Biso   1.000  C
  C81      1.0000 0.37222  0.15171  0.13088  Biso   1.000  C
  H61      1.0000 0.35973  0.12167  0.14207  Biso   1.000  H
  H62      1.0000 0.50813  0.23077  0.09787  Biso   1.000  H
  H63      1.0000 0.53593  0.29107  0.01257  Biso   1.000  H
  O19      1.0000 0.78084  0.64149  0.60276  Biso   1.000  O
  O20      1.0000 0.76436  0.60939  0.68168  Biso   1.000  O
  C82      1.0000 0.75494  0.61370  0.63621  Biso   1.000  C
  C83      1.0000 0.70790  0.58320  0.61827  Biso   1.000  C
  C84      1.0000 0.67616  0.55456  0.65346  Biso   1.000  C
  H64      1.0000 0.68430  0.55400  0.68860  Biso   1.000  H
  C85      1.0000 0.63250  0.52674  0.63749  Biso   1.000  C
  H65      1.0000 0.61090  0.50760  0.66210  Biso   1.000  H
  C86      1.0000 0.61978  0.52641  0.58587  Biso   1.000  C
  C87      1.0000 0.65196  0.55548  0.55184  Biso   1.000  C
  H66      1.0000 0.64420  0.55620  0.51660  Biso   1.000  H
  C88      1.0000 0.69562  0.58375  0.56799  Biso   1.000  C
  H67      1.0000 0.71710  0.60360  0.54380  Biso   1.000  H
  C89      1.0000 0.57273  0.49772  0.56841  Biso   1.000  C
  C90      1.0000 0.55385  0.51496  0.53579  Biso   1.000  C
  H68      1.0000 0.57140  0.54500  0.52460  Biso   1.000  H
  H69      1.0000 0.61070  0.43590  0.56880  Biso   1.000  H
  H70      1.0000 0.57820  0.37560  0.65410  Biso   1.000  H
  O21      1.0000 0.44751  0.97482  0.93609  Biso   1.000  O
  O22      1.0000 0.43103  0.94272  0.01501  Biso   1.000  O
  C91      1.0000 0.42161  0.94703  0.96954  Biso   1.000  C
  C92      1.0000 0.37457  0.91653  0.95160  Biso   1.000  C
  C93      1.0000 0.34283  0.88789  0.98679  Biso   1.000  C
  H71      1.0000 0.35097  0.88733  0.02193  Biso   1.000  H
  C94      1.0000 0.29917  0.86007  0.97082  Biso   1.000  C
  H72      1.0000 0.27757  0.84093  0.99543  Biso   1.000  H
  C95      1.0000 0.28645  0.85974  0.91920  Biso   1.000  C
  C96      1.0000 0.31863  0.88881  0.88517  Biso   1.000  C
  H73      1.0000 0.31087  0.88953  0.84993  Biso   1.000  H
  C97      1.0000 0.36229  0.91708  0.90132  Biso   1.000  C
  H74      1.0000 0.38377  0.93693  0.87713  Biso   1.000  H
  C98      1.0000 0.23940  0.83105  0.90174  Biso   1.000  C
  C99      1.0000 0.22052  0.84829  0.86912  Biso   1.000  C
  H75      1.0000 0.23807  0.87833  0.85793  Biso   1.000  H
  H76      1.0000 0.27737  0.76923  0.90213  Biso   1.000  H
  H77      1.0000 0.24487  0.70893  0.98743  Biso   1.000  H
  O23      1.0000 0.11417  0.30816  0.26943  Biso   1.000  O
  O24      1.0000 0.09769  0.27606  0.34835  Biso   1.000  O
  C100     1.0000 0.08827  0.28037  0.30288  Biso   1.000  C
  C101     1.0000 0.04123  0.24987  0.28494  Biso   1.000  C
  C102     1.0000 0.00949  0.22123  0.32013  Biso   1.000  C
  H78      1.0000 0.01763  0.22067  0.35527  Biso   1.000  H
  C103     1.0000 0.96583  0.19341  0.30416  Biso   1.000  C
  H79      1.0000 0.94423  0.17427  0.32877  Biso   1.000  H
  C104     1.0000 0.95311  0.19308  0.25254  Biso   1.000  C
  C105     1.0000 0.98529  0.22215  0.21851  Biso   1.000  C
  H80      1.0000 0.97753  0.22287  0.18327  Biso   1.000  H
  C106     1.0000 0.02895  0.25042  0.23466  Biso   1.000  C
  H81      1.0000 0.05043  0.27027  0.21047  Biso   1.000  H
  C107     1.0000 0.90606  0.16439  0.23508  Biso   1.000  C
  C108     1.0000 0.88718  0.18163  0.20246  Biso   1.000  C
  H82      1.0000 0.90473  0.21167  0.19127  Biso   1.000  H
  H83      1.0000 0.94403  0.10257  0.23547  Biso   1.000  H
  H84      1.0000 0.91153  0.04227  0.32077  Biso   1.000  H
  O25      1.0000 0.86065  0.21916  0.60276  Biso   1.000  O
  O26      1.0000 0.84503  0.23564  0.68168  Biso   1.000  O
  C109     1.0000 0.85876  0.24506  0.63621  Biso   1.000  C
  C110     1.0000 0.87530  0.29210  0.61827  Biso   1.000  C
  C111     1.0000 0.87840  0.32384  0.65346  Biso   1.000  C
  H85      1.0000 0.86970  0.31570  0.68860  Biso   1.000  H
  C112     1.0000 0.89424  0.36750  0.63749  Biso   1.000  C
  H86      1.0000 0.89670  0.38910  0.66210  Biso   1.000  H
  C113     1.0000 0.90663  0.38022  0.58587  Biso   1.000  C
  C114     1.0000 0.90352  0.34804  0.55184  Biso   1.000  C
  H87      1.0000 0.91200  0.35580  0.51660  Biso   1.000  H
  C115     1.0000 0.88813  0.30438  0.56799  Biso   1.000  C
  H88      1.0000 0.88650  0.28290  0.54380  Biso   1.000  H
  C116     1.0000 0.92499  0.42727  0.56841  Biso   1.000  C
  C117     1.0000 0.96111  0.44615  0.53579  Biso   1.000  C
  H89      1.0000 0.97360  0.42860  0.52460  Biso   1.000  H
  H90      1.0000 0.82520  0.38930  0.56880  Biso   1.000  H
  H91      1.0000 0.79740  0.42180  0.65410  Biso   1.000  H
  O27      1.0000 0.52732  0.55249  0.93609  Biso   1.000  O
  O28      1.0000 0.51170  0.56897  0.01501  Biso   1.000  O
  C118     1.0000 0.52543  0.57839  0.96954  Biso   1.000  C
  C119     1.0000 0.54197  0.62543  0.95160  Biso   1.000  C
  C120     1.0000 0.54507  0.65717  0.98679  Biso   1.000  C
  H92      1.0000 0.53637  0.64903  0.02193  Biso   1.000  H
  C121     1.0000 0.56091  0.70083  0.97082  Biso   1.000  C
  H93      1.0000 0.56337  0.72243  0.99543  Biso   1.000  H
  C122     1.0000 0.57330  0.71355  0.91920  Biso   1.000  C
  C123     1.0000 0.57019  0.68137  0.88517  Biso   1.000  C
  H94      1.0000 0.57867  0.68913  0.84993  Biso   1.000  H
  C124     1.0000 0.55480  0.63771  0.90132  Biso   1.000  C
  H95      1.0000 0.55317  0.61623  0.87713  Biso   1.000  H
  C125     1.0000 0.59166  0.76060  0.90174  Biso   1.000  C
  C126     1.0000 0.62778  0.77948  0.86912  Biso   1.000  C
  H96      1.0000 0.64027  0.76193  0.85793  Biso   1.000  H
  H97      1.0000 0.49187  0.72263  0.90213  Biso   1.000  H
  H98      1.0000 0.46407  0.75513  0.98743  Biso   1.000  H
  O29      1.0000 0.19398  0.88583  0.26943  Biso   1.000  O
  O30      1.0000 0.17836  0.90231  0.34835  Biso   1.000  O
  C127     1.0000 0.19209  0.91173  0.30288  Biso   1.000  C
  C128     1.0000 0.20863  0.95877  0.28494  Biso   1.000  C
  C129     1.0000 0.21173  0.99051  0.32013  Biso   1.000  C
  H99      1.0000 0.20303  0.98237  0.35527  Biso   1.000  H
  C130     1.0000 0.22757  0.03417  0.30416  Biso   1.000  C
  H100     1.0000 0.23003  0.05577  0.32877  Biso   1.000  H
  C131     1.0000 0.23996  0.04689  0.25254  Biso   1.000  C
  C132     1.0000 0.23685  0.01471  0.21851  Biso   1.000  C
  H101     1.0000 0.24533  0.02247  0.18327  Biso   1.000  H
  C133     1.0000 0.22146  0.97105  0.23466  Biso   1.000  C
  H102     1.0000 0.21983  0.94957  0.21047  Biso   1.000  H
  C134     1.0000 0.25832  0.09394  0.23508  Biso   1.000  C
  C135     1.0000 0.29444  0.11282  0.20246  Biso   1.000  C
  H103     1.0000 0.30693  0.09527  0.19127  Biso   1.000  H
  H104     1.0000 0.15853  0.05597  0.23547  Biso   1.000  H
  H105     1.0000 0.13073  0.08847  0.32077  Biso   1.000  H
  O31      1.0000 0.35851  0.13935  0.60276  Biso   1.000  O
  O32      1.0000 0.39061  0.15497  0.68168  Biso   1.000  O
  C136     1.0000 0.38630  0.14124  0.63621  Biso   1.000  C
  C137     1.0000 0.41680  0.12470  0.61827  Biso   1.000  C
  C138     1.0000 0.44544  0.12160  0.65346  Biso   1.000  C
  H106     1.0000 0.44600  0.13030  0.68860  Biso   1.000  H
  C139     1.0000 0.47326  0.10576  0.63749  Biso   1.000  C
  H107     1.0000 0.49240  0.10330  0.66210  Biso   1.000  H
  C140     1.0000 0.47359  0.09337  0.58587  Biso   1.000  C
  C141     1.0000 0.44452  0.09648  0.55184  Biso   1.000  C
  H108     1.0000 0.44380  0.08800  0.51660  Biso   1.000  H
  C142     1.0000 0.41625  0.11187  0.56799  Biso   1.000  C
  H109     1.0000 0.39640  0.11350  0.54380  Biso   1.000  H
  C143     1.0000 0.50228  0.07501  0.56841  Biso   1.000  C
  C144     1.0000 0.48504  0.03889  0.53579  Biso   1.000  C
  H110     1.0000 0.45500  0.02640  0.52460  Biso   1.000  H
  H111     1.0000 0.56410  0.17480  0.56880  Biso   1.000  H
  H112     1.0000 0.62440  0.20260  0.65410  Biso   1.000  H
  O33      1.0000 0.02518  0.47268  0.93609  Biso   1.000  O
  O34      1.0000 0.05728  0.48830  0.01501  Biso   1.000  O
  C145     1.0000 0.05297  0.47457  0.96954  Biso   1.000  C
  C146     1.0000 0.08347  0.45803  0.95160  Biso   1.000  C
  C147     1.0000 0.11211  0.45493  0.98679  Biso   1.000  C
  H113     1.0000 0.11267  0.46363  0.02193  Biso   1.000  H
  C148     1.0000 0.13993  0.43909  0.97082  Biso   1.000  C
  H114     1.0000 0.15907  0.43663  0.99543  Biso   1.000  H
  C149     1.0000 0.14026  0.42670  0.91920  Biso   1.000  C
  C150     1.0000 0.11119  0.42981  0.88517  Biso   1.000  C
  H115     1.0000 0.11047  0.42133  0.84993  Biso   1.000  H
  C151     1.0000 0.08292  0.44520  0.90132  Biso   1.000  C
  H116     1.0000 0.06307  0.44683  0.87713  Biso   1.000  H
  C152     1.0000 0.16895  0.40834  0.90174  Biso   1.000  C
  C153     1.0000 0.15171  0.37222  0.86912  Biso   1.000  C
  H117     1.0000 0.12167  0.35973  0.85793  Biso   1.000  H
  H118     1.0000 0.23077  0.50813  0.90213  Biso   1.000  H
  H119     1.0000 0.29107  0.53593  0.98743  Biso   1.000  H
  O35      1.0000 0.69184  0.80602  0.26943  Biso   1.000  O
  O36      1.0000 0.72394  0.82164  0.34835  Biso   1.000  O
  C154     1.0000 0.71963  0.80791  0.30288  Biso   1.000  C
  C155     1.0000 0.75013  0.79137  0.28494  Biso   1.000  C
  C156     1.0000 0.77877  0.78827  0.32013  Biso   1.000  C
  H120     1.0000 0.77933  0.79697  0.35527  Biso   1.000  H
  C157     1.0000 0.80659  0.77243  0.30416  Biso   1.000  C
  H121     1.0000 0.82573  0.76997  0.32877  Biso   1.000  H
  C158     1.0000 0.80692  0.76004  0.25254  Biso   1.000  C
  C159     1.0000 0.77785  0.76315  0.21851  Biso   1.000  C
  H122     1.0000 0.77713  0.75467  0.18327  Biso   1.000  H
  C160     1.0000 0.74958  0.77854  0.23466  Biso   1.000  C
  H123     1.0000 0.72973  0.78017  0.21047  Biso   1.000  H
  C161     1.0000 0.83561  0.74168  0.23508  Biso   1.000  C
  C162     1.0000 0.81837  0.70556  0.20246  Biso   1.000  C
  H124     1.0000 0.78833  0.69307  0.19127  Biso   1.000  H
  H125     1.0000 0.89743  0.84147  0.23547  Biso   1.000  H
  H126     1.0000 0.95773  0.86927  0.32077  Biso   1.000  H
  O37      1.0000 0.35851  0.21916  0.60276  Biso   1.000  O
  O38      1.0000 0.39061  0.23564  0.68168  Biso   1.000  O
  C163     1.0000 0.38630  0.24506  0.63621  Biso   1.000  C
  C164     1.0000 0.41680  0.29210  0.61827  Biso   1.000  C
  C165     1.0000 0.44544  0.32384  0.65346  Biso   1.000  C
  H127     1.0000 0.44600  0.31570  0.68860  Biso   1.000  H
  C166     1.0000 0.47326  0.36750  0.63749  Biso   1.000  C
  H128     1.0000 0.49240  0.38910  0.66210  Biso   1.000  H
  C167     1.0000 0.47359  0.38022  0.58587  Biso   1.000  C
  C168     1.0000 0.44452  0.34804  0.55184  Biso   1.000  C
  H129     1.0000 0.44380  0.35580  0.51660  Biso   1.000  H
  C169     1.0000 0.41625  0.30438  0.56799  Biso   1.000  C
  H130     1.0000 0.39640  0.28290  0.54380  Biso   1.000  H
  C170     1.0000 0.50228  0.42727  0.56841  Biso   1.000  C
  C171     1.0000 0.48504  0.44615  0.53579  Biso   1.000  C
  H131     1.0000 0.45500  0.42860  0.52460  Biso   1.000  H
  H132     1.0000 0.56410  0.38930  0.56880  Biso   1.000  H
  H133     1.0000 0.62440  0.42180  0.65410  Biso   1.000  H
  O39      1.0000 0.02518  0.55249  0.93609  Biso   1.000  O
  O40      1.0000 0.05728  0.56897  0.01501  Biso   1.000  O
  C172     1.0000 0.05297  0.57839  0.96954  Biso   1.000  C
  C173     1.0000 0.08347  0.62543  0.95160  Biso   1.000  C
  C174     1.0000 0.11211  0.65717  0.98679  Biso   1.000  C
  H134     1.0000 0.11267  0.64903  0.02193  Biso   1.000  H
  C175     1.0000 0.13993  0.70083  0.97082  Biso   1.000  C
  H135     1.0000 0.15907  0.72243  0.99543  Biso   1.000  H
  C176     1.0000 0.14026  0.71355  0.91920  Biso   1.000  C
  C177     1.0000 0.11119  0.68137  0.88517  Biso   1.000  C
  H136     1.0000 0.11047  0.68913  0.84993  Biso   1.000  H
  C178     1.0000 0.08292  0.63771  0.90132  Biso   1.000  C
  H137     1.0000 0.06307  0.61623  0.87713  Biso   1.000  H
  C179     1.0000 0.16895  0.76060  0.90174  Biso   1.000  C
  C180     1.0000 0.15171  0.77948  0.86912  Biso   1.000  C
  H138     1.0000 0.12167  0.76193  0.85793  Biso   1.000  H
  H139     1.0000 0.23077  0.72263  0.90213  Biso   1.000  H
  H140     1.0000 0.29107  0.75513  0.98743  Biso   1.000  H
  O41      1.0000 0.69184  0.88583  0.26943  Biso   1.000  O
  O42      1.0000 0.72394  0.90231  0.34835  Biso   1.000  O
  C181     1.0000 0.71963  0.91173  0.30288  Biso   1.000  C
  C182     1.0000 0.75013  0.95877  0.28494  Biso   1.000  C
  C183     1.0000 0.77877  0.99051  0.32013  Biso   1.000  C
  H141     1.0000 0.77933  0.98237  0.35527  Biso   1.000  H
  C184     1.0000 0.80659  0.03417  0.30416  Biso   1.000  C
  H142     1.0000 0.82573  0.05577  0.32877  Biso   1.000  H
  C185     1.0000 0.80692  0.04689  0.25254  Biso   1.000  C
  C186     1.0000 0.77785  0.01471  0.21851  Biso   1.000  C
  H143     1.0000 0.77713  0.02247  0.18327  Biso   1.000  H
  C187     1.0000 0.74958  0.97105  0.23466  Biso   1.000  C
  H144     1.0000 0.72973  0.94957  0.21047  Biso   1.000  H
  C188     1.0000 0.83561  0.09394  0.23508  Biso   1.000  C
  C189     1.0000 0.81837  0.11282  0.20246  Biso   1.000  C
  H145     1.0000 0.78833  0.09527  0.19127  Biso   1.000  H
  H146     1.0000 0.89743  0.05597  0.23547  Biso   1.000  H
  H147     1.0000 0.95773  0.08847  0.32077  Biso   1.000  H
  O43      1.0000 0.78084  0.13935  0.60276  Biso   1.000  O
  O44      1.0000 0.76436  0.15497  0.68168  Biso   1.000  O
  C190     1.0000 0.75494  0.14124  0.63621  Biso   1.000  C
  C191     1.0000 0.70790  0.12470  0.61827  Biso   1.000  C
  C192     1.0000 0.67616  0.12160  0.65346  Biso   1.000  C
  H148     1.0000 0.68430  0.13030  0.68860  Biso   1.000  H
  C193     1.0000 0.63250  0.10576  0.63749  Biso   1.000  C
  H149     1.0000 0.61090  0.10330  0.66210  Biso   1.000  H
  C194     1.0000 0.61978  0.09337  0.58587  Biso   1.000  C
  C195     1.0000 0.65196  0.09648  0.55184  Biso   1.000  C
  H150     1.0000 0.64420  0.08800  0.51660  Biso   1.000  H
  C196     1.0000 0.69562  0.11187  0.56799  Biso   1.000  C
  H151     1.0000 0.71710  0.11350  0.54380  Biso   1.000  H
  C197     1.0000 0.57273  0.07501  0.56841  Biso   1.000  C
  C198     1.0000 0.55385  0.03889  0.53579  Biso   1.000  C
  H152     1.0000 0.57140  0.02640  0.52460  Biso   1.000  H
  H153     1.0000 0.61070  0.17480  0.56880  Biso   1.000  H
  H154     1.0000 0.57820  0.20260  0.65410  Biso   1.000  H
  O45      1.0000 0.44751  0.47268  0.93609  Biso   1.000  O
  O46      1.0000 0.43103  0.48830  0.01501  Biso   1.000  O
  C199     1.0000 0.42161  0.47457  0.96954  Biso   1.000  C
  C200     1.0000 0.37457  0.45803  0.95160  Biso   1.000  C
  C201     1.0000 0.34283  0.45493  0.98679  Biso   1.000  C
  H155     1.0000 0.35097  0.46363  0.02193  Biso   1.000  H
  C202     1.0000 0.29917  0.43909  0.97082  Biso   1.000  C
  H156     1.0000 0.27757  0.43663  0.99543  Biso   1.000  H
  C203     1.0000 0.28645  0.42670  0.91920  Biso   1.000  C
  C204     1.0000 0.31863  0.42981  0.88517  Biso   1.000  C
  H157     1.0000 0.31087  0.42133  0.84993  Biso   1.000  H
  C205     1.0000 0.36229  0.44520  0.90132  Biso   1.000  C
  H158     1.0000 0.38377  0.44683  0.87713  Biso   1.000  H
  C206     1.0000 0.23940  0.40834  0.90174  Biso   1.000  C
  C207     1.0000 0.22052  0.37222  0.86912  Biso   1.000  C
  H159     1.0000 0.23807  0.35973  0.85793  Biso   1.000  H
  H160     1.0000 0.27737  0.50813  0.90213  Biso   1.000  H
  H161     1.0000 0.24487  0.53593  0.98743  Biso   1.000  H
  O47      1.0000 0.11417  0.80602  0.26943  Biso   1.000  O
  O48      1.0000 0.09769  0.82164  0.34835  Biso   1.000  O
  C208     1.0000 0.08827  0.80791  0.30288  Biso   1.000  C
  C209     1.0000 0.04123  0.79137  0.28494  Biso   1.000  C
  C210     1.0000 0.00949  0.78827  0.32013  Biso   1.000  C
  H162     1.0000 0.01763  0.79697  0.35527  Biso   1.000  H
  C211     1.0000 0.96583  0.77243  0.30416  Biso   1.000  C
  H163     1.0000 0.94423  0.76997  0.32877  Biso   1.000  H
  C212     1.0000 0.95311  0.76004  0.25254  Biso   1.000  C
  C213     1.0000 0.98529  0.76315  0.21851  Biso   1.000  C
  H164     1.0000 0.97753  0.75467  0.18327  Biso   1.000  H
  C214     1.0000 0.02895  0.77854  0.23466  Biso   1.000  C
  H165     1.0000 0.05043  0.78017  0.21047  Biso   1.000  H
  C215     1.0000 0.90606  0.74168  0.23508  Biso   1.000  C
  C216     1.0000 0.88718  0.70556  0.20246  Biso   1.000  C
  H166     1.0000 0.90473  0.69307  0.19127  Biso   1.000  H
  H167     1.0000 0.94403  0.84147  0.23547  Biso   1.000  H
  H168     1.0000 0.91153  0.86927  0.32077  Biso   1.000  H
  O49      1.0000 0.86065  0.64149  0.60276  Biso   1.000  O
  O50      1.0000 0.84503  0.60939  0.68168  Biso   1.000  O
  C217     1.0000 0.85876  0.61370  0.63621  Biso   1.000  C
  C218     1.0000 0.87530  0.58320  0.61827  Biso   1.000  C
  C219     1.0000 0.87840  0.55456  0.65346  Biso   1.000  C
  H169     1.0000 0.86970  0.55400  0.68860  Biso   1.000  H
  C220     1.0000 0.89424  0.52674  0.63749  Biso   1.000  C
  H170     1.0000 0.89670  0.50760  0.66210  Biso   1.000  H
  C221     1.0000 0.90663  0.52641  0.58587  Biso   1.000  C
  C222     1.0000 0.90352  0.55548  0.55184  Biso   1.000  C
  H171     1.0000 0.91200  0.55620  0.51660  Biso   1.000  H
  C223     1.0000 0.88813  0.58375  0.56799  Biso   1.000  C
  H172     1.0000 0.88650  0.60360  0.54380  Biso   1.000  H
  C224     1.0000 0.92499  0.49772  0.56841  Biso   1.000  C
  C225     1.0000 0.96111  0.51496  0.53579  Biso   1.000  C
  H173     1.0000 0.97360  0.54500  0.52460  Biso   1.000  H
  H174     1.0000 0.82520  0.43590  0.56880  Biso   1.000  H
  H175     1.0000 0.79740  0.37560  0.65410  Biso   1.000  H
  O51      1.0000 0.52732  0.97482  0.93609  Biso   1.000  O
  O52      1.0000 0.51170  0.94272  0.01501  Biso   1.000  O
  C226     1.0000 0.52543  0.94703  0.96954  Biso   1.000  C
  C227     1.0000 0.54197  0.91653  0.95160  Biso   1.000  C
  C228     1.0000 0.54507  0.88789  0.98679  Biso   1.000  C
  H176     1.0000 0.53637  0.88733  0.02193  Biso   1.000  H
  C229     1.0000 0.56091  0.86007  0.97082  Biso   1.000  C
  H177     1.0000 0.56337  0.84093  0.99543  Biso   1.000  H
  C230     1.0000 0.57330  0.85974  0.91920  Biso   1.000  C
  C231     1.0000 0.57019  0.88881  0.88517  Biso   1.000  C
  H178     1.0000 0.57867  0.88953  0.84993  Biso   1.000  H
  C232     1.0000 0.55480  0.91708  0.90132  Biso   1.000  C
  H179     1.0000 0.55317  0.93693  0.87713  Biso   1.000  H
  C233     1.0000 0.59166  0.83105  0.90174  Biso   1.000  C
  C234     1.0000 0.62778  0.84829  0.86912  Biso   1.000  C
  H180     1.0000 0.64027  0.87833  0.85793  Biso   1.000  H
  H181     1.0000 0.49187  0.76923  0.90213  Biso   1.000  H
  H182     1.0000 0.46407  0.70893  0.98743  Biso   1.000  H
  O53      1.0000 0.19398  0.30816  0.26943  Biso   1.000  O
  O54      1.0000 0.17836  0.27606  0.34835  Biso   1.000  O
  C235     1.0000 0.19209  0.28037  0.30288  Biso   1.000  C
  C236     1.0000 0.20863  0.24987  0.28494  Biso   1.000  C
  C237     1.0000 0.21173  0.22123  0.32013  Biso   1.000  C
  H183     1.0000 0.20303  0.22067  0.35527  Biso   1.000  H
  C238     1.0000 0.22757  0.19341  0.30416  Biso   1.000  C
  H184     1.0000 0.23003  0.17427  0.32877  Biso   1.000  H
  C239     1.0000 0.23996  0.19308  0.25254  Biso   1.000  C
  C240     1.0000 0.23685  0.22215  0.21851  Biso   1.000  C
  H185     1.0000 0.24533  0.22287  0.18327  Biso   1.000  H
  C241     1.0000 0.22146  0.25042  0.23466  Biso   1.000  C
  H186     1.0000 0.21983  0.27027  0.21047  Biso   1.000  H
  C242     1.0000 0.25832  0.16439  0.23508  Biso   1.000  C
  C243     1.0000 0.29444  0.18163  0.20246  Biso   1.000  C
  H187     1.0000 0.30693  0.21167  0.19127  Biso   1.000  H
  H188     1.0000 0.15853  0.10257  0.23547  Biso   1.000  H
  H189     1.0000 0.13073  0.04227  0.32077  Biso   1.000  H
  O55      1.0000 0.21916  0.35851  0.39724  Biso   1.000  O
  O56      1.0000 0.23564  0.39061  0.31832  Biso   1.000  O
  C244     1.0000 0.24506  0.38630  0.36379  Biso   1.000  C
  C245     1.0000 0.29210  0.41680  0.38173  Biso   1.000  C
  C246     1.0000 0.32384  0.44544  0.34654  Biso   1.000  C
  H190     1.0000 0.31570  0.44600  0.31140  Biso   1.000  H
  C247     1.0000 0.36750  0.47326  0.36251  Biso   1.000  C
  H191     1.0000 0.38910  0.49240  0.33790  Biso   1.000  H
  C248     1.0000 0.38022  0.47359  0.41413  Biso   1.000  C
  C249     1.0000 0.34804  0.44452  0.44816  Biso   1.000  C
  H192     1.0000 0.35580  0.44380  0.48340  Biso   1.000  H
  C250     1.0000 0.30438  0.41625  0.43201  Biso   1.000  C
  H193     1.0000 0.28290  0.39640  0.45620  Biso   1.000  H
  C251     1.0000 0.42727  0.50228  0.43159  Biso   1.000  C
  C252     1.0000 0.44615  0.48504  0.46421  Biso   1.000  C
  H194     1.0000 0.42860  0.45500  0.47540  Biso   1.000  H
  H195     1.0000 0.38930  0.56410  0.43120  Biso   1.000  H
  H196     1.0000 0.42180  0.62440  0.34590  Biso   1.000  H
  O57      1.0000 0.88583  0.69184  0.73057  Biso   1.000  O
  O58      1.0000 0.90231  0.72394  0.65165  Biso   1.000  O
  C253     1.0000 0.91173  0.71963  0.69712  Biso   1.000  C
  C254     1.0000 0.95877  0.75013  0.71506  Biso   1.000  C
  C255     1.0000 0.99051  0.77877  0.67987  Biso   1.000  C
  H197     1.0000 0.98237  0.77933  0.64473  Biso   1.000  H
  C256     1.0000 0.03417  0.80659  0.69584  Biso   1.000  C
  H198     1.0000 0.05577  0.82573  0.67123  Biso   1.000  H
  C257     1.0000 0.04689  0.80692  0.74746  Biso   1.000  C
  C258     1.0000 0.01471  0.77785  0.78149  Biso   1.000  C
  H199     1.0000 0.02247  0.77713  0.81673  Biso   1.000  H
  C259     1.0000 0.97105  0.74958  0.76534  Biso   1.000  C
  H200     1.0000 0.94957  0.72973  0.78953  Biso   1.000  H
  C260     1.0000 0.09394  0.83561  0.76492  Biso   1.000  C
  C261     1.0000 0.11282  0.81837  0.79754  Biso   1.000  C
  H201     1.0000 0.09527  0.78833  0.80873  Biso   1.000  H
  H202     1.0000 0.05597  0.89743  0.76453  Biso   1.000  H
  H203     1.0000 0.08847  0.95773  0.67923  Biso   1.000  H
  O59      1.0000 0.55249  0.02518  0.06391  Biso   1.000  O
  O60      1.0000 0.56897  0.05728  0.98499  Biso   1.000  O
  C262     1.0000 0.57839  0.05297  0.03046  Biso   1.000  C
  C263     1.0000 0.62543  0.08347  0.04840  Biso   1.000  C
  C264     1.0000 0.65717  0.11211  0.01321  Biso   1.000  C
  H204     1.0000 0.64903  0.11267  0.97807  Biso   1.000  H
  C265     1.0000 0.70083  0.13993  0.02918  Biso   1.000  C
  H205     1.0000 0.72243  0.15907  0.00457  Biso   1.000  H
  C266     1.0000 0.71355  0.14026  0.08080  Biso   1.000  C
  C267     1.0000 0.68137  0.11119  0.11483  Biso   1.000  C
  H206     1.0000 0.68913  0.11047  0.15007  Biso   1.000  H
  C268     1.0000 0.63771  0.08292  0.09868  Biso   1.000  C
  H207     1.0000 0.61623  0.06307  0.12287  Biso   1.000  H
  C269     1.0000 0.76060  0.16895  0.09826  Biso   1.000  C
  C270     1.0000 0.77948  0.15171  0.13088  Biso   1.000  C
  H208     1.0000 0.76193  0.12167  0.14207  Biso   1.000  H
  H209     1.0000 0.72263  0.23077  0.09787  Biso   1.000  H
  H210     1.0000 0.75513  0.29107  0.01257  Biso   1.000  H
  O61      1.0000 0.13935  0.78084  0.39724  Biso   1.000  O
  O62      1.0000 0.15497  0.76436  0.31832  Biso   1.000  O
  C271     1.0000 0.14124  0.75494  0.36379  Biso   1.000  C
  C272     1.0000 0.12470  0.70790  0.38173  Biso   1.000  C
  C273     1.0000 0.12160  0.67616  0.34654  Biso   1.000  C
  H211     1.0000 0.13030  0.68430  0.31140  Biso   1.000  H
  C274     1.0000 0.10576  0.63250  0.36251  Biso   1.000  C
  H212     1.0000 0.10330  0.61090  0.33790  Biso   1.000  H
  C275     1.0000 0.09337  0.61978  0.41413  Biso   1.000  C
  C276     1.0000 0.09648  0.65196  0.44816  Biso   1.000  C
  H213     1.0000 0.08800  0.64420  0.48340  Biso   1.000  H
  C277     1.0000 0.11187  0.69562  0.43201  Biso   1.000  C
  H214     1.0000 0.11350  0.71710  0.45620  Biso   1.000  H
  C278     1.0000 0.07501  0.57273  0.43159  Biso   1.000  C
  C279     1.0000 0.03889  0.55385  0.46421  Biso   1.000  C
  H215     1.0000 0.02640  0.57140  0.47540  Biso   1.000  H
  H216     1.0000 0.17480  0.61070  0.43120  Biso   1.000  H
  H217     1.0000 0.20260  0.57820  0.34590  Biso   1.000  H
  O63      1.0000 0.80602  0.11417  0.73057  Biso   1.000  O
  O64      1.0000 0.82164  0.09769  0.65165  Biso   1.000  O
  C280     1.0000 0.80791  0.08827  0.69712  Biso   1.000  C
  C281     1.0000 0.79137  0.04123  0.71506  Biso   1.000  C
  C282     1.0000 0.78827  0.00949  0.67987  Biso   1.000  C
  H218     1.0000 0.79697  0.01763  0.64473  Biso   1.000  H
  C283     1.0000 0.77243  0.96583  0.69584  Biso   1.000  C
  H219     1.0000 0.76997  0.94423  0.67123  Biso   1.000  H
  C284     1.0000 0.76004  0.95311  0.74746  Biso   1.000  C
  C285     1.0000 0.76315  0.98529  0.78149  Biso   1.000  C
  H220     1.0000 0.75467  0.97753  0.81673  Biso   1.000  H
  C286     1.0000 0.77854  0.02895  0.76534  Biso   1.000  C
  H221     1.0000 0.78017  0.05043  0.78953  Biso   1.000  H
  C287     1.0000 0.74168  0.90606  0.76492  Biso   1.000  C
  C288     1.0000 0.70556  0.88718  0.79754  Biso   1.000  C
  H222     1.0000 0.69307  0.90473  0.80873  Biso   1.000  H
  H223     1.0000 0.84147  0.94403  0.76453  Biso   1.000  H
  H224     1.0000 0.86927  0.91153  0.67923  Biso   1.000  H
  O65      1.0000 0.47268  0.44751  0.06391  Biso   1.000  O
  O66      1.0000 0.48830  0.43103  0.98499  Biso   1.000  O
  C289     1.0000 0.47457  0.42161  0.03046  Biso   1.000  C
  C290     1.0000 0.45803  0.37457  0.04840  Biso   1.000  C
  C291     1.0000 0.45493  0.34283  0.01321  Biso   1.000  C
  H225     1.0000 0.46363  0.35097  0.97807  Biso   1.000  H
  C292     1.0000 0.43909  0.29917  0.02918  Biso   1.000  C
  H226     1.0000 0.43663  0.27757  0.00457  Biso   1.000  H
  C293     1.0000 0.42670  0.28645  0.08080  Biso   1.000  C
  C294     1.0000 0.42981  0.31863  0.11483  Biso   1.000  C
  H227     1.0000 0.42133  0.31087  0.15007  Biso   1.000  H
  C295     1.0000 0.44520  0.36229  0.09868  Biso   1.000  C
  H228     1.0000 0.44683  0.38377  0.12287  Biso   1.000  H
  C296     1.0000 0.40834  0.23940  0.09826  Biso   1.000  C
  C297     1.0000 0.37222  0.22052  0.13088  Biso   1.000  C
  H229     1.0000 0.35973  0.23807  0.14207  Biso   1.000  H
  H230     1.0000 0.50813  0.27737  0.09787  Biso   1.000  H
  H231     1.0000 0.53593  0.24487  0.01257  Biso   1.000  H
  O67      1.0000 0.64149  0.86065  0.39724  Biso   1.000  O
  O68      1.0000 0.60939  0.84503  0.31832  Biso   1.000  O
  C298     1.0000 0.61370  0.85876  0.36379  Biso   1.000  C
  C299     1.0000 0.58320  0.87530  0.38173  Biso   1.000  C
  C300     1.0000 0.55456  0.87840  0.34654  Biso   1.000  C
  H232     1.0000 0.55400  0.86970  0.31140  Biso   1.000  H
  C301     1.0000 0.52674  0.89424  0.36251  Biso   1.000  C
  H233     1.0000 0.50760  0.89670  0.33790  Biso   1.000  H
  C302     1.0000 0.52641  0.90663  0.41413  Biso   1.000  C
  C303     1.0000 0.55548  0.90352  0.44816  Biso   1.000  C
  H234     1.0000 0.55620  0.91200  0.48340  Biso   1.000  H
  C304     1.0000 0.58375  0.88813  0.43201  Biso   1.000  C
  H235     1.0000 0.60360  0.88650  0.45620  Biso   1.000  H
  C305     1.0000 0.49772  0.92499  0.43159  Biso   1.000  C
  C306     1.0000 0.51496  0.96111  0.46421  Biso   1.000  C
  H236     1.0000 0.54500  0.97360  0.47540  Biso   1.000  H
  H237     1.0000 0.43590  0.82520  0.43120  Biso   1.000  H
  H238     1.0000 0.37560  0.79740  0.34590  Biso   1.000  H
  O69      1.0000 0.30816  0.19398  0.73057  Biso   1.000  O
  O70      1.0000 0.27606  0.17836  0.65165  Biso   1.000  O
  C307     1.0000 0.28037  0.19209  0.69712  Biso   1.000  C
  C308     1.0000 0.24987  0.20863  0.71506  Biso   1.000  C
  C309     1.0000 0.22123  0.21173  0.67987  Biso   1.000  C
  H239     1.0000 0.22067  0.20303  0.64473  Biso   1.000  H
  C310     1.0000 0.19341  0.22757  0.69584  Biso   1.000  C
  H240     1.0000 0.17427  0.23003  0.67123  Biso   1.000  H
  C311     1.0000 0.19308  0.23996  0.74746  Biso   1.000  C
  C312     1.0000 0.22215  0.23685  0.78149  Biso   1.000  C
  H241     1.0000 0.22287  0.24533  0.81673  Biso   1.000  H
  C313     1.0000 0.25042  0.22146  0.76534  Biso   1.000  C
  H242     1.0000 0.27027  0.21983  0.78953  Biso   1.000  H
  C314     1.0000 0.16439  0.25832  0.76492  Biso   1.000  C
  C315     1.0000 0.18163  0.29444  0.79754  Biso   1.000  C
  H243     1.0000 0.21167  0.30693  0.80873  Biso   1.000  H
  H244     1.0000 0.10257  0.15853  0.76453  Biso   1.000  H
  H245     1.0000 0.04227  0.13073  0.67923  Biso   1.000  H
  O71      1.0000 0.97482  0.52732  0.06391  Biso   1.000  O
  O72      1.0000 0.94272  0.51170  0.98499  Biso   1.000  O
  C316     1.0000 0.94703  0.52543  0.03046  Biso   1.000  C
  C317     1.0000 0.91653  0.54197  0.04840  Biso   1.000  C
  C318     1.0000 0.88789  0.54507  0.01321  Biso   1.000  C
  H246     1.0000 0.88733  0.53637  0.97807  Biso   1.000  H
  C319     1.0000 0.86007  0.56091  0.02918  Biso   1.000  C
  H247     1.0000 0.84093  0.56337  0.00457  Biso   1.000  H
  C320     1.0000 0.85974  0.57330  0.08080  Biso   1.000  C
  C321     1.0000 0.88881  0.57019  0.11483  Biso   1.000  C
  H248     1.0000 0.88953  0.57867  0.15007  Biso   1.000  H
  C322     1.0000 0.91708  0.55480  0.09868  Biso   1.000  C
  H249     1.0000 0.93693  0.55317  0.12287  Biso   1.000  H
  C323     1.0000 0.83105  0.59166  0.09826  Biso   1.000  C
  C324     1.0000 0.84829  0.62778  0.13088  Biso   1.000  C
  H250     1.0000 0.87833  0.64027  0.14207  Biso   1.000  H
  H251     1.0000 0.76923  0.49187  0.09787  Biso   1.000  H
  H252     1.0000 0.70893  0.46407  0.01257  Biso   1.000  H
  Cu1      1.0000 0.64736  0.82368  0.28750  Biso   1.000  Cu
  Cu2      1.0000 0.31403  0.15701  0.62083  Biso   1.000  Cu
  Cu3      1.0000 0.98069  0.49035  0.95417  Biso   1.000  Cu
  Cu4      1.0000 0.17632  0.82368  0.28750  Biso   1.000  Cu
  Cu5      1.0000 0.84299  0.15701  0.62083  Biso   1.000  Cu
  Cu6      1.0000 0.50965  0.49035  0.95417  Biso   1.000  Cu
  Cu7      1.0000 0.17632  0.35264  0.28750  Biso   1.000  Cu
  Cu8      1.0000 0.84299  0.68597  0.62083  Biso   1.000  Cu
  Cu9      1.0000 0.50965  0.01931  0.95417  Biso   1.000  Cu
  Cu10     1.0000 0.82368  0.64736  0.71250  Biso   1.000  Cu
  Cu11     1.0000 0.49035  0.98069  0.04583  Biso   1.000  Cu
  Cu12     1.0000 0.15701  0.31403  0.37917  Biso   1.000  Cu
  Cu13     1.0000 0.82368  0.17632  0.71250  Biso   1.000  Cu
  Cu14     1.0000 0.49035  0.50965  0.04583  Biso   1.000  Cu
  Cu15     1.0000 0.15701  0.84299  0.37917  Biso   1.000  Cu
  Cu16     1.0000 0.35264  0.17632  0.71250  Biso   1.000  Cu
  Cu17     1.0000 0.01931  0.50965  0.04583  Biso   1.000  Cu
  Cu18     1.0000 0.68597  0.84299  0.37917  Biso   1.000  Cu
  O73      1.0000 0.43477  0.56523  0.38219  Biso   1.000  O
  C325     1.0000 0.49021  0.50979  0.48172  Biso   1.000  C
  C326     1.0000 0.45304  0.54696  0.41576  Biso   1.000  C
  C327     1.0000 0.41402  0.58598  0.40910  Biso   1.000  C
  C328     1.0000 0.39692  0.60308  0.36750  Biso   1.000  C
  H253     1.0000 0.38200  0.61800  0.38320  Biso   1.000  H
  O74      1.0000 0.10144  0.89856  0.71552  Biso   1.000  O
  C329     1.0000 0.15688  0.84312  0.81505  Biso   1.000  C
  C330     1.0000 0.11971  0.88029  0.74909  Biso   1.000  C
  C331     1.0000 0.08069  0.91931  0.74243  Biso   1.000  C
  C332     1.0000 0.06359  0.93641  0.70083  Biso   1.000  C
  H254     1.0000 0.04867  0.95133  0.71653  Biso   1.000  H
  O75      1.0000 0.76810  0.23190  0.04886  Biso   1.000  O
  C333     1.0000 0.82354  0.17646  0.14839  Biso   1.000  C
  C334     1.0000 0.78637  0.21363  0.08243  Biso   1.000  C
  C335     1.0000 0.74735  0.25265  0.07577  Biso   1.000  C
  C336     1.0000 0.73025  0.26975  0.03417  Biso   1.000  C
  H255     1.0000 0.71533  0.28467  0.04987  Biso   1.000  H
  O76      1.0000 0.43477  0.86954  0.38219  Biso   1.000  O
  C337     1.0000 0.49021  0.98042  0.48172  Biso   1.000  C
  C338     1.0000 0.45304  0.90608  0.41576  Biso   1.000  C
  C339     1.0000 0.41402  0.82804  0.40910  Biso   1.000  C
  C340     1.0000 0.39692  0.79384  0.36750  Biso   1.000  C
  H256     1.0000 0.38200  0.76400  0.38320  Biso   1.000  H
  O77      1.0000 0.10144  0.20287  0.71552  Biso   1.000  O
  C341     1.0000 0.15688  0.31375  0.81505  Biso   1.000  C
  C342     1.0000 0.11971  0.23941  0.74909  Biso   1.000  C
  C343     1.0000 0.08069  0.16137  0.74243  Biso   1.000  C
  C344     1.0000 0.06359  0.12717  0.70083  Biso   1.000  C
  H257     1.0000 0.04867  0.09733  0.71653  Biso   1.000  H
  O78      1.0000 0.76810  0.53621  0.04886  Biso   1.000  O
  C345     1.0000 0.82354  0.64709  0.14839  Biso   1.000  C
  C346     1.0000 0.78637  0.57275  0.08243  Biso   1.000  C
  C347     1.0000 0.74735  0.49471  0.07577  Biso   1.000  C
  C348     1.0000 0.73025  0.46051  0.03417  Biso   1.000  C
  H258     1.0000 0.71533  0.43067  0.04987  Biso   1.000  H
  O79      1.0000 0.13046  0.56523  0.38219  Biso   1.000  O
  C349     1.0000 0.01958  0.50979  0.48172  Biso   1.000  C
  C350     1.0000 0.09392  0.54696  0.41576  Biso   1.000  C
  C351     1.0000 0.17196  0.58598  0.40910  Biso   1.000  C
  C352     1.0000 0.20616  0.60308  0.36750  Biso   1.000  C
  H259     1.0000 0.23600  0.61800  0.38320  Biso   1.000  H
  O80      1.0000 0.79713  0.89856  0.71552  Biso   1.000  O
  C353     1.0000 0.68625  0.84312  0.81505  Biso   1.000  C
  C354     1.0000 0.76059  0.88029  0.74909  Biso   1.000  C
  C355     1.0000 0.83863  0.91931  0.74243  Biso   1.000  C
  C356     1.0000 0.87283  0.93641  0.70083  Biso   1.000  C
  H260     1.0000 0.90267  0.95133  0.71653  Biso   1.000  H
  O81      1.0000 0.46379  0.23190  0.04886  Biso   1.000  O
  C357     1.0000 0.35291  0.17646  0.14839  Biso   1.000  C
  C358     1.0000 0.42725  0.21363  0.08243  Biso   1.000  C
  C359     1.0000 0.50529  0.25265  0.07577  Biso   1.000  C
  C360     1.0000 0.53949  0.26975  0.03417  Biso   1.000  C
  H261     1.0000 0.56933  0.28467  0.04987  Biso   1.000  H
  O82      1.0000 0.56523  0.43477  0.61781  Biso   1.000  O
  C361     1.0000 0.50979  0.49021  0.51828  Biso   1.000  C
  C362     1.0000 0.54696  0.45304  0.58424  Biso   1.000  C
  C363     1.0000 0.58598  0.41402  0.59090  Biso   1.000  C
  C364     1.0000 0.60308  0.39692  0.63250  Biso   1.000  C
  H262     1.0000 0.61800  0.38200  0.61680  Biso   1.000  H
  O83      1.0000 0.23190  0.76810  0.95114  Biso   1.000  O
  C365     1.0000 0.17646  0.82354  0.85161  Biso   1.000  C
  C366     1.0000 0.21363  0.78637  0.91757  Biso   1.000  C
  C367     1.0000 0.25265  0.74735  0.92423  Biso   1.000  C
  C368     1.0000 0.26975  0.73025  0.96583  Biso   1.000  C
  H263     1.0000 0.28467  0.71533  0.95013  Biso   1.000  H
  O84      1.0000 0.89856  0.10144  0.28448  Biso   1.000  O
  C369     1.0000 0.84312  0.15688  0.18495  Biso   1.000  C
  C370     1.0000 0.88029  0.11971  0.25091  Biso   1.000  C
  C371     1.0000 0.91931  0.08069  0.25757  Biso   1.000  C
  C372     1.0000 0.93641  0.06359  0.29917  Biso   1.000  C
  H264     1.0000 0.95133  0.04867  0.28347  Biso   1.000  H
  O85      1.0000 0.86954  0.43477  0.61781  Biso   1.000  O
  C373     1.0000 0.98042  0.49021  0.51828  Biso   1.000  C
  C374     1.0000 0.90608  0.45304  0.58424  Biso   1.000  C
  C375     1.0000 0.82804  0.41402  0.59090  Biso   1.000  C
  C376     1.0000 0.79384  0.39692  0.63250  Biso   1.000  C
  H265     1.0000 0.76400  0.38200  0.61680  Biso   1.000  H
  O86      1.0000 0.53621  0.76810  0.95114  Biso   1.000  O
  C377     1.0000 0.64709  0.82354  0.85161  Biso   1.000  C
  C378     1.0000 0.57275  0.78637  0.91757  Biso   1.000  C
  C379     1.0000 0.49471  0.74735  0.92423  Biso   1.000  C
  C380     1.0000 0.46051  0.73025  0.96583  Biso   1.000  C
  H266     1.0000 0.43067  0.71533  0.95013  Biso   1.000  H
  O87      1.0000 0.20287  0.10144  0.28448  Biso   1.000  O
  C381     1.0000 0.31375  0.15688  0.18495  Biso   1.000  C
  C382     1.0000 0.23941  0.11971  0.25091  Biso   1.000  C
  C383     1.0000 0.16137  0.08069  0.25757  Biso   1.000  C
  C384     1.0000 0.12717  0.06359  0.29917  Biso   1.000  C
  H267     1.0000 0.09733  0.04867  0.28347  Biso   1.000  H
  O88      1.0000 0.56523  0.13046  0.61781  Biso   1.000  O
  C385     1.0000 0.50979  0.01958  0.51828  Biso   1.000  C
  C386     1.0000 0.54696  0.09392  0.58424  Biso   1.000  C
  C387     1.0000 0.58598  0.17196  0.59090  Biso   1.000  C
  C388     1.0000 0.60308  0.20616  0.63250  Biso   1.000  C
  H268     1.0000 0.61800  0.23600  0.61680  Biso   1.000  H
  O89      1.0000 0.23190  0.46379  0.95114  Biso   1.000  O
  C389     1.0000 0.17646  0.35291  0.85161  Biso   1.000  C
  C390     1.0000 0.21363  0.42725  0.91757  Biso   1.000  C
  C391     1.0000 0.25265  0.50529  0.92423  Biso   1.000  C
  C392     1.0000 0.26975  0.53949  0.96583  Biso   1.000  C
  H269     1.0000 0.28467  0.56933  0.95013  Biso   1.000  H
  O90      1.0000 0.89856  0.79713  0.28448  Biso   1.000  O
  C393     1.0000 0.84312  0.68625  0.18495  Biso   1.000  C
  C394     1.0000 0.88029  0.76059  0.25091  Biso   1.000  C
  C395     1.0000 0.91931  0.83863  0.25757  Biso   1.000  C
  C396     1.0000 0.93641  0.87283  0.29917  Biso   1.000  C
  H270     1.0000 0.95133  0.90267  0.28347  Biso   1.000  H
