data_image0
_cell_length_a       35.2668
_cell_length_b       35.2668
_cell_length_c       21.1374
_cell_angle_alpha    90
_cell_angle_beta     90
_cell_angle_gamma    120

_symmetry_space_group_name_H-M    "P 1"
_symmetry_int_tables_number       1

loop_
  _symmetry_equiv_pos_as_xyz
  'x, y, z'

loop_
  _atom_site_label
  _atom_site_occupancy
  _atom_site_fract_x
  _atom_site_fract_y
  _atom_site_fract_z
  _atom_site_thermal_displace_type
  _atom_site_B_iso_or_equiv
  _atom_site_type_symbol
  O1       1.0000 0.36394  0.22110  0.59676  Biso   1.000  O
  O2       1.0000 0.38865  0.23353  0.69720  Biso   1.000  O
  C1       1.0000 0.38839  0.24507  0.64118  Biso   1.000  C
  C2       1.0000 0.41980  0.29191  0.62426  Biso   1.000  C
  C3       1.0000 0.44667  0.32142  0.67078  Biso   1.000  C
  H1       1.0000 0.44580  0.31190  0.71210  Biso   1.000  H
  C4       1.0000 0.47457  0.36497  0.65472  Biso   1.000  C
  H2       1.0000 0.49240  0.38440  0.68570  Biso   1.000  H
  C5       1.0000 0.47642  0.37993  0.59431  Biso   1.000  C
  C6       1.0000 0.44983  0.35012  0.54764  Biso   1.000  C
  H3       1.0000 0.45110  0.35940  0.50610  Biso   1.000  H
  C7       1.0000 0.42150  0.30655  0.56370  Biso   1.000  C
  H4       1.0000 0.40350  0.28710  0.53280  Biso   1.000  H
  C8       1.0000 0.50406  0.42690  0.57594  Biso   1.000  C
  C9       1.0000 0.48646  0.44645  0.53909  Biso   1.000  C
  H5       1.0000 0.45740  0.42980  0.52650  Biso   1.000  H
  H6       1.0000 0.60980  0.43470  0.57030  Biso   1.000  H
  H7       1.0000 0.62780  0.41660  0.66820  Biso   1.000  H
  O3       1.0000 0.03061  0.55443  0.93009  Biso   1.000  O
  O4       1.0000 0.05532  0.56686  0.03053  Biso   1.000  O
  C10      1.0000 0.05506  0.57840  0.97451  Biso   1.000  C
  C11      1.0000 0.08647  0.62524  0.95759  Biso   1.000  C
  C12      1.0000 0.11334  0.65475  0.00411  Biso   1.000  C
  H8       1.0000 0.11247  0.64523  0.04543  Biso   1.000  H
  C13      1.0000 0.14124  0.69830  0.98805  Biso   1.000  C
  H9       1.0000 0.15907  0.71773  0.01903  Biso   1.000  H
  C14      1.0000 0.14309  0.71326  0.92764  Biso   1.000  C
  C15      1.0000 0.11650  0.68345  0.88097  Biso   1.000  C
  H10      1.0000 0.11777  0.69273  0.83943  Biso   1.000  H
  C16      1.0000 0.08817  0.63988  0.89703  Biso   1.000  C
  H11      1.0000 0.07017  0.62043  0.86613  Biso   1.000  H
  C17      1.0000 0.17073  0.76023  0.90927  Biso   1.000  C
  C18      1.0000 0.15313  0.77978  0.87242  Biso   1.000  C
  H12      1.0000 0.12407  0.76313  0.85983  Biso   1.000  H
  H13      1.0000 0.27647  0.76803  0.90363  Biso   1.000  H
  H14      1.0000 0.29447  0.74993  0.00153  Biso   1.000  H
  O5       1.0000 0.69727  0.88777  0.26343  Biso   1.000  O
  O6       1.0000 0.72198  0.90020  0.36387  Biso   1.000  O
  C19      1.0000 0.72172  0.91174  0.30785  Biso   1.000  C
  C20      1.0000 0.75313  0.95858  0.29093  Biso   1.000  C
  C21      1.0000 0.78000  0.98809  0.33745  Biso   1.000  C
  H15      1.0000 0.77913  0.97857  0.37877  Biso   1.000  H
  C22      1.0000 0.80790  0.03164  0.32139  Biso   1.000  C
  H16      1.0000 0.82573  0.05107  0.35237  Biso   1.000  H
  C23      1.0000 0.80975  0.04660  0.26098  Biso   1.000  C
  C24      1.0000 0.78316  0.01679  0.21431  Biso   1.000  C
  H17      1.0000 0.78443  0.02607  0.17277  Biso   1.000  H
  C25      1.0000 0.75483  0.97322  0.23037  Biso   1.000  C
  H18      1.0000 0.73683  0.95377  0.19947  Biso   1.000  H
  C26      1.0000 0.83739  0.09357  0.24261  Biso   1.000  C
  C27      1.0000 0.81979  0.11312  0.20576  Biso   1.000  C
  H19      1.0000 0.79073  0.09647  0.19317  Biso   1.000  H
  H20      1.0000 0.94313  0.10137  0.23697  Biso   1.000  H
  H21      1.0000 0.96113  0.08327  0.33487  Biso   1.000  H
  O7       1.0000 0.77890  0.14284  0.59676  Biso   1.000  O
  O8       1.0000 0.76647  0.15512  0.69720  Biso   1.000  O
  C28      1.0000 0.75493  0.14332  0.64118  Biso   1.000  C
  C29      1.0000 0.70809  0.12789  0.62426  Biso   1.000  C
  C30      1.0000 0.67858  0.12525  0.67078  Biso   1.000  C
  H22      1.0000 0.68810  0.13390  0.71210  Biso   1.000  H
  C31      1.0000 0.63503  0.10960  0.65472  Biso   1.000  C
  H23      1.0000 0.61560  0.10800  0.68570  Biso   1.000  H
  C32      1.0000 0.62007  0.09649  0.59431  Biso   1.000  C
  C33      1.0000 0.64988  0.09971  0.54764  Biso   1.000  C
  H24      1.0000 0.64060  0.09170  0.50610  Biso   1.000  H
  C34      1.0000 0.69345  0.11495  0.56370  Biso   1.000  C
  H25      1.0000 0.71290  0.11640  0.53280  Biso   1.000  H
  C35      1.0000 0.57310  0.07716  0.57594  Biso   1.000  C
  C36      1.0000 0.55355  0.04001  0.53909  Biso   1.000  C
  H26      1.0000 0.57020  0.02760  0.52650  Biso   1.000  H
  H27      1.0000 0.56530  0.17510  0.57030  Biso   1.000  H
  H28      1.0000 0.58340  0.21120  0.66820  Biso   1.000  H
  O9       1.0000 0.44557  0.47617  0.93009  Biso   1.000  O
  O10      1.0000 0.43314  0.48845  0.03053  Biso   1.000  O
  C37      1.0000 0.42160  0.47665  0.97451  Biso   1.000  C
  C38      1.0000 0.37476  0.46122  0.95759  Biso   1.000  C
  C39      1.0000 0.34525  0.45858  0.00411  Biso   1.000  C
  H29      1.0000 0.35477  0.46723  0.04543  Biso   1.000  H
  C40      1.0000 0.30170  0.44293  0.98805  Biso   1.000  C
  H30      1.0000 0.28227  0.44133  0.01903  Biso   1.000  H
  C41      1.0000 0.28674  0.42982  0.92764  Biso   1.000  C
  C42      1.0000 0.31655  0.43304  0.88097  Biso   1.000  C
  H31      1.0000 0.30727  0.42503  0.83943  Biso   1.000  H
  C43      1.0000 0.36012  0.44828  0.89703  Biso   1.000  C
  H32      1.0000 0.37957  0.44973  0.86613  Biso   1.000  H
  C44      1.0000 0.23977  0.41049  0.90927  Biso   1.000  C
  C45      1.0000 0.22022  0.37334  0.87242  Biso   1.000  C
  H33      1.0000 0.23687  0.36093  0.85983  Biso   1.000  H
  H34      1.0000 0.23197  0.50843  0.90363  Biso   1.000  H
  H35      1.0000 0.25007  0.54453  0.00153  Biso   1.000  H
  O11      1.0000 0.11223  0.80951  0.26343  Biso   1.000  O
  O12      1.0000 0.09980  0.82179  0.36387  Biso   1.000  O
  C46      1.0000 0.08826  0.80999  0.30785  Biso   1.000  C
  C47      1.0000 0.04142  0.79456  0.29093  Biso   1.000  C
  C48      1.0000 0.01191  0.79192  0.33745  Biso   1.000  C
  H36      1.0000 0.02143  0.80057  0.37877  Biso   1.000  H
  C49      1.0000 0.96836  0.77627  0.32139  Biso   1.000  C
  H37      1.0000 0.94893  0.77467  0.35237  Biso   1.000  H
  C50      1.0000 0.95340  0.76316  0.26098  Biso   1.000  C
  C51      1.0000 0.98321  0.76638  0.21431  Biso   1.000  C
  H38      1.0000 0.97393  0.75837  0.17277  Biso   1.000  H
  C52      1.0000 0.02678  0.78162  0.23037  Biso   1.000  C
  H39      1.0000 0.04623  0.78307  0.19947  Biso   1.000  H
  C53      1.0000 0.90643  0.74383  0.24261  Biso   1.000  C
  C54      1.0000 0.88688  0.70668  0.20576  Biso   1.000  C
  H40      1.0000 0.90353  0.69427  0.19317  Biso   1.000  H
  H41      1.0000 0.89863  0.84177  0.23697  Biso   1.000  H
  H42      1.0000 0.91673  0.87787  0.33487  Biso   1.000  H
  O13      1.0000 0.85716  0.63606  0.59676  Biso   1.000  O
  O14      1.0000 0.84488  0.61135  0.69720  Biso   1.000  O
  C55      1.0000 0.85668  0.61161  0.64118  Biso   1.000  C
  C56      1.0000 0.87211  0.58020  0.62426  Biso   1.000  C
  C57      1.0000 0.87475  0.55333  0.67078  Biso   1.000  C
  H43      1.0000 0.86610  0.55420  0.71210  Biso   1.000  H
  C58      1.0000 0.89040  0.52543  0.65472  Biso   1.000  C
  H44      1.0000 0.89200  0.50760  0.68570  Biso   1.000  H
  C59      1.0000 0.90351  0.52358  0.59431  Biso   1.000  C
  C60      1.0000 0.90029  0.55017  0.54764  Biso   1.000  C
  H45      1.0000 0.90830  0.54890  0.50610  Biso   1.000  H
  C61      1.0000 0.88505  0.57850  0.56370  Biso   1.000  C
  H46      1.0000 0.88360  0.59650  0.53280  Biso   1.000  H
  C62      1.0000 0.92284  0.49594  0.57594  Biso   1.000  C
  C63      1.0000 0.95999  0.51354  0.53909  Biso   1.000  C
  H47      1.0000 0.97240  0.54260  0.52650  Biso   1.000  H
  H48      1.0000 0.82490  0.39020  0.57030  Biso   1.000  H
  H49      1.0000 0.78880  0.37220  0.66820  Biso   1.000  H
  O15      1.0000 0.52383  0.96939  0.93009  Biso   1.000  O
  O16      1.0000 0.51155  0.94468  0.03053  Biso   1.000  O
  C64      1.0000 0.52335  0.94494  0.97451  Biso   1.000  C
  C65      1.0000 0.53878  0.91353  0.95759  Biso   1.000  C
  C66      1.0000 0.54142  0.88666  0.00411  Biso   1.000  C
  H50      1.0000 0.53277  0.88753  0.04543  Biso   1.000  H
  C67      1.0000 0.55707  0.85876  0.98805  Biso   1.000  C
  H51      1.0000 0.55867  0.84093  0.01903  Biso   1.000  H
  C68      1.0000 0.57018  0.85691  0.92764  Biso   1.000  C
  C69      1.0000 0.56696  0.88350  0.88097  Biso   1.000  C
  H52      1.0000 0.57497  0.88223  0.83943  Biso   1.000  H
  C70      1.0000 0.55172  0.91183  0.89703  Biso   1.000  C
  H53      1.0000 0.55027  0.92983  0.86613  Biso   1.000  H
  C71      1.0000 0.58951  0.82927  0.90927  Biso   1.000  C
  C72      1.0000 0.62666  0.84687  0.87242  Biso   1.000  C
  H54      1.0000 0.63907  0.87593  0.85983  Biso   1.000  H
  H55      1.0000 0.49157  0.72353  0.90363  Biso   1.000  H
  H56      1.0000 0.45547  0.70553  0.00153  Biso   1.000  H
  O17      1.0000 0.19049  0.30273  0.26343  Biso   1.000  O
  O18      1.0000 0.17821  0.27802  0.36387  Biso   1.000  O
  C73      1.0000 0.19001  0.27828  0.30785  Biso   1.000  C
  C74      1.0000 0.20544  0.24687  0.29093  Biso   1.000  C
  C75      1.0000 0.20808  0.22000  0.33745  Biso   1.000  C
  H57      1.0000 0.19943  0.22087  0.37877  Biso   1.000  H
  C76      1.0000 0.22373  0.19210  0.32139  Biso   1.000  C
  H58      1.0000 0.22533  0.17427  0.35237  Biso   1.000  H
  C77      1.0000 0.23684  0.19025  0.26098  Biso   1.000  C
  C78      1.0000 0.23362  0.21684  0.21431  Biso   1.000  C
  H59      1.0000 0.24163  0.21557  0.17277  Biso   1.000  H
  C79      1.0000 0.21838  0.24517  0.23037  Biso   1.000  C
  H60      1.0000 0.21693  0.26317  0.19947  Biso   1.000  H
  C80      1.0000 0.25617  0.16261  0.24261  Biso   1.000  C
  C81      1.0000 0.29332  0.18021  0.20576  Biso   1.000  C
  H61      1.0000 0.30573  0.20927  0.19317  Biso   1.000  H
  H62      1.0000 0.15823  0.05687  0.23697  Biso   1.000  H
  H63      1.0000 0.12213  0.03887  0.33487  Biso   1.000  H
  O19      1.0000 0.22110  0.36394  0.40324  Biso   1.000  O
  O20      1.0000 0.23353  0.38865  0.30280  Biso   1.000  O
  C82      1.0000 0.24507  0.38839  0.35882  Biso   1.000  C
  C83      1.0000 0.29191  0.41980  0.37574  Biso   1.000  C
  C84      1.0000 0.32142  0.44667  0.32922  Biso   1.000  C
  H64      1.0000 0.31190  0.44580  0.28790  Biso   1.000  H
  C85      1.0000 0.36497  0.47457  0.34528  Biso   1.000  C
  H65      1.0000 0.38440  0.49240  0.31430  Biso   1.000  H
  C86      1.0000 0.37993  0.47642  0.40569  Biso   1.000  C
  C87      1.0000 0.35012  0.44983  0.45236  Biso   1.000  C
  H66      1.0000 0.35940  0.45110  0.49390  Biso   1.000  H
  C88      1.0000 0.30655  0.42150  0.43630  Biso   1.000  C
  H67      1.0000 0.28710  0.40350  0.46720  Biso   1.000  H
  C89      1.0000 0.42690  0.50406  0.42406  Biso   1.000  C
  C90      1.0000 0.44645  0.48646  0.46091  Biso   1.000  C
  H68      1.0000 0.42980  0.45740  0.47350  Biso   1.000  H
  H69      1.0000 0.43470  0.60980  0.42970  Biso   1.000  H
  H70      1.0000 0.41660  0.62780  0.33180  Biso   1.000  H
  O21      1.0000 0.88777  0.69727  0.73657  Biso   1.000  O
  O22      1.0000 0.90020  0.72198  0.63613  Biso   1.000  O
  C91      1.0000 0.91174  0.72172  0.69215  Biso   1.000  C
  C92      1.0000 0.95858  0.75313  0.70907  Biso   1.000  C
  C93      1.0000 0.98809  0.78000  0.66255  Biso   1.000  C
  H71      1.0000 0.97857  0.77913  0.62123  Biso   1.000  H
  C94      1.0000 0.03164  0.80790  0.67861  Biso   1.000  C
  H72      1.0000 0.05107  0.82573  0.64763  Biso   1.000  H
  C95      1.0000 0.04660  0.80975  0.73902  Biso   1.000  C
  C96      1.0000 0.01679  0.78316  0.78569  Biso   1.000  C
  H73      1.0000 0.02607  0.78443  0.82723  Biso   1.000  H
  C97      1.0000 0.97322  0.75483  0.76963  Biso   1.000  C
  H74      1.0000 0.95377  0.73683  0.80053  Biso   1.000  H
  C98      1.0000 0.09357  0.83739  0.75739  Biso   1.000  C
  C99      1.0000 0.11312  0.81979  0.79424  Biso   1.000  C
  H75      1.0000 0.09647  0.79073  0.80683  Biso   1.000  H
  H76      1.0000 0.10137  0.94313  0.76303  Biso   1.000  H
  H77      1.0000 0.08327  0.96113  0.66513  Biso   1.000  H
  O23      1.0000 0.55443  0.03061  0.06991  Biso   1.000  O
  O24      1.0000 0.56686  0.05532  0.96947  Biso   1.000  O
  C100     1.0000 0.57840  0.05506  0.02549  Biso   1.000  C
  C101     1.0000 0.62524  0.08647  0.04241  Biso   1.000  C
  C102     1.0000 0.65475  0.11334  0.99589  Biso   1.000  C
  H78      1.0000 0.64523  0.11247  0.95457  Biso   1.000  H
  C103     1.0000 0.69830  0.14124  0.01195  Biso   1.000  C
  H79      1.0000 0.71773  0.15907  0.98097  Biso   1.000  H
  C104     1.0000 0.71326  0.14309  0.07236  Biso   1.000  C
  C105     1.0000 0.68345  0.11650  0.11903  Biso   1.000  C
  H80      1.0000 0.69273  0.11777  0.16057  Biso   1.000  H
  C106     1.0000 0.63988  0.08817  0.10297  Biso   1.000  C
  H81      1.0000 0.62043  0.07017  0.13387  Biso   1.000  H
  C107     1.0000 0.76023  0.17073  0.09073  Biso   1.000  C
  C108     1.0000 0.77978  0.15313  0.12758  Biso   1.000  C
  H82      1.0000 0.76313  0.12407  0.14017  Biso   1.000  H
  H83      1.0000 0.76803  0.27647  0.09637  Biso   1.000  H
  H84      1.0000 0.74993  0.29447  0.99847  Biso   1.000  H
  O25      1.0000 0.14284  0.77890  0.40324  Biso   1.000  O
  O26      1.0000 0.15512  0.76647  0.30280  Biso   1.000  O
  C109     1.0000 0.14332  0.75493  0.35882  Biso   1.000  C
  C110     1.0000 0.12789  0.70809  0.37574  Biso   1.000  C
  C111     1.0000 0.12525  0.67858  0.32922  Biso   1.000  C
  H85      1.0000 0.13390  0.68810  0.28790  Biso   1.000  H
  C112     1.0000 0.10960  0.63503  0.34528  Biso   1.000  C
  H86      1.0000 0.10800  0.61560  0.31430  Biso   1.000  H
  C113     1.0000 0.09649  0.62007  0.40569  Biso   1.000  C
  C114     1.0000 0.09971  0.64988  0.45236  Biso   1.000  C
  H87      1.0000 0.09170  0.64060  0.49390  Biso   1.000  H
  C115     1.0000 0.11495  0.69345  0.43630  Biso   1.000  C
  H88      1.0000 0.11640  0.71290  0.46720  Biso   1.000  H
  C116     1.0000 0.07716  0.57310  0.42406  Biso   1.000  C
  C117     1.0000 0.04001  0.55355  0.46091  Biso   1.000  C
  H89      1.0000 0.02760  0.57020  0.47350  Biso   1.000  H
  H90      1.0000 0.17510  0.56530  0.42970  Biso   1.000  H
  H91      1.0000 0.21120  0.58340  0.33180  Biso   1.000  H
  O27      1.0000 0.80951  0.11223  0.73657  Biso   1.000  O
  O28      1.0000 0.82179  0.09980  0.63613  Biso   1.000  O
  C118     1.0000 0.80999  0.08826  0.69215  Biso   1.000  C
  C119     1.0000 0.79456  0.04142  0.70907  Biso   1.000  C
  C120     1.0000 0.79192  0.01191  0.66255  Biso   1.000  C
  H92      1.0000 0.80057  0.02143  0.62123  Biso   1.000  H
  C121     1.0000 0.77627  0.96836  0.67861  Biso   1.000  C
  H93      1.0000 0.77467  0.94893  0.64763  Biso   1.000  H
  C122     1.0000 0.76316  0.95340  0.73902  Biso   1.000  C
  C123     1.0000 0.76638  0.98321  0.78569  Biso   1.000  C
  H94      1.0000 0.75837  0.97393  0.82723  Biso   1.000  H
  C124     1.0000 0.78162  0.02678  0.76963  Biso   1.000  C
  H95      1.0000 0.78307  0.04623  0.80053  Biso   1.000  H
  C125     1.0000 0.74383  0.90643  0.75739  Biso   1.000  C
  C126     1.0000 0.70668  0.88688  0.79424  Biso   1.000  C
  H96      1.0000 0.69427  0.90353  0.80683  Biso   1.000  H
  H97      1.0000 0.84177  0.89863  0.76303  Biso   1.000  H
  H98      1.0000 0.87787  0.91673  0.66513  Biso   1.000  H
  O29      1.0000 0.47617  0.44557  0.06991  Biso   1.000  O
  O30      1.0000 0.48845  0.43314  0.96947  Biso   1.000  O
  C127     1.0000 0.47665  0.42160  0.02549  Biso   1.000  C
  C128     1.0000 0.46122  0.37476  0.04241  Biso   1.000  C
  C129     1.0000 0.45858  0.34525  0.99589  Biso   1.000  C
  H99      1.0000 0.46723  0.35477  0.95457  Biso   1.000  H
  C130     1.0000 0.44293  0.30170  0.01195  Biso   1.000  C
  H100     1.0000 0.44133  0.28227  0.98097  Biso   1.000  H
  C131     1.0000 0.42982  0.28674  0.07236  Biso   1.000  C
  C132     1.0000 0.43304  0.31655  0.11903  Biso   1.000  C
  H101     1.0000 0.42503  0.30727  0.16057  Biso   1.000  H
  C133     1.0000 0.44828  0.36012  0.10297  Biso   1.000  C
  H102     1.0000 0.44973  0.37957  0.13387  Biso   1.000  H
  C134     1.0000 0.41049  0.23977  0.09073  Biso   1.000  C
  C135     1.0000 0.37334  0.22022  0.12758  Biso   1.000  C
  H103     1.0000 0.36093  0.23687  0.14017  Biso   1.000  H
  H104     1.0000 0.50843  0.23197  0.09637  Biso   1.000  H
  H105     1.0000 0.54453  0.25007  0.99847  Biso   1.000  H
  O31      1.0000 0.63606  0.85716  0.40324  Biso   1.000  O
  O32      1.0000 0.61135  0.84488  0.30280  Biso   1.000  O
  C136     1.0000 0.61161  0.85668  0.35882  Biso   1.000  C
  C137     1.0000 0.58020  0.87211  0.37574  Biso   1.000  C
  C138     1.0000 0.55333  0.87475  0.32922  Biso   1.000  C
  H106     1.0000 0.55420  0.86610  0.28790  Biso   1.000  H
  C139     1.0000 0.52543  0.89040  0.34528  Biso   1.000  C
  H107     1.0000 0.50760  0.89200  0.31430  Biso   1.000  H
  C140     1.0000 0.52358  0.90351  0.40569  Biso   1.000  C
  C141     1.0000 0.55017  0.90029  0.45236  Biso   1.000  C
  H108     1.0000 0.54890  0.90830  0.49390  Biso   1.000  H
  C142     1.0000 0.57850  0.88505  0.43630  Biso   1.000  C
  H109     1.0000 0.59650  0.88360  0.46720  Biso   1.000  H
  C143     1.0000 0.49594  0.92284  0.42406  Biso   1.000  C
  C144     1.0000 0.51354  0.95999  0.46091  Biso   1.000  C
  H110     1.0000 0.54260  0.97240  0.47350  Biso   1.000  H
  H111     1.0000 0.39020  0.82490  0.42970  Biso   1.000  H
  H112     1.0000 0.37220  0.78880  0.33180  Biso   1.000  H
  O33      1.0000 0.30273  0.19049  0.73657  Biso   1.000  O
  O34      1.0000 0.27802  0.17821  0.63613  Biso   1.000  O
  C145     1.0000 0.27828  0.19001  0.69215  Biso   1.000  C
  C146     1.0000 0.24687  0.20544  0.70907  Biso   1.000  C
  C147     1.0000 0.22000  0.20808  0.66255  Biso   1.000  C
  H113     1.0000 0.22087  0.19943  0.62123  Biso   1.000  H
  C148     1.0000 0.19210  0.22373  0.67861  Biso   1.000  C
  H114     1.0000 0.17427  0.22533  0.64763  Biso   1.000  H
  C149     1.0000 0.19025  0.23684  0.73902  Biso   1.000  C
  C150     1.0000 0.21684  0.23362  0.78569  Biso   1.000  C
  H115     1.0000 0.21557  0.24163  0.82723  Biso   1.000  H
  C151     1.0000 0.24517  0.21838  0.76963  Biso   1.000  C
  H116     1.0000 0.26317  0.21693  0.80053  Biso   1.000  H
  C152     1.0000 0.16261  0.25617  0.75739  Biso   1.000  C
  C153     1.0000 0.18021  0.29332  0.79424  Biso   1.000  C
  H117     1.0000 0.20927  0.30573  0.80683  Biso   1.000  H
  H118     1.0000 0.05687  0.15823  0.76303  Biso   1.000  H
  H119     1.0000 0.03887  0.12213  0.66513  Biso   1.000  H
  O35      1.0000 0.96939  0.52383  0.06991  Biso   1.000  O
  O36      1.0000 0.94468  0.51155  0.96947  Biso   1.000  O
  C154     1.0000 0.94494  0.52335  0.02549  Biso   1.000  C
  C155     1.0000 0.91353  0.53878  0.04241  Biso   1.000  C
  C156     1.0000 0.88666  0.54142  0.99589  Biso   1.000  C
  H120     1.0000 0.88753  0.53277  0.95457  Biso   1.000  H
  C157     1.0000 0.85876  0.55707  0.01195  Biso   1.000  C
  H121     1.0000 0.84093  0.55867  0.98097  Biso   1.000  H
  C158     1.0000 0.85691  0.57018  0.07236  Biso   1.000  C
  C159     1.0000 0.88350  0.56696  0.11903  Biso   1.000  C
  H122     1.0000 0.88223  0.57497  0.16057  Biso   1.000  H
  C160     1.0000 0.91183  0.55172  0.10297  Biso   1.000  C
  H123     1.0000 0.92983  0.55027  0.13387  Biso   1.000  H
  C161     1.0000 0.82927  0.58951  0.09073  Biso   1.000  C
  C162     1.0000 0.84687  0.62666  0.12758  Biso   1.000  C
  H124     1.0000 0.87593  0.63907  0.14017  Biso   1.000  H
  H125     1.0000 0.72353  0.49157  0.09637  Biso   1.000  H
  H126     1.0000 0.70553  0.45547  0.99847  Biso   1.000  H
  O37      1.0000 0.63606  0.77890  0.40324  Biso   1.000  O
  O38      1.0000 0.61135  0.76647  0.30280  Biso   1.000  O
  C163     1.0000 0.61161  0.75493  0.35882  Biso   1.000  C
  C164     1.0000 0.58020  0.70809  0.37574  Biso   1.000  C
  C165     1.0000 0.55333  0.67858  0.32922  Biso   1.000  C
  H127     1.0000 0.55420  0.68810  0.28790  Biso   1.000  H
  C166     1.0000 0.52543  0.63503  0.34528  Biso   1.000  C
  H128     1.0000 0.50760  0.61560  0.31430  Biso   1.000  H
  C167     1.0000 0.52358  0.62007  0.40569  Biso   1.000  C
  C168     1.0000 0.55017  0.64988  0.45236  Biso   1.000  C
  H129     1.0000 0.54890  0.64060  0.49390  Biso   1.000  H
  C169     1.0000 0.57850  0.69345  0.43630  Biso   1.000  C
  H130     1.0000 0.59650  0.71290  0.46720  Biso   1.000  H
  C170     1.0000 0.49594  0.57310  0.42406  Biso   1.000  C
  C171     1.0000 0.51354  0.55355  0.46091  Biso   1.000  C
  H131     1.0000 0.54260  0.57020  0.47350  Biso   1.000  H
  H132     1.0000 0.39020  0.56530  0.42970  Biso   1.000  H
  H133     1.0000 0.37220  0.58340  0.33180  Biso   1.000  H
  O39      1.0000 0.30273  0.11223  0.73657  Biso   1.000  O
  O40      1.0000 0.27802  0.09980  0.63613  Biso   1.000  O
  C172     1.0000 0.27828  0.08826  0.69215  Biso   1.000  C
  C173     1.0000 0.24687  0.04142  0.70907  Biso   1.000  C
  C174     1.0000 0.22000  0.01191  0.66255  Biso   1.000  C
  H134     1.0000 0.22087  0.02143  0.62123  Biso   1.000  H
  C175     1.0000 0.19210  0.96836  0.67861  Biso   1.000  C
  H135     1.0000 0.17427  0.94893  0.64763  Biso   1.000  H
  C176     1.0000 0.19025  0.95340  0.73902  Biso   1.000  C
  C177     1.0000 0.21684  0.98321  0.78569  Biso   1.000  C
  H136     1.0000 0.21557  0.97393  0.82723  Biso   1.000  H
  C178     1.0000 0.24517  0.02678  0.76963  Biso   1.000  C
  H137     1.0000 0.26317  0.04623  0.80053  Biso   1.000  H
  C179     1.0000 0.16261  0.90643  0.75739  Biso   1.000  C
  C180     1.0000 0.18021  0.88688  0.79424  Biso   1.000  C
  H138     1.0000 0.20927  0.90353  0.80683  Biso   1.000  H
  H139     1.0000 0.05687  0.89863  0.76303  Biso   1.000  H
  H140     1.0000 0.03887  0.91673  0.66513  Biso   1.000  H
  O41      1.0000 0.96939  0.44557  0.06991  Biso   1.000  O
  O42      1.0000 0.94468  0.43314  0.96947  Biso   1.000  O
  C181     1.0000 0.94494  0.42160  0.02549  Biso   1.000  C
  C182     1.0000 0.91353  0.37476  0.04241  Biso   1.000  C
  C183     1.0000 0.88666  0.34525  0.99589  Biso   1.000  C
  H141     1.0000 0.88753  0.35477  0.95457  Biso   1.000  H
  C184     1.0000 0.85876  0.30170  0.01195  Biso   1.000  C
  H142     1.0000 0.84093  0.28227  0.98097  Biso   1.000  H
  C185     1.0000 0.85691  0.28674  0.07236  Biso   1.000  C
  C186     1.0000 0.88350  0.31655  0.11903  Biso   1.000  C
  H143     1.0000 0.88223  0.30727  0.16057  Biso   1.000  H
  C187     1.0000 0.91183  0.36012  0.10297  Biso   1.000  C
  H144     1.0000 0.92983  0.37957  0.13387  Biso   1.000  H
  C188     1.0000 0.82927  0.23977  0.09073  Biso   1.000  C
  C189     1.0000 0.84687  0.22022  0.12758  Biso   1.000  C
  H145     1.0000 0.87593  0.23687  0.14017  Biso   1.000  H
  H146     1.0000 0.72353  0.23197  0.09637  Biso   1.000  H
  H147     1.0000 0.70553  0.25007  0.99847  Biso   1.000  H
  O43      1.0000 0.22110  0.85716  0.40324  Biso   1.000  O
  O44      1.0000 0.23353  0.84488  0.30280  Biso   1.000  O
  C190     1.0000 0.24507  0.85668  0.35882  Biso   1.000  C
  C191     1.0000 0.29191  0.87211  0.37574  Biso   1.000  C
  C192     1.0000 0.32142  0.87475  0.32922  Biso   1.000  C
  H148     1.0000 0.31190  0.86610  0.28790  Biso   1.000  H
  C193     1.0000 0.36497  0.89040  0.34528  Biso   1.000  C
  H149     1.0000 0.38440  0.89200  0.31430  Biso   1.000  H
  C194     1.0000 0.37993  0.90351  0.40569  Biso   1.000  C
  C195     1.0000 0.35012  0.90029  0.45236  Biso   1.000  C
  H150     1.0000 0.35940  0.90830  0.49390  Biso   1.000  H
  C196     1.0000 0.30655  0.88505  0.43630  Biso   1.000  C
  H151     1.0000 0.28710  0.88360  0.46720  Biso   1.000  H
  C197     1.0000 0.42690  0.92284  0.42406  Biso   1.000  C
  C198     1.0000 0.44645  0.95999  0.46091  Biso   1.000  C
  H152     1.0000 0.42980  0.97240  0.47350  Biso   1.000  H
  H153     1.0000 0.43470  0.82490  0.42970  Biso   1.000  H
  H154     1.0000 0.41660  0.78880  0.33180  Biso   1.000  H
  O45      1.0000 0.88777  0.19049  0.73657  Biso   1.000  O
  O46      1.0000 0.90020  0.17821  0.63613  Biso   1.000  O
  C199     1.0000 0.91174  0.19001  0.69215  Biso   1.000  C
  C200     1.0000 0.95858  0.20544  0.70907  Biso   1.000  C
  C201     1.0000 0.98809  0.20808  0.66255  Biso   1.000  C
  H155     1.0000 0.97857  0.19943  0.62123  Biso   1.000  H
  C202     1.0000 0.03164  0.22373  0.67861  Biso   1.000  C
  H156     1.0000 0.05107  0.22533  0.64763  Biso   1.000  H
  C203     1.0000 0.04660  0.23684  0.73902  Biso   1.000  C
  C204     1.0000 0.01679  0.23362  0.78569  Biso   1.000  C
  H157     1.0000 0.02607  0.24163  0.82723  Biso   1.000  H
  C205     1.0000 0.97322  0.21838  0.76963  Biso   1.000  C
  H158     1.0000 0.95377  0.21693  0.80053  Biso   1.000  H
  C206     1.0000 0.09357  0.25617  0.75739  Biso   1.000  C
  C207     1.0000 0.11312  0.29332  0.79424  Biso   1.000  C
  H159     1.0000 0.09647  0.30573  0.80683  Biso   1.000  H
  H160     1.0000 0.10137  0.15823  0.76303  Biso   1.000  H
  H161     1.0000 0.08327  0.12213  0.66513  Biso   1.000  H
  O47      1.0000 0.55443  0.52383  0.06991  Biso   1.000  O
  O48      1.0000 0.56686  0.51155  0.96947  Biso   1.000  O
  C208     1.0000 0.57840  0.52335  0.02549  Biso   1.000  C
  C209     1.0000 0.62524  0.53878  0.04241  Biso   1.000  C
  C210     1.0000 0.65475  0.54142  0.99589  Biso   1.000  C
  H162     1.0000 0.64523  0.53277  0.95457  Biso   1.000  H
  C211     1.0000 0.69830  0.55707  0.01195  Biso   1.000  C
  H163     1.0000 0.71773  0.55867  0.98097  Biso   1.000  H
  C212     1.0000 0.71326  0.57018  0.07236  Biso   1.000  C
  C213     1.0000 0.68345  0.56696  0.11903  Biso   1.000  C
  H164     1.0000 0.69273  0.57497  0.16057  Biso   1.000  H
  C214     1.0000 0.63988  0.55172  0.10297  Biso   1.000  C
  H165     1.0000 0.62043  0.55027  0.13387  Biso   1.000  H
  C215     1.0000 0.76023  0.58951  0.09073  Biso   1.000  C
  C216     1.0000 0.77978  0.62666  0.12758  Biso   1.000  C
  H166     1.0000 0.76313  0.63907  0.14017  Biso   1.000  H
  H167     1.0000 0.76803  0.49157  0.09637  Biso   1.000  H
  H168     1.0000 0.74993  0.45547  0.99847  Biso   1.000  H
  O49      1.0000 0.14284  0.36394  0.40324  Biso   1.000  O
  O50      1.0000 0.15512  0.38865  0.30280  Biso   1.000  O
  C217     1.0000 0.14332  0.38839  0.35882  Biso   1.000  C
  C218     1.0000 0.12789  0.41980  0.37574  Biso   1.000  C
  C219     1.0000 0.12525  0.44667  0.32922  Biso   1.000  C
  H169     1.0000 0.13390  0.44580  0.28790  Biso   1.000  H
  C220     1.0000 0.10960  0.47457  0.34528  Biso   1.000  C
  H170     1.0000 0.10800  0.49240  0.31430  Biso   1.000  H
  C221     1.0000 0.09649  0.47642  0.40569  Biso   1.000  C
  C222     1.0000 0.09971  0.44983  0.45236  Biso   1.000  C
  H171     1.0000 0.09170  0.45110  0.49390  Biso   1.000  H
  C223     1.0000 0.11495  0.42150  0.43630  Biso   1.000  C
  H172     1.0000 0.11640  0.40350  0.46720  Biso   1.000  H
  C224     1.0000 0.07716  0.50406  0.42406  Biso   1.000  C
  C225     1.0000 0.04001  0.48646  0.46091  Biso   1.000  C
  H173     1.0000 0.02760  0.45740  0.47350  Biso   1.000  H
  H174     1.0000 0.17510  0.60980  0.42970  Biso   1.000  H
  H175     1.0000 0.21120  0.62780  0.33180  Biso   1.000  H
  O51      1.0000 0.80951  0.69727  0.73657  Biso   1.000  O
  O52      1.0000 0.82179  0.72198  0.63613  Biso   1.000  O
  C226     1.0000 0.80999  0.72172  0.69215  Biso   1.000  C
  C227     1.0000 0.79456  0.75313  0.70907  Biso   1.000  C
  C228     1.0000 0.79192  0.78000  0.66255  Biso   1.000  C
  H176     1.0000 0.80057  0.77913  0.62123  Biso   1.000  H
  C229     1.0000 0.77627  0.80790  0.67861  Biso   1.000  C
  H177     1.0000 0.77467  0.82573  0.64763  Biso   1.000  H
  C230     1.0000 0.76316  0.80975  0.73902  Biso   1.000  C
  C231     1.0000 0.76638  0.78316  0.78569  Biso   1.000  C
  H178     1.0000 0.75837  0.78443  0.82723  Biso   1.000  H
  C232     1.0000 0.78162  0.75483  0.76963  Biso   1.000  C
  H179     1.0000 0.78307  0.73683  0.80053  Biso   1.000  H
  C233     1.0000 0.74383  0.83739  0.75739  Biso   1.000  C
  C234     1.0000 0.70668  0.81979  0.79424  Biso   1.000  C
  H180     1.0000 0.69427  0.79073  0.80683  Biso   1.000  H
  H181     1.0000 0.84177  0.94313  0.76303  Biso   1.000  H
  H182     1.0000 0.87787  0.96113  0.66513  Biso   1.000  H
  O53      1.0000 0.47617  0.03061  0.06991  Biso   1.000  O
  O54      1.0000 0.48845  0.05532  0.96947  Biso   1.000  O
  C235     1.0000 0.47665  0.05506  0.02549  Biso   1.000  C
  C236     1.0000 0.46122  0.08647  0.04241  Biso   1.000  C
  C237     1.0000 0.45858  0.11334  0.99589  Biso   1.000  C
  H183     1.0000 0.46723  0.11247  0.95457  Biso   1.000  H
  C238     1.0000 0.44293  0.14124  0.01195  Biso   1.000  C
  H184     1.0000 0.44133  0.15907  0.98097  Biso   1.000  H
  C239     1.0000 0.42982  0.14309  0.07236  Biso   1.000  C
  C240     1.0000 0.43304  0.11650  0.11903  Biso   1.000  C
  H185     1.0000 0.42503  0.11777  0.16057  Biso   1.000  H
  C241     1.0000 0.44828  0.08817  0.10297  Biso   1.000  C
  H186     1.0000 0.44973  0.07017  0.13387  Biso   1.000  H
  C242     1.0000 0.41049  0.17073  0.09073  Biso   1.000  C
  C243     1.0000 0.37334  0.15313  0.12758  Biso   1.000  C
  H187     1.0000 0.36093  0.12407  0.14017  Biso   1.000  H
  H188     1.0000 0.50843  0.27647  0.09637  Biso   1.000  H
  H189     1.0000 0.54453  0.29447  0.99847  Biso   1.000  H
  O55      1.0000 0.77890  0.63606  0.59676  Biso   1.000  O
  O56      1.0000 0.76647  0.61135  0.69720  Biso   1.000  O
  C244     1.0000 0.75493  0.61161  0.64118  Biso   1.000  C
  C245     1.0000 0.70809  0.58020  0.62426  Biso   1.000  C
  C246     1.0000 0.67858  0.55333  0.67078  Biso   1.000  C
  H190     1.0000 0.68810  0.55420  0.71210  Biso   1.000  H
  C247     1.0000 0.63503  0.52543  0.65472  Biso   1.000  C
  H191     1.0000 0.61560  0.50760  0.68570  Biso   1.000  H
  C248     1.0000 0.62007  0.52358  0.59431  Biso   1.000  C
  C249     1.0000 0.64988  0.55017  0.54764  Biso   1.000  C
  H192     1.0000 0.64060  0.54890  0.50610  Biso   1.000  H
  C250     1.0000 0.69345  0.57850  0.56370  Biso   1.000  C
  H193     1.0000 0.71290  0.59650  0.53280  Biso   1.000  H
  C251     1.0000 0.57310  0.49594  0.57594  Biso   1.000  C
  C252     1.0000 0.55355  0.51354  0.53909  Biso   1.000  C
  H194     1.0000 0.57020  0.54260  0.52650  Biso   1.000  H
  H195     1.0000 0.56530  0.39020  0.57030  Biso   1.000  H
  H196     1.0000 0.58340  0.37220  0.66820  Biso   1.000  H
  O57      1.0000 0.44557  0.96939  0.93009  Biso   1.000  O
  O58      1.0000 0.43314  0.94468  0.03053  Biso   1.000  O
  C253     1.0000 0.42160  0.94494  0.97451  Biso   1.000  C
  C254     1.0000 0.37476  0.91353  0.95759  Biso   1.000  C
  C255     1.0000 0.34525  0.88666  0.00411  Biso   1.000  C
  H197     1.0000 0.35477  0.88753  0.04543  Biso   1.000  H
  C256     1.0000 0.30170  0.85876  0.98805  Biso   1.000  C
  H198     1.0000 0.28227  0.84093  0.01903  Biso   1.000  H
  C257     1.0000 0.28674  0.85691  0.92764  Biso   1.000  C
  C258     1.0000 0.31655  0.88350  0.88097  Biso   1.000  C
  H199     1.0000 0.30727  0.88223  0.83943  Biso   1.000  H
  C259     1.0000 0.36012  0.91183  0.89703  Biso   1.000  C
  H200     1.0000 0.37957  0.92983  0.86613  Biso   1.000  H
  C260     1.0000 0.23977  0.82927  0.90927  Biso   1.000  C
  C261     1.0000 0.22022  0.84687  0.87242  Biso   1.000  C
  H201     1.0000 0.23687  0.87593  0.85983  Biso   1.000  H
  H202     1.0000 0.23197  0.72353  0.90363  Biso   1.000  H
  H203     1.0000 0.25007  0.70553  0.00153  Biso   1.000  H
  O59      1.0000 0.11223  0.30273  0.26343  Biso   1.000  O
  O60      1.0000 0.09980  0.27802  0.36387  Biso   1.000  O
  C262     1.0000 0.08826  0.27828  0.30785  Biso   1.000  C
  C263     1.0000 0.04142  0.24687  0.29093  Biso   1.000  C
  C264     1.0000 0.01191  0.22000  0.33745  Biso   1.000  C
  H204     1.0000 0.02143  0.22087  0.37877  Biso   1.000  H
  C265     1.0000 0.96836  0.19210  0.32139  Biso   1.000  C
  H205     1.0000 0.94893  0.17427  0.35237  Biso   1.000  H
  C266     1.0000 0.95340  0.19025  0.26098  Biso   1.000  C
  C267     1.0000 0.98321  0.21684  0.21431  Biso   1.000  C
  H206     1.0000 0.97393  0.21557  0.17277  Biso   1.000  H
  C268     1.0000 0.02678  0.24517  0.23037  Biso   1.000  C
  H207     1.0000 0.04623  0.26317  0.19947  Biso   1.000  H
  C269     1.0000 0.90643  0.16261  0.24261  Biso   1.000  C
  C270     1.0000 0.88688  0.18021  0.20576  Biso   1.000  C
  H208     1.0000 0.90353  0.20927  0.19317  Biso   1.000  H
  H209     1.0000 0.89863  0.05687  0.23697  Biso   1.000  H
  H210     1.0000 0.91673  0.03887  0.33487  Biso   1.000  H
  O61      1.0000 0.85716  0.22110  0.59676  Biso   1.000  O
  O62      1.0000 0.84488  0.23353  0.69720  Biso   1.000  O
  C271     1.0000 0.85668  0.24507  0.64118  Biso   1.000  C
  C272     1.0000 0.87211  0.29191  0.62426  Biso   1.000  C
  C273     1.0000 0.87475  0.32142  0.67078  Biso   1.000  C
  H211     1.0000 0.86610  0.31190  0.71210  Biso   1.000  H
  C274     1.0000 0.89040  0.36497  0.65472  Biso   1.000  C
  H212     1.0000 0.89200  0.38440  0.68570  Biso   1.000  H
  C275     1.0000 0.90351  0.37993  0.59431  Biso   1.000  C
  C276     1.0000 0.90029  0.35012  0.54764  Biso   1.000  C
  H213     1.0000 0.90830  0.35940  0.50610  Biso   1.000  H
  C277     1.0000 0.88505  0.30655  0.56370  Biso   1.000  C
  H214     1.0000 0.88360  0.28710  0.53280  Biso   1.000  H
  C278     1.0000 0.92284  0.42690  0.57594  Biso   1.000  C
  C279     1.0000 0.95999  0.44645  0.53909  Biso   1.000  C
  H215     1.0000 0.97240  0.42980  0.52650  Biso   1.000  H
  H216     1.0000 0.82490  0.43470  0.57030  Biso   1.000  H
  H217     1.0000 0.78880  0.41660  0.66820  Biso   1.000  H
  O63      1.0000 0.52383  0.55443  0.93009  Biso   1.000  O
  O64      1.0000 0.51155  0.56686  0.03053  Biso   1.000  O
  C280     1.0000 0.52335  0.57840  0.97451  Biso   1.000  C
  C281     1.0000 0.53878  0.62524  0.95759  Biso   1.000  C
  C282     1.0000 0.54142  0.65475  0.00411  Biso   1.000  C
  H218     1.0000 0.53277  0.64523  0.04543  Biso   1.000  H
  C283     1.0000 0.55707  0.69830  0.98805  Biso   1.000  C
  H219     1.0000 0.55867  0.71773  0.01903  Biso   1.000  H
  C284     1.0000 0.57018  0.71326  0.92764  Biso   1.000  C
  C285     1.0000 0.56696  0.68345  0.88097  Biso   1.000  C
  H220     1.0000 0.57497  0.69273  0.83943  Biso   1.000  H
  C286     1.0000 0.55172  0.63988  0.89703  Biso   1.000  C
  H221     1.0000 0.55027  0.62043  0.86613  Biso   1.000  H
  C287     1.0000 0.58951  0.76023  0.90927  Biso   1.000  C
  C288     1.0000 0.62666  0.77978  0.87242  Biso   1.000  C
  H222     1.0000 0.63907  0.76313  0.85983  Biso   1.000  H
  H223     1.0000 0.49157  0.76803  0.90363  Biso   1.000  H
  H224     1.0000 0.45547  0.74993  0.00153  Biso   1.000  H
  O65      1.0000 0.19049  0.88777  0.26343  Biso   1.000  O
  O66      1.0000 0.17821  0.90020  0.36387  Biso   1.000  O
  C289     1.0000 0.19001  0.91174  0.30785  Biso   1.000  C
  C290     1.0000 0.20544  0.95858  0.29093  Biso   1.000  C
  C291     1.0000 0.20808  0.98809  0.33745  Biso   1.000  C
  H225     1.0000 0.19943  0.97857  0.37877  Biso   1.000  H
  C292     1.0000 0.22373  0.03164  0.32139  Biso   1.000  C
  H226     1.0000 0.22533  0.05107  0.35237  Biso   1.000  H
  C293     1.0000 0.23684  0.04660  0.26098  Biso   1.000  C
  C294     1.0000 0.23362  0.01679  0.21431  Biso   1.000  C
  H227     1.0000 0.24163  0.02607  0.17277  Biso   1.000  H
  C295     1.0000 0.21838  0.97322  0.23037  Biso   1.000  C
  H228     1.0000 0.21693  0.95377  0.19947  Biso   1.000  H
  C296     1.0000 0.25617  0.09357  0.24261  Biso   1.000  C
  C297     1.0000 0.29332  0.11312  0.20576  Biso   1.000  C
  H229     1.0000 0.30573  0.09647  0.19317  Biso   1.000  H
  H230     1.0000 0.15823  0.10137  0.23697  Biso   1.000  H
  H231     1.0000 0.12213  0.08327  0.33487  Biso   1.000  H
  O67      1.0000 0.36394  0.14284  0.59676  Biso   1.000  O
  O68      1.0000 0.38865  0.15512  0.69720  Biso   1.000  O
  C298     1.0000 0.38839  0.14332  0.64118  Biso   1.000  C
  C299     1.0000 0.41980  0.12789  0.62426  Biso   1.000  C
  C300     1.0000 0.44667  0.12525  0.67078  Biso   1.000  C
  H232     1.0000 0.44580  0.13390  0.71210  Biso   1.000  H
  C301     1.0000 0.47457  0.10960  0.65472  Biso   1.000  C
  H233     1.0000 0.49240  0.10800  0.68570  Biso   1.000  H
  C302     1.0000 0.47642  0.09649  0.59431  Biso   1.000  C
  C303     1.0000 0.44983  0.09971  0.54764  Biso   1.000  C
  H234     1.0000 0.45110  0.09170  0.50610  Biso   1.000  H
  C304     1.0000 0.42150  0.11495  0.56370  Biso   1.000  C
  H235     1.0000 0.40350  0.11640  0.53280  Biso   1.000  H
  C305     1.0000 0.50406  0.07716  0.57594  Biso   1.000  C
  C306     1.0000 0.48646  0.04001  0.53909  Biso   1.000  C
  H236     1.0000 0.45740  0.02760  0.52650  Biso   1.000  H
  H237     1.0000 0.60980  0.17510  0.57030  Biso   1.000  H
  H238     1.0000 0.62780  0.21120  0.66820  Biso   1.000  H
  O69      1.0000 0.03061  0.47617  0.93009  Biso   1.000  O
  O70      1.0000 0.05532  0.48845  0.03053  Biso   1.000  O
  C307     1.0000 0.05506  0.47665  0.97451  Biso   1.000  C
  C308     1.0000 0.08647  0.46122  0.95759  Biso   1.000  C
  C309     1.0000 0.11334  0.45858  0.00411  Biso   1.000  C
  H239     1.0000 0.11247  0.46723  0.04543  Biso   1.000  H
  C310     1.0000 0.14124  0.44293  0.98805  Biso   1.000  C
  H240     1.0000 0.15907  0.44133  0.01903  Biso   1.000  H
  C311     1.0000 0.14309  0.42982  0.92764  Biso   1.000  C
  C312     1.0000 0.11650  0.43304  0.88097  Biso   1.000  C
  H241     1.0000 0.11777  0.42503  0.83943  Biso   1.000  H
  C313     1.0000 0.08817  0.44828  0.89703  Biso   1.000  C
  H242     1.0000 0.07017  0.44973  0.86613  Biso   1.000  H
  C314     1.0000 0.17073  0.41049  0.90927  Biso   1.000  C
  C315     1.0000 0.15313  0.37334  0.87242  Biso   1.000  C
  H243     1.0000 0.12407  0.36093  0.85983  Biso   1.000  H
  H244     1.0000 0.27647  0.50843  0.90363  Biso   1.000  H
  H245     1.0000 0.29447  0.54453  0.00153  Biso   1.000  H
  O71      1.0000 0.69727  0.80951  0.26343  Biso   1.000  O
  O72      1.0000 0.72198  0.82179  0.36387  Biso   1.000  O
  C316     1.0000 0.72172  0.80999  0.30785  Biso   1.000  C
  C317     1.0000 0.75313  0.79456  0.29093  Biso   1.000  C
  C318     1.0000 0.78000  0.79192  0.33745  Biso   1.000  C
  H246     1.0000 0.77913  0.80057  0.37877  Biso   1.000  H
  C319     1.0000 0.80790  0.77627  0.32139  Biso   1.000  C
  H247     1.0000 0.82573  0.77467  0.35237  Biso   1.000  H
  C320     1.0000 0.80975  0.76316  0.26098  Biso   1.000  C
  C321     1.0000 0.78316  0.76638  0.21431  Biso   1.000  C
  H248     1.0000 0.78443  0.75837  0.17277  Biso   1.000  H
  C322     1.0000 0.75483  0.78162  0.23037  Biso   1.000  C
  H249     1.0000 0.73683  0.78307  0.19947  Biso   1.000  H
  C323     1.0000 0.83739  0.74383  0.24261  Biso   1.000  C
  C324     1.0000 0.81979  0.70668  0.20576  Biso   1.000  C
  H250     1.0000 0.79073  0.69427  0.19317  Biso   1.000  H
  H251     1.0000 0.94313  0.84177  0.23697  Biso   1.000  H
  H252     1.0000 0.96113  0.87787  0.33487  Biso   1.000  H
  Cu1      1.0000 0.31914  0.15957  0.60770  Biso   1.000  Cu
  Cu2      1.0000 0.98581  0.49290  0.94103  Biso   1.000  Cu
  Cu3      1.0000 0.65247  0.82624  0.27437  Biso   1.000  Cu
  Cu4      1.0000 0.84043  0.15957  0.60770  Biso   1.000  Cu
  Cu5      1.0000 0.50710  0.49290  0.94103  Biso   1.000  Cu
  Cu6      1.0000 0.17376  0.82624  0.27437  Biso   1.000  Cu
  Cu7      1.0000 0.84043  0.68086  0.60770  Biso   1.000  Cu
  Cu8      1.0000 0.50710  0.01419  0.94103  Biso   1.000  Cu
  Cu9      1.0000 0.17376  0.34753  0.27437  Biso   1.000  Cu
  Cu10     1.0000 0.15957  0.31914  0.39230  Biso   1.000  Cu
  Cu11     1.0000 0.82624  0.65247  0.72563  Biso   1.000  Cu
  Cu12     1.0000 0.49290  0.98581  0.05897  Biso   1.000  Cu
  Cu13     1.0000 0.15957  0.84043  0.39230  Biso   1.000  Cu
  Cu14     1.0000 0.82624  0.17376  0.72563  Biso   1.000  Cu
  Cu15     1.0000 0.49290  0.50710  0.05897  Biso   1.000  Cu
  Cu16     1.0000 0.68086  0.84043  0.39230  Biso   1.000  Cu
  Cu17     1.0000 0.34753  0.17376  0.72563  Biso   1.000  Cu
  Cu18     1.0000 0.01419  0.50710  0.05897  Biso   1.000  Cu
  O73      1.0000 0.56634  0.43366  0.63314  Biso   1.000  O
  C325     1.0000 0.51005  0.48995  0.51970  Biso   1.000  C
  C326     1.0000 0.54801  0.45199  0.59540  Biso   1.000  C
  C327     1.0000 0.58691  0.41309  0.59720  Biso   1.000  C
  C328     1.0000 0.60615  0.39385  0.64200  Biso   1.000  C
  H253     1.0000 0.61950  0.38050  0.61810  Biso   1.000  H
  O74      1.0000 0.23301  0.76699  0.96647  Biso   1.000  O
  C329     1.0000 0.17672  0.82328  0.85303  Biso   1.000  C
  C330     1.0000 0.21468  0.78532  0.92873  Biso   1.000  C
  C331     1.0000 0.25358  0.74642  0.93053  Biso   1.000  C
  C332     1.0000 0.27282  0.72718  0.97533  Biso   1.000  C
  H254     1.0000 0.28617  0.71383  0.95143  Biso   1.000  H
  O75      1.0000 0.89967  0.10033  0.29981  Biso   1.000  O
  C333     1.0000 0.84338  0.15662  0.18637  Biso   1.000  C
  C334     1.0000 0.88134  0.11866  0.26207  Biso   1.000  C
  C335     1.0000 0.92024  0.07976  0.26387  Biso   1.000  C
  C336     1.0000 0.93948  0.06052  0.30867  Biso   1.000  C
  H255     1.0000 0.95283  0.04717  0.28477  Biso   1.000  H
  O76      1.0000 0.56634  0.13268  0.63314  Biso   1.000  O
  C337     1.0000 0.51005  0.02010  0.51970  Biso   1.000  C
  C338     1.0000 0.54801  0.09602  0.59540  Biso   1.000  C
  C339     1.0000 0.58691  0.17382  0.59720  Biso   1.000  C
  C340     1.0000 0.60615  0.21230  0.64200  Biso   1.000  C
  H256     1.0000 0.61950  0.23900  0.61810  Biso   1.000  H
  O77      1.0000 0.23301  0.46601  0.96647  Biso   1.000  O
  C341     1.0000 0.17672  0.35343  0.85303  Biso   1.000  C
  C342     1.0000 0.21468  0.42935  0.92873  Biso   1.000  C
  C343     1.0000 0.25358  0.50715  0.93053  Biso   1.000  C
  C344     1.0000 0.27282  0.54563  0.97533  Biso   1.000  C
  H257     1.0000 0.28617  0.57233  0.95143  Biso   1.000  H
  O78      1.0000 0.89967  0.79935  0.29981  Biso   1.000  O
  C345     1.0000 0.84338  0.68677  0.18637  Biso   1.000  C
  C346     1.0000 0.88134  0.76269  0.26207  Biso   1.000  C
  C347     1.0000 0.92024  0.84049  0.26387  Biso   1.000  C
  C348     1.0000 0.93948  0.87897  0.30867  Biso   1.000  C
  H258     1.0000 0.95283  0.90567  0.28477  Biso   1.000  H
  O79      1.0000 0.86732  0.43366  0.63314  Biso   1.000  O
  C349     1.0000 0.97990  0.48995  0.51970  Biso   1.000  C
  C350     1.0000 0.90398  0.45199  0.59540  Biso   1.000  C
  C351     1.0000 0.82618  0.41309  0.59720  Biso   1.000  C
  C352     1.0000 0.78770  0.39385  0.64200  Biso   1.000  C
  H259     1.0000 0.76100  0.38050  0.61810  Biso   1.000  H
  O80      1.0000 0.53399  0.76699  0.96647  Biso   1.000  O
  C353     1.0000 0.64657  0.82328  0.85303  Biso   1.000  C
  C354     1.0000 0.57065  0.78532  0.92873  Biso   1.000  C
  C355     1.0000 0.49285  0.74642  0.93053  Biso   1.000  C
  C356     1.0000 0.45437  0.72718  0.97533  Biso   1.000  C
  H260     1.0000 0.42767  0.71383  0.95143  Biso   1.000  H
  O81      1.0000 0.20065  0.10033  0.29981  Biso   1.000  O
  C357     1.0000 0.31323  0.15662  0.18637  Biso   1.000  C
  C358     1.0000 0.23731  0.11866  0.26207  Biso   1.000  C
  C359     1.0000 0.15951  0.07976  0.26387  Biso   1.000  C
  C360     1.0000 0.12103  0.06052  0.30867  Biso   1.000  C
  H261     1.0000 0.09433  0.04717  0.28477  Biso   1.000  H
  O82      1.0000 0.43366  0.56634  0.36686  Biso   1.000  O
  C361     1.0000 0.48995  0.51005  0.48030  Biso   1.000  C
  C362     1.0000 0.45199  0.54801  0.40460  Biso   1.000  C
  C363     1.0000 0.41309  0.58691  0.40280  Biso   1.000  C
  C364     1.0000 0.39385  0.60615  0.35800  Biso   1.000  C
  H262     1.0000 0.38050  0.61950  0.38190  Biso   1.000  H
  O83      1.0000 0.10033  0.89967  0.70019  Biso   1.000  O
  C365     1.0000 0.15662  0.84338  0.81363  Biso   1.000  C
  C366     1.0000 0.11866  0.88134  0.73793  Biso   1.000  C
  C367     1.0000 0.07976  0.92024  0.73613  Biso   1.000  C
  C368     1.0000 0.06052  0.93948  0.69133  Biso   1.000  C
  H263     1.0000 0.04717  0.95283  0.71523  Biso   1.000  H
  O84      1.0000 0.76699  0.23301  0.03353  Biso   1.000  O
  C369     1.0000 0.82328  0.17672  0.14697  Biso   1.000  C
  C370     1.0000 0.78532  0.21468  0.07127  Biso   1.000  C
  C371     1.0000 0.74642  0.25358  0.06947  Biso   1.000  C
  C372     1.0000 0.72718  0.27282  0.02467  Biso   1.000  C
  H264     1.0000 0.71383  0.28617  0.04857  Biso   1.000  H
  O85      1.0000 0.13268  0.56634  0.36686  Biso   1.000  O
  C373     1.0000 0.02010  0.51005  0.48030  Biso   1.000  C
  C374     1.0000 0.09602  0.54801  0.40460  Biso   1.000  C
  C375     1.0000 0.17382  0.58691  0.40280  Biso   1.000  C
  C376     1.0000 0.21230  0.60615  0.35800  Biso   1.000  C
  H265     1.0000 0.23900  0.61950  0.38190  Biso   1.000  H
  O86      1.0000 0.79935  0.89967  0.70019  Biso   1.000  O
  C377     1.0000 0.68677  0.84338  0.81363  Biso   1.000  C
  C378     1.0000 0.76269  0.88134  0.73793  Biso   1.000  C
  C379     1.0000 0.84049  0.92024  0.73613  Biso   1.000  C
  C380     1.0000 0.87897  0.93948  0.69133  Biso   1.000  C
  H266     1.0000 0.90567  0.95283  0.71523  Biso   1.000  H
  O87      1.0000 0.46601  0.23301  0.03353  Biso   1.000  O
  C381     1.0000 0.35343  0.17672  0.14697  Biso   1.000  C
  C382     1.0000 0.42935  0.21468  0.07127  Biso   1.000  C
  C383     1.0000 0.50715  0.25358  0.06947  Biso   1.000  C
  C384     1.0000 0.54563  0.27282  0.02467  Biso   1.000  C
  H267     1.0000 0.57233  0.28617  0.04857  Biso   1.000  H
  O88      1.0000 0.43366  0.86732  0.36686  Biso   1.000  O
  C385     1.0000 0.48995  0.97990  0.48030  Biso   1.000  C
  C386     1.0000 0.45199  0.90398  0.40460  Biso   1.000  C
  C387     1.0000 0.41309  0.82618  0.40280  Biso   1.000  C
  C388     1.0000 0.39385  0.78770  0.35800  Biso   1.000  C
  H268     1.0000 0.38050  0.76100  0.38190  Biso   1.000  H
  O89      1.0000 0.10033  0.20065  0.70019  Biso   1.000  O
  C389     1.0000 0.15662  0.31323  0.81363  Biso   1.000  C
  C390     1.0000 0.11866  0.23731  0.73793  Biso   1.000  C
  C391     1.0000 0.07976  0.15951  0.73613  Biso   1.000  C
  C392     1.0000 0.06052  0.12103  0.69133  Biso   1.000  C
  H269     1.0000 0.04717  0.09433  0.71523  Biso   1.000  H
  O90      1.0000 0.76699  0.53399  0.03353  Biso   1.000  O
  C393     1.0000 0.82328  0.64657  0.14697  Biso   1.000  C
  C394     1.0000 0.78532  0.57065  0.07127  Biso   1.000  C
  C395     1.0000 0.74642  0.49285  0.06947  Biso   1.000  C
  C396     1.0000 0.72718  0.45437  0.02467  Biso   1.000  C
  H270     1.0000 0.71383  0.42767  0.04857  Biso   1.000  H
