data_image0
_cell_length_a       35.7855
_cell_length_b       35.7855
_cell_length_c       15.058
_cell_angle_alpha    90
_cell_angle_beta     90
_cell_angle_gamma    120

_symmetry_space_group_name_H-M    "P 1"
_symmetry_int_tables_number       1

loop_
  _symmetry_equiv_pos_as_xyz
  'x, y, z'

loop_
  _atom_site_label
  _atom_site_occupancy
  _atom_site_fract_x
  _atom_site_fract_y
  _atom_site_fract_z
  _atom_site_thermal_displace_type
  _atom_site_B_iso_or_equiv
  _atom_site_type_symbol
  O1       1.0000 0.55760  0.03835  0.08230  Biso   1.000  O
  O2       1.0000 0.56413  0.05067  0.93190  Biso   1.000  O
  C1       1.0000 0.57810  0.05669  0.00890  Biso   1.000  C
  C2       1.0000 0.62501  0.08910  0.02360  Biso   1.000  C
  C3       1.0000 0.65110  0.11000  0.95670  Biso   1.000  C
  H1       1.0000 0.64010  0.10540  0.89920  Biso   1.000  H
  C4       1.0000 0.69520  0.13910  0.97090  Biso   1.000  C
  H2       1.0000 0.71250  0.15420  0.92290  Biso   1.000  H
  C5       1.0000 0.71259  0.14554  0.05090  Biso   1.000  C
  C6       1.0000 0.68550  0.12710  0.12240  Biso   1.000  C
  H3       1.0000 0.69660  0.13380  0.17970  Biso   1.000  H
  C7       1.0000 0.64090  0.09790  0.10980  Biso   1.000  C
  H4       1.0000 0.62260  0.08500  0.15800  Biso   1.000  H
  C8       1.0000 0.76010  0.17251  0.06940  Biso   1.000  C
  C9       1.0000 0.77976  0.15412  0.11870  Biso   1.000  C
  H5       1.0000 0.76340  0.12540  0.13570  Biso   1.000  H
  H6       1.0000 0.77120  0.27260  0.09480  Biso   1.000  H
  H7       1.0000 0.70250  0.25370  0.97490  Biso   1.000  H
  O3       1.0000 0.22427  0.37168  0.41563  Biso   1.000  O
  O4       1.0000 0.23080  0.38400  0.26523  Biso   1.000  O
  C10      1.0000 0.24477  0.39002  0.34223  Biso   1.000  C
  C11      1.0000 0.29168  0.42243  0.35693  Biso   1.000  C
  C12      1.0000 0.31777  0.44333  0.29003  Biso   1.000  C
  H8       1.0000 0.30677  0.43873  0.23253  Biso   1.000  H
  C13      1.0000 0.36187  0.47243  0.30423  Biso   1.000  C
  H9       1.0000 0.37917  0.48753  0.25623  Biso   1.000  H
  C14      1.0000 0.37926  0.47887  0.38423  Biso   1.000  C
  C15      1.0000 0.35217  0.46043  0.45573  Biso   1.000  C
  H10      1.0000 0.36327  0.46713  0.51303  Biso   1.000  H
  C16      1.0000 0.30757  0.43123  0.44313  Biso   1.000  C
  H11      1.0000 0.28927  0.41833  0.49133  Biso   1.000  H
  C17      1.0000 0.42677  0.50584  0.40273  Biso   1.000  C
  C18      1.0000 0.44643  0.48745  0.45203  Biso   1.000  C
  H12      1.0000 0.43007  0.45873  0.46903  Biso   1.000  H
  H13      1.0000 0.43787  0.60593  0.42813  Biso   1.000  H
  H14      1.0000 0.36917  0.58703  0.30823  Biso   1.000  H
  O5       1.0000 0.89093  0.70502  0.74897  Biso   1.000  O
  O6       1.0000 0.89746  0.71734  0.59857  Biso   1.000  O
  C19      1.0000 0.91143  0.72336  0.67557  Biso   1.000  C
  C20      1.0000 0.95834  0.75577  0.69027  Biso   1.000  C
  C21      1.0000 0.98443  0.77667  0.62337  Biso   1.000  C
  H15      1.0000 0.97343  0.77207  0.56587  Biso   1.000  H
  C22      1.0000 0.02853  0.80577  0.63757  Biso   1.000  C
  H16      1.0000 0.04583  0.82087  0.58957  Biso   1.000  H
  C23      1.0000 0.04592  0.81221  0.71757  Biso   1.000  C
  C24      1.0000 0.01883  0.79377  0.78907  Biso   1.000  C
  H17      1.0000 0.02993  0.80047  0.84637  Biso   1.000  H
  C25      1.0000 0.97423  0.76457  0.77647  Biso   1.000  C
  H18      1.0000 0.95593  0.75167  0.82467  Biso   1.000  H
  C26      1.0000 0.09343  0.83918  0.73607  Biso   1.000  C
  C27      1.0000 0.11309  0.82079  0.78537  Biso   1.000  C
  H19      1.0000 0.09673  0.79207  0.80237  Biso   1.000  H
  H20      1.0000 0.10453  0.93927  0.76147  Biso   1.000  H
  H21      1.0000 0.03583  0.92037  0.64157  Biso   1.000  H
  O7       1.0000 0.96165  0.51925  0.08230  Biso   1.000  O
  O8       1.0000 0.94933  0.51346  0.93190  Biso   1.000  O
  C28      1.0000 0.94331  0.52141  0.00890  Biso   1.000  C
  C29      1.0000 0.91090  0.53591  0.02360  Biso   1.000  C
  C30      1.0000 0.89000  0.54110  0.95670  Biso   1.000  C
  H22      1.0000 0.89460  0.53470  0.89920  Biso   1.000  H
  C31      1.0000 0.86090  0.55610  0.97090  Biso   1.000  C
  H23      1.0000 0.84580  0.55830  0.92290  Biso   1.000  H
  C32      1.0000 0.85446  0.56705  0.05090  Biso   1.000  C
  C33      1.0000 0.87290  0.55840  0.12240  Biso   1.000  C
  H24      1.0000 0.86620  0.56280  0.17970  Biso   1.000  H
  C34      1.0000 0.90210  0.54300  0.10980  Biso   1.000  C
  H25      1.0000 0.91500  0.53760  0.15800  Biso   1.000  H
  C35      1.0000 0.82749  0.58759  0.06940  Biso   1.000  C
  C36      1.0000 0.84588  0.62564  0.11870  Biso   1.000  C
  H26      1.0000 0.87460  0.63800  0.13570  Biso   1.000  H
  H27      1.0000 0.72740  0.49860  0.09480  Biso   1.000  H
  H28      1.0000 0.74630  0.44880  0.97490  Biso   1.000  H
  O9       1.0000 0.62832  0.85258  0.41563  Biso   1.000  O
  O10      1.0000 0.61600  0.84679  0.26523  Biso   1.000  O
  C37      1.0000 0.60998  0.85474  0.34223  Biso   1.000  C
  C38      1.0000 0.57757  0.86924  0.35693  Biso   1.000  C
  C39      1.0000 0.55667  0.87443  0.29003  Biso   1.000  C
  H29      1.0000 0.56127  0.86803  0.23253  Biso   1.000  H
  C40      1.0000 0.52757  0.88943  0.30423  Biso   1.000  C
  H30      1.0000 0.51247  0.89163  0.25623  Biso   1.000  H
  C41      1.0000 0.52113  0.90038  0.38423  Biso   1.000  C
  C42      1.0000 0.53957  0.89173  0.45573  Biso   1.000  C
  H31      1.0000 0.53287  0.89613  0.51303  Biso   1.000  H
  C43      1.0000 0.56877  0.87633  0.44313  Biso   1.000  C
  H32      1.0000 0.58167  0.87093  0.49133  Biso   1.000  H
  C44      1.0000 0.49416  0.92092  0.40273  Biso   1.000  C
  C45      1.0000 0.51255  0.95897  0.45203  Biso   1.000  C
  H33      1.0000 0.54127  0.97133  0.46903  Biso   1.000  H
  H34      1.0000 0.39407  0.83193  0.42813  Biso   1.000  H
  H35      1.0000 0.41297  0.78213  0.30823  Biso   1.000  H
  O11      1.0000 0.29498  0.18592  0.74897  Biso   1.000  O
  O12      1.0000 0.28266  0.18013  0.59857  Biso   1.000  O
  C46      1.0000 0.27664  0.18808  0.67557  Biso   1.000  C
  C47      1.0000 0.24423  0.20258  0.69027  Biso   1.000  C
  C48      1.0000 0.22333  0.20777  0.62337  Biso   1.000  C
  H36      1.0000 0.22793  0.20137  0.56587  Biso   1.000  H
  C49      1.0000 0.19423  0.22277  0.63757  Biso   1.000  C
  H37      1.0000 0.17913  0.22497  0.58957  Biso   1.000  H
  C50      1.0000 0.18779  0.23372  0.71757  Biso   1.000  C
  C51      1.0000 0.20623  0.22507  0.78907  Biso   1.000  C
  H38      1.0000 0.19953  0.22947  0.84637  Biso   1.000  H
  C52      1.0000 0.23543  0.20967  0.77647  Biso   1.000  C
  H39      1.0000 0.24833  0.20427  0.82467  Biso   1.000  H
  C53      1.0000 0.16082  0.25426  0.73607  Biso   1.000  C
  C54      1.0000 0.17921  0.29231  0.78537  Biso   1.000  C
  H40      1.0000 0.20793  0.30467  0.80237  Biso   1.000  H
  H41      1.0000 0.06073  0.16527  0.76147  Biso   1.000  H
  H42      1.0000 0.07963  0.11547  0.64157  Biso   1.000  H
  O13      1.0000 0.48075  0.44240  0.08230  Biso   1.000  O
  O14      1.0000 0.48654  0.43587  0.93190  Biso   1.000  O
  C55      1.0000 0.47859  0.42190  0.00890  Biso   1.000  C
  C56      1.0000 0.46409  0.37499  0.02360  Biso   1.000  C
  C57      1.0000 0.45890  0.34890  0.95670  Biso   1.000  C
  H43      1.0000 0.46530  0.35990  0.89920  Biso   1.000  H
  C58      1.0000 0.44390  0.30480  0.97090  Biso   1.000  C
  H44      1.0000 0.44170  0.28750  0.92290  Biso   1.000  H
  C59      1.0000 0.43295  0.28741  0.05090  Biso   1.000  C
  C60      1.0000 0.44160  0.31450  0.12240  Biso   1.000  C
  H45      1.0000 0.43720  0.30340  0.17970  Biso   1.000  H
  C61      1.0000 0.45700  0.35910  0.10980  Biso   1.000  C
  H46      1.0000 0.46240  0.37740  0.15800  Biso   1.000  H
  C62      1.0000 0.41241  0.23990  0.06940  Biso   1.000  C
  C63      1.0000 0.37436  0.22024  0.11870  Biso   1.000  C
  H47      1.0000 0.36200  0.23660  0.13570  Biso   1.000  H
  H48      1.0000 0.50140  0.22880  0.09480  Biso   1.000  H
  H49      1.0000 0.55120  0.29750  0.97490  Biso   1.000  H
  O15      1.0000 0.14742  0.77573  0.41563  Biso   1.000  O
  O16      1.0000 0.15321  0.76920  0.26523  Biso   1.000  O
  C64      1.0000 0.14526  0.75523  0.34223  Biso   1.000  C
  C65      1.0000 0.13076  0.70832  0.35693  Biso   1.000  C
  C66      1.0000 0.12557  0.68223  0.29003  Biso   1.000  C
  H50      1.0000 0.13197  0.69323  0.23253  Biso   1.000  H
  C67      1.0000 0.11057  0.63813  0.30423  Biso   1.000  C
  H51      1.0000 0.10837  0.62083  0.25623  Biso   1.000  H
  C68      1.0000 0.09962  0.62074  0.38423  Biso   1.000  C
  C69      1.0000 0.10827  0.64783  0.45573  Biso   1.000  C
  H52      1.0000 0.10387  0.63673  0.51303  Biso   1.000  H
  C70      1.0000 0.12367  0.69243  0.44313  Biso   1.000  C
  H53      1.0000 0.12907  0.71073  0.49133  Biso   1.000  H
  C71      1.0000 0.07908  0.57323  0.40273  Biso   1.000  C
  C72      1.0000 0.04103  0.55357  0.45203  Biso   1.000  C
  H54      1.0000 0.02867  0.56993  0.46903  Biso   1.000  H
  H55      1.0000 0.16807  0.56213  0.42813  Biso   1.000  H
  H56      1.0000 0.21787  0.63083  0.30823  Biso   1.000  H
  O17      1.0000 0.81408  0.10907  0.74897  Biso   1.000  O
  O18      1.0000 0.81987  0.10254  0.59857  Biso   1.000  O
  C73      1.0000 0.81192  0.08857  0.67557  Biso   1.000  C
  C74      1.0000 0.79742  0.04166  0.69027  Biso   1.000  C
  C75      1.0000 0.79223  0.01557  0.62337  Biso   1.000  C
  H57      1.0000 0.79863  0.02657  0.56587  Biso   1.000  H
  C76      1.0000 0.77723  0.97147  0.63757  Biso   1.000  C
  H58      1.0000 0.77503  0.95417  0.58957  Biso   1.000  H
  C77      1.0000 0.76628  0.95408  0.71757  Biso   1.000  C
  C78      1.0000 0.77493  0.98117  0.78907  Biso   1.000  C
  H59      1.0000 0.77053  0.97007  0.84637  Biso   1.000  H
  C79      1.0000 0.79033  0.02577  0.77647  Biso   1.000  C
  H60      1.0000 0.79573  0.04407  0.82467  Biso   1.000  H
  C80      1.0000 0.74574  0.90657  0.73607  Biso   1.000  C
  C81      1.0000 0.70769  0.88691  0.78537  Biso   1.000  C
  H61      1.0000 0.69533  0.90327  0.80237  Biso   1.000  H
  H62      1.0000 0.83473  0.89547  0.76147  Biso   1.000  H
  H63      1.0000 0.88453  0.96417  0.64157  Biso   1.000  H
  O19      1.0000 0.03835  0.55760  0.91770  Biso   1.000  O
  O20      1.0000 0.05067  0.56413  0.06810  Biso   1.000  O
  C82      1.0000 0.05669  0.57810  0.99110  Biso   1.000  C
  C83      1.0000 0.08910  0.62501  0.97640  Biso   1.000  C
  C84      1.0000 0.11000  0.65110  0.04330  Biso   1.000  C
  H64      1.0000 0.10540  0.64010  0.10080  Biso   1.000  H
  C85      1.0000 0.13910  0.69520  0.02910  Biso   1.000  C
  H65      1.0000 0.15420  0.71250  0.07710  Biso   1.000  H
  C86      1.0000 0.14554  0.71259  0.94910  Biso   1.000  C
  C87      1.0000 0.12710  0.68550  0.87760  Biso   1.000  C
  H66      1.0000 0.13380  0.69660  0.82030  Biso   1.000  H
  C88      1.0000 0.09790  0.64090  0.89020  Biso   1.000  C
  H67      1.0000 0.08500  0.62260  0.84200  Biso   1.000  H
  C89      1.0000 0.17251  0.76010  0.93060  Biso   1.000  C
  C90      1.0000 0.15412  0.77976  0.88130  Biso   1.000  C
  H68      1.0000 0.12540  0.76340  0.86430  Biso   1.000  H
  H69      1.0000 0.27260  0.77120  0.90520  Biso   1.000  H
  H70      1.0000 0.25370  0.70250  0.02510  Biso   1.000  H
  O21      1.0000 0.70502  0.89093  0.25103  Biso   1.000  O
  O22      1.0000 0.71734  0.89746  0.40143  Biso   1.000  O
  C91      1.0000 0.72336  0.91143  0.32443  Biso   1.000  C
  C92      1.0000 0.75577  0.95834  0.30973  Biso   1.000  C
  C93      1.0000 0.77667  0.98443  0.37663  Biso   1.000  C
  H71      1.0000 0.77207  0.97343  0.43413  Biso   1.000  H
  C94      1.0000 0.80577  0.02853  0.36243  Biso   1.000  C
  H72      1.0000 0.82087  0.04583  0.41043  Biso   1.000  H
  C95      1.0000 0.81221  0.04592  0.28243  Biso   1.000  C
  C96      1.0000 0.79377  0.01883  0.21093  Biso   1.000  C
  H73      1.0000 0.80047  0.02993  0.15363  Biso   1.000  H
  C97      1.0000 0.76457  0.97423  0.22353  Biso   1.000  C
  H74      1.0000 0.75167  0.95593  0.17533  Biso   1.000  H
  C98      1.0000 0.83918  0.09343  0.26393  Biso   1.000  C
  C99      1.0000 0.82079  0.11309  0.21463  Biso   1.000  C
  H75      1.0000 0.79207  0.09673  0.19763  Biso   1.000  H
  H76      1.0000 0.93927  0.10453  0.23853  Biso   1.000  H
  H77      1.0000 0.92037  0.03583  0.35843  Biso   1.000  H
  O23      1.0000 0.37168  0.22427  0.58437  Biso   1.000  O
  O24      1.0000 0.38400  0.23080  0.73477  Biso   1.000  O
  C100     1.0000 0.39002  0.24477  0.65777  Biso   1.000  C
  C101     1.0000 0.42243  0.29168  0.64307  Biso   1.000  C
  C102     1.0000 0.44333  0.31777  0.70997  Biso   1.000  C
  H78      1.0000 0.43873  0.30677  0.76747  Biso   1.000  H
  C103     1.0000 0.47243  0.36187  0.69577  Biso   1.000  C
  H79      1.0000 0.48753  0.37917  0.74377  Biso   1.000  H
  C104     1.0000 0.47887  0.37926  0.61577  Biso   1.000  C
  C105     1.0000 0.46043  0.35217  0.54427  Biso   1.000  C
  H80      1.0000 0.46713  0.36327  0.48697  Biso   1.000  H
  C106     1.0000 0.43123  0.30757  0.55687  Biso   1.000  C
  H81      1.0000 0.41833  0.28927  0.50867  Biso   1.000  H
  C107     1.0000 0.50584  0.42677  0.59727  Biso   1.000  C
  C108     1.0000 0.48745  0.44643  0.54797  Biso   1.000  C
  H82      1.0000 0.45873  0.43007  0.53097  Biso   1.000  H
  H83      1.0000 0.60593  0.43787  0.57187  Biso   1.000  H
  H84      1.0000 0.58703  0.36917  0.69177  Biso   1.000  H
  O25      1.0000 0.51925  0.96165  0.91770  Biso   1.000  O
  O26      1.0000 0.51346  0.94933  0.06810  Biso   1.000  O
  C109     1.0000 0.52141  0.94331  0.99110  Biso   1.000  C
  C110     1.0000 0.53591  0.91090  0.97640  Biso   1.000  C
  C111     1.0000 0.54110  0.89000  0.04330  Biso   1.000  C
  H85      1.0000 0.53470  0.89460  0.10080  Biso   1.000  H
  C112     1.0000 0.55610  0.86090  0.02910  Biso   1.000  C
  H86      1.0000 0.55830  0.84580  0.07710  Biso   1.000  H
  C113     1.0000 0.56705  0.85446  0.94910  Biso   1.000  C
  C114     1.0000 0.55840  0.87290  0.87760  Biso   1.000  C
  H87      1.0000 0.56280  0.86620  0.82030  Biso   1.000  H
  C115     1.0000 0.54300  0.90210  0.89020  Biso   1.000  C
  H88      1.0000 0.53760  0.91500  0.84200  Biso   1.000  H
  C116     1.0000 0.58759  0.82749  0.93060  Biso   1.000  C
  C117     1.0000 0.62564  0.84588  0.88130  Biso   1.000  C
  H89      1.0000 0.63800  0.87460  0.86430  Biso   1.000  H
  H90      1.0000 0.49860  0.72740  0.90520  Biso   1.000  H
  H91      1.0000 0.44880  0.74630  0.02510  Biso   1.000  H
  O27      1.0000 0.18592  0.29498  0.25103  Biso   1.000  O
  O28      1.0000 0.18013  0.28266  0.40143  Biso   1.000  O
  C118     1.0000 0.18808  0.27664  0.32443  Biso   1.000  C
  C119     1.0000 0.20258  0.24423  0.30973  Biso   1.000  C
  C120     1.0000 0.20777  0.22333  0.37663  Biso   1.000  C
  H92      1.0000 0.20137  0.22793  0.43413  Biso   1.000  H
  C121     1.0000 0.22277  0.19423  0.36243  Biso   1.000  C
  H93      1.0000 0.22497  0.17913  0.41043  Biso   1.000  H
  C122     1.0000 0.23372  0.18779  0.28243  Biso   1.000  C
  C123     1.0000 0.22507  0.20623  0.21093  Biso   1.000  C
  H94      1.0000 0.22947  0.19953  0.15363  Biso   1.000  H
  C124     1.0000 0.20967  0.23543  0.22353  Biso   1.000  C
  H95      1.0000 0.20427  0.24833  0.17533  Biso   1.000  H
  C125     1.0000 0.25426  0.16082  0.26393  Biso   1.000  C
  C126     1.0000 0.29231  0.17921  0.21463  Biso   1.000  C
  H96      1.0000 0.30467  0.20793  0.19763  Biso   1.000  H
  H97      1.0000 0.16527  0.06073  0.23853  Biso   1.000  H
  H98      1.0000 0.11547  0.07963  0.35843  Biso   1.000  H
  O29      1.0000 0.85258  0.62832  0.58437  Biso   1.000  O
  O30      1.0000 0.84679  0.61600  0.73477  Biso   1.000  O
  C127     1.0000 0.85474  0.60998  0.65777  Biso   1.000  C
  C128     1.0000 0.86924  0.57757  0.64307  Biso   1.000  C
  C129     1.0000 0.87443  0.55667  0.70997  Biso   1.000  C
  H99      1.0000 0.86803  0.56127  0.76747  Biso   1.000  H
  C130     1.0000 0.88943  0.52757  0.69577  Biso   1.000  C
  H100     1.0000 0.89163  0.51247  0.74377  Biso   1.000  H
  C131     1.0000 0.90038  0.52113  0.61577  Biso   1.000  C
  C132     1.0000 0.89173  0.53957  0.54427  Biso   1.000  C
  H101     1.0000 0.89613  0.53287  0.48697  Biso   1.000  H
  C133     1.0000 0.87633  0.56877  0.55687  Biso   1.000  C
  H102     1.0000 0.87093  0.58167  0.50867  Biso   1.000  H
  C134     1.0000 0.92092  0.49416  0.59727  Biso   1.000  C
  C135     1.0000 0.95897  0.51255  0.54797  Biso   1.000  C
  H103     1.0000 0.97133  0.54127  0.53097  Biso   1.000  H
  H104     1.0000 0.83193  0.39407  0.57187  Biso   1.000  H
  H105     1.0000 0.78213  0.41297  0.69177  Biso   1.000  H
  O31      1.0000 0.44240  0.48075  0.91770  Biso   1.000  O
  O32      1.0000 0.43587  0.48654  0.06810  Biso   1.000  O
  C136     1.0000 0.42190  0.47859  0.99110  Biso   1.000  C
  C137     1.0000 0.37499  0.46409  0.97640  Biso   1.000  C
  C138     1.0000 0.34890  0.45890  0.04330  Biso   1.000  C
  H106     1.0000 0.35990  0.46530  0.10080  Biso   1.000  H
  C139     1.0000 0.30480  0.44390  0.02910  Biso   1.000  C
  H107     1.0000 0.28750  0.44170  0.07710  Biso   1.000  H
  C140     1.0000 0.28741  0.43295  0.94910  Biso   1.000  C
  C141     1.0000 0.31450  0.44160  0.87760  Biso   1.000  C
  H108     1.0000 0.30340  0.43720  0.82030  Biso   1.000  H
  C142     1.0000 0.35910  0.45700  0.89020  Biso   1.000  C
  H109     1.0000 0.37740  0.46240  0.84200  Biso   1.000  H
  C143     1.0000 0.23990  0.41241  0.93060  Biso   1.000  C
  C144     1.0000 0.22024  0.37436  0.88130  Biso   1.000  C
  H110     1.0000 0.23660  0.36200  0.86430  Biso   1.000  H
  H111     1.0000 0.22880  0.50140  0.90520  Biso   1.000  H
  H112     1.0000 0.29750  0.55120  0.02510  Biso   1.000  H
  O33      1.0000 0.10907  0.81408  0.25103  Biso   1.000  O
  O34      1.0000 0.10254  0.81987  0.40143  Biso   1.000  O
  C145     1.0000 0.08857  0.81192  0.32443  Biso   1.000  C
  C146     1.0000 0.04166  0.79742  0.30973  Biso   1.000  C
  C147     1.0000 0.01557  0.79223  0.37663  Biso   1.000  C
  H113     1.0000 0.02657  0.79863  0.43413  Biso   1.000  H
  C148     1.0000 0.97147  0.77723  0.36243  Biso   1.000  C
  H114     1.0000 0.95417  0.77503  0.41043  Biso   1.000  H
  C149     1.0000 0.95408  0.76628  0.28243  Biso   1.000  C
  C150     1.0000 0.98117  0.77493  0.21093  Biso   1.000  C
  H115     1.0000 0.97007  0.77053  0.15363  Biso   1.000  H
  C151     1.0000 0.02577  0.79033  0.22353  Biso   1.000  C
  H116     1.0000 0.04407  0.79573  0.17533  Biso   1.000  H
  C152     1.0000 0.90657  0.74574  0.26393  Biso   1.000  C
  C153     1.0000 0.88691  0.70769  0.21463  Biso   1.000  C
  H117     1.0000 0.90327  0.69533  0.19763  Biso   1.000  H
  H118     1.0000 0.89547  0.83473  0.23853  Biso   1.000  H
  H119     1.0000 0.96417  0.88453  0.35843  Biso   1.000  H
  O35      1.0000 0.77573  0.14742  0.58437  Biso   1.000  O
  O36      1.0000 0.76920  0.15321  0.73477  Biso   1.000  O
  C154     1.0000 0.75523  0.14526  0.65777  Biso   1.000  C
  C155     1.0000 0.70832  0.13076  0.64307  Biso   1.000  C
  C156     1.0000 0.68223  0.12557  0.70997  Biso   1.000  C
  H120     1.0000 0.69323  0.13197  0.76747  Biso   1.000  H
  C157     1.0000 0.63813  0.11057  0.69577  Biso   1.000  C
  H121     1.0000 0.62083  0.10837  0.74377  Biso   1.000  H
  C158     1.0000 0.62074  0.09962  0.61577  Biso   1.000  C
  C159     1.0000 0.64783  0.10827  0.54427  Biso   1.000  C
  H122     1.0000 0.63673  0.10387  0.48697  Biso   1.000  H
  C160     1.0000 0.69243  0.12367  0.55687  Biso   1.000  C
  H123     1.0000 0.71073  0.12907  0.50867  Biso   1.000  H
  C161     1.0000 0.57323  0.07908  0.59727  Biso   1.000  C
  C162     1.0000 0.55357  0.04103  0.54797  Biso   1.000  C
  H124     1.0000 0.56993  0.02867  0.53097  Biso   1.000  H
  H125     1.0000 0.56213  0.16807  0.57187  Biso   1.000  H
  H126     1.0000 0.63083  0.21787  0.69177  Biso   1.000  H
  O37      1.0000 0.44240  0.96165  0.91770  Biso   1.000  O
  O38      1.0000 0.43587  0.94933  0.06810  Biso   1.000  O
  C163     1.0000 0.42190  0.94331  0.99110  Biso   1.000  C
  C164     1.0000 0.37499  0.91090  0.97640  Biso   1.000  C
  C165     1.0000 0.34890  0.89000  0.04330  Biso   1.000  C
  H127     1.0000 0.35990  0.89460  0.10080  Biso   1.000  H
  C166     1.0000 0.30480  0.86090  0.02910  Biso   1.000  C
  H128     1.0000 0.28750  0.84580  0.07710  Biso   1.000  H
  C167     1.0000 0.28741  0.85446  0.94910  Biso   1.000  C
  C168     1.0000 0.31450  0.87290  0.87760  Biso   1.000  C
  H129     1.0000 0.30340  0.86620  0.82030  Biso   1.000  H
  C169     1.0000 0.35910  0.90210  0.89020  Biso   1.000  C
  H130     1.0000 0.37740  0.91500  0.84200  Biso   1.000  H
  C170     1.0000 0.23990  0.82749  0.93060  Biso   1.000  C
  C171     1.0000 0.22024  0.84588  0.88130  Biso   1.000  C
  H131     1.0000 0.23660  0.87460  0.86430  Biso   1.000  H
  H132     1.0000 0.22880  0.72740  0.90520  Biso   1.000  H
  H133     1.0000 0.29750  0.74630  0.02510  Biso   1.000  H
  O39      1.0000 0.10907  0.29498  0.25103  Biso   1.000  O
  O40      1.0000 0.10254  0.28266  0.40143  Biso   1.000  O
  C172     1.0000 0.08857  0.27664  0.32443  Biso   1.000  C
  C173     1.0000 0.04166  0.24423  0.30973  Biso   1.000  C
  C174     1.0000 0.01557  0.22333  0.37663  Biso   1.000  C
  H134     1.0000 0.02657  0.22793  0.43413  Biso   1.000  H
  C175     1.0000 0.97147  0.19423  0.36243  Biso   1.000  C
  H135     1.0000 0.95417  0.17913  0.41043  Biso   1.000  H
  C176     1.0000 0.95408  0.18779  0.28243  Biso   1.000  C
  C177     1.0000 0.98117  0.20623  0.21093  Biso   1.000  C
  H136     1.0000 0.97007  0.19953  0.15363  Biso   1.000  H
  C178     1.0000 0.02577  0.23543  0.22353  Biso   1.000  C
  H137     1.0000 0.04407  0.24833  0.17533  Biso   1.000  H
  C179     1.0000 0.90657  0.16082  0.26393  Biso   1.000  C
  C180     1.0000 0.88691  0.17921  0.21463  Biso   1.000  C
  H138     1.0000 0.90327  0.20793  0.19763  Biso   1.000  H
  H139     1.0000 0.89547  0.06073  0.23853  Biso   1.000  H
  H140     1.0000 0.96417  0.07963  0.35843  Biso   1.000  H
  O41      1.0000 0.77573  0.62832  0.58437  Biso   1.000  O
  O42      1.0000 0.76920  0.61600  0.73477  Biso   1.000  O
  C181     1.0000 0.75523  0.60998  0.65777  Biso   1.000  C
  C182     1.0000 0.70832  0.57757  0.64307  Biso   1.000  C
  C183     1.0000 0.68223  0.55667  0.70997  Biso   1.000  C
  H141     1.0000 0.69323  0.56127  0.76747  Biso   1.000  H
  C184     1.0000 0.63813  0.52757  0.69577  Biso   1.000  C
  H142     1.0000 0.62083  0.51247  0.74377  Biso   1.000  H
  C185     1.0000 0.62074  0.52113  0.61577  Biso   1.000  C
  C186     1.0000 0.64783  0.53957  0.54427  Biso   1.000  C
  H143     1.0000 0.63673  0.53287  0.48697  Biso   1.000  H
  C187     1.0000 0.69243  0.56877  0.55687  Biso   1.000  C
  H144     1.0000 0.71073  0.58167  0.50867  Biso   1.000  H
  C188     1.0000 0.57323  0.49416  0.59727  Biso   1.000  C
  C189     1.0000 0.55357  0.51255  0.54797  Biso   1.000  C
  H145     1.0000 0.56993  0.54127  0.53097  Biso   1.000  H
  H146     1.0000 0.56213  0.39407  0.57187  Biso   1.000  H
  H147     1.0000 0.63083  0.41297  0.69177  Biso   1.000  H
  O43      1.0000 0.03835  0.48075  0.91770  Biso   1.000  O
  O44      1.0000 0.05067  0.48654  0.06810  Biso   1.000  O
  C190     1.0000 0.05669  0.47859  0.99110  Biso   1.000  C
  C191     1.0000 0.08910  0.46409  0.97640  Biso   1.000  C
  C192     1.0000 0.11000  0.45890  0.04330  Biso   1.000  C
  H148     1.0000 0.10540  0.46530  0.10080  Biso   1.000  H
  C193     1.0000 0.13910  0.44390  0.02910  Biso   1.000  C
  H149     1.0000 0.15420  0.44170  0.07710  Biso   1.000  H
  C194     1.0000 0.14554  0.43295  0.94910  Biso   1.000  C
  C195     1.0000 0.12710  0.44160  0.87760  Biso   1.000  C
  H150     1.0000 0.13380  0.43720  0.82030  Biso   1.000  H
  C196     1.0000 0.09790  0.45700  0.89020  Biso   1.000  C
  H151     1.0000 0.08500  0.46240  0.84200  Biso   1.000  H
  C197     1.0000 0.17251  0.41241  0.93060  Biso   1.000  C
  C198     1.0000 0.15412  0.37436  0.88130  Biso   1.000  C
  H152     1.0000 0.12540  0.36200  0.86430  Biso   1.000  H
  H153     1.0000 0.27260  0.50140  0.90520  Biso   1.000  H
  H154     1.0000 0.25370  0.55120  0.02510  Biso   1.000  H
  O45      1.0000 0.70502  0.81408  0.25103  Biso   1.000  O
  O46      1.0000 0.71734  0.81987  0.40143  Biso   1.000  O
  C199     1.0000 0.72336  0.81192  0.32443  Biso   1.000  C
  C200     1.0000 0.75577  0.79742  0.30973  Biso   1.000  C
  C201     1.0000 0.77667  0.79223  0.37663  Biso   1.000  C
  H155     1.0000 0.77207  0.79863  0.43413  Biso   1.000  H
  C202     1.0000 0.80577  0.77723  0.36243  Biso   1.000  C
  H156     1.0000 0.82087  0.77503  0.41043  Biso   1.000  H
  C203     1.0000 0.81221  0.76628  0.28243  Biso   1.000  C
  C204     1.0000 0.79377  0.77493  0.21093  Biso   1.000  C
  H157     1.0000 0.80047  0.77053  0.15363  Biso   1.000  H
  C205     1.0000 0.76457  0.79033  0.22353  Biso   1.000  C
  H158     1.0000 0.75167  0.79573  0.17533  Biso   1.000  H
  C206     1.0000 0.83918  0.74574  0.26393  Biso   1.000  C
  C207     1.0000 0.82079  0.70769  0.21463  Biso   1.000  C
  H159     1.0000 0.79207  0.69533  0.19763  Biso   1.000  H
  H160     1.0000 0.93927  0.83473  0.23853  Biso   1.000  H
  H161     1.0000 0.92037  0.88453  0.35843  Biso   1.000  H
  O47      1.0000 0.37168  0.14742  0.58437  Biso   1.000  O
  O48      1.0000 0.38400  0.15321  0.73477  Biso   1.000  O
  C208     1.0000 0.39002  0.14526  0.65777  Biso   1.000  C
  C209     1.0000 0.42243  0.13076  0.64307  Biso   1.000  C
  C210     1.0000 0.44333  0.12557  0.70997  Biso   1.000  C
  H162     1.0000 0.43873  0.13197  0.76747  Biso   1.000  H
  C211     1.0000 0.47243  0.11057  0.69577  Biso   1.000  C
  H163     1.0000 0.48753  0.10837  0.74377  Biso   1.000  H
  C212     1.0000 0.47887  0.09962  0.61577  Biso   1.000  C
  C213     1.0000 0.46043  0.10827  0.54427  Biso   1.000  C
  H164     1.0000 0.46713  0.10387  0.48697  Biso   1.000  H
  C214     1.0000 0.43123  0.12367  0.55687  Biso   1.000  C
  H165     1.0000 0.41833  0.12907  0.50867  Biso   1.000  H
  C215     1.0000 0.50584  0.07908  0.59727  Biso   1.000  C
  C216     1.0000 0.48745  0.04103  0.54797  Biso   1.000  C
  H166     1.0000 0.45873  0.02867  0.53097  Biso   1.000  H
  H167     1.0000 0.60593  0.16807  0.57187  Biso   1.000  H
  H168     1.0000 0.58703  0.21787  0.69177  Biso   1.000  H
  O49      1.0000 0.51925  0.55760  0.91770  Biso   1.000  O
  O50      1.0000 0.51346  0.56413  0.06810  Biso   1.000  O
  C217     1.0000 0.52141  0.57810  0.99110  Biso   1.000  C
  C218     1.0000 0.53591  0.62501  0.97640  Biso   1.000  C
  C219     1.0000 0.54110  0.65110  0.04330  Biso   1.000  C
  H169     1.0000 0.53470  0.64010  0.10080  Biso   1.000  H
  C220     1.0000 0.55610  0.69520  0.02910  Biso   1.000  C
  H170     1.0000 0.55830  0.71250  0.07710  Biso   1.000  H
  C221     1.0000 0.56705  0.71259  0.94910  Biso   1.000  C
  C222     1.0000 0.55840  0.68550  0.87760  Biso   1.000  C
  H171     1.0000 0.56280  0.69660  0.82030  Biso   1.000  H
  C223     1.0000 0.54300  0.64090  0.89020  Biso   1.000  C
  H172     1.0000 0.53760  0.62260  0.84200  Biso   1.000  H
  C224     1.0000 0.58759  0.76010  0.93060  Biso   1.000  C
  C225     1.0000 0.62564  0.77976  0.88130  Biso   1.000  C
  H173     1.0000 0.63800  0.76340  0.86430  Biso   1.000  H
  H174     1.0000 0.49860  0.77120  0.90520  Biso   1.000  H
  H175     1.0000 0.44880  0.70250  0.02510  Biso   1.000  H
  O51      1.0000 0.18592  0.89093  0.25103  Biso   1.000  O
  O52      1.0000 0.18013  0.89746  0.40143  Biso   1.000  O
  C226     1.0000 0.18808  0.91143  0.32443  Biso   1.000  C
  C227     1.0000 0.20258  0.95834  0.30973  Biso   1.000  C
  C228     1.0000 0.20777  0.98443  0.37663  Biso   1.000  C
  H176     1.0000 0.20137  0.97343  0.43413  Biso   1.000  H
  C229     1.0000 0.22277  0.02853  0.36243  Biso   1.000  C
  H177     1.0000 0.22497  0.04583  0.41043  Biso   1.000  H
  C230     1.0000 0.23372  0.04592  0.28243  Biso   1.000  C
  C231     1.0000 0.22507  0.01883  0.21093  Biso   1.000  C
  H178     1.0000 0.22947  0.02993  0.15363  Biso   1.000  H
  C232     1.0000 0.20967  0.97423  0.22353  Biso   1.000  C
  H179     1.0000 0.20427  0.95593  0.17533  Biso   1.000  H
  C233     1.0000 0.25426  0.09343  0.26393  Biso   1.000  C
  C234     1.0000 0.29231  0.11309  0.21463  Biso   1.000  C
  H180     1.0000 0.30467  0.09673  0.19763  Biso   1.000  H
  H181     1.0000 0.16527  0.10453  0.23853  Biso   1.000  H
  H182     1.0000 0.11547  0.03583  0.35843  Biso   1.000  H
  O53      1.0000 0.85258  0.22427  0.58437  Biso   1.000  O
  O54      1.0000 0.84679  0.23080  0.73477  Biso   1.000  O
  C235     1.0000 0.85474  0.24477  0.65777  Biso   1.000  C
  C236     1.0000 0.86924  0.29168  0.64307  Biso   1.000  C
  C237     1.0000 0.87443  0.31777  0.70997  Biso   1.000  C
  H183     1.0000 0.86803  0.30677  0.76747  Biso   1.000  H
  C238     1.0000 0.88943  0.36187  0.69577  Biso   1.000  C
  H184     1.0000 0.89163  0.37917  0.74377  Biso   1.000  H
  C239     1.0000 0.90038  0.37926  0.61577  Biso   1.000  C
  C240     1.0000 0.89173  0.35217  0.54427  Biso   1.000  C
  H185     1.0000 0.89613  0.36327  0.48697  Biso   1.000  H
  C241     1.0000 0.87633  0.30757  0.55687  Biso   1.000  C
  H186     1.0000 0.87093  0.28927  0.50867  Biso   1.000  H
  C242     1.0000 0.92092  0.42677  0.59727  Biso   1.000  C
  C243     1.0000 0.95897  0.44643  0.54797  Biso   1.000  C
  H187     1.0000 0.97133  0.43007  0.53097  Biso   1.000  H
  H188     1.0000 0.83193  0.43787  0.57187  Biso   1.000  H
  H189     1.0000 0.78213  0.36917  0.69177  Biso   1.000  H
  O55      1.0000 0.96165  0.44240  0.08230  Biso   1.000  O
  O56      1.0000 0.94933  0.43587  0.93190  Biso   1.000  O
  C244     1.0000 0.94331  0.42190  0.00890  Biso   1.000  C
  C245     1.0000 0.91090  0.37499  0.02360  Biso   1.000  C
  C246     1.0000 0.89000  0.34890  0.95670  Biso   1.000  C
  H190     1.0000 0.89460  0.35990  0.89920  Biso   1.000  H
  C247     1.0000 0.86090  0.30480  0.97090  Biso   1.000  C
  H191     1.0000 0.84580  0.28750  0.92290  Biso   1.000  H
  C248     1.0000 0.85446  0.28741  0.05090  Biso   1.000  C
  C249     1.0000 0.87290  0.31450  0.12240  Biso   1.000  C
  H192     1.0000 0.86620  0.30340  0.17970  Biso   1.000  H
  C250     1.0000 0.90210  0.35910  0.10980  Biso   1.000  C
  H193     1.0000 0.91500  0.37740  0.15800  Biso   1.000  H
  C251     1.0000 0.82749  0.23990  0.06940  Biso   1.000  C
  C252     1.0000 0.84588  0.22024  0.11870  Biso   1.000  C
  H194     1.0000 0.87460  0.23660  0.13570  Biso   1.000  H
  H195     1.0000 0.72740  0.22880  0.09480  Biso   1.000  H
  H196     1.0000 0.74630  0.29750  0.97490  Biso   1.000  H
  O57      1.0000 0.62832  0.77573  0.41563  Biso   1.000  O
  O58      1.0000 0.61600  0.76920  0.26523  Biso   1.000  O
  C253     1.0000 0.60998  0.75523  0.34223  Biso   1.000  C
  C254     1.0000 0.57757  0.70832  0.35693  Biso   1.000  C
  C255     1.0000 0.55667  0.68223  0.29003  Biso   1.000  C
  H197     1.0000 0.56127  0.69323  0.23253  Biso   1.000  H
  C256     1.0000 0.52757  0.63813  0.30423  Biso   1.000  C
  H198     1.0000 0.51247  0.62083  0.25623  Biso   1.000  H
  C257     1.0000 0.52113  0.62074  0.38423  Biso   1.000  C
  C258     1.0000 0.53957  0.64783  0.45573  Biso   1.000  C
  H199     1.0000 0.53287  0.63673  0.51303  Biso   1.000  H
  C259     1.0000 0.56877  0.69243  0.44313  Biso   1.000  C
  H200     1.0000 0.58167  0.71073  0.49133  Biso   1.000  H
  C260     1.0000 0.49416  0.57323  0.40273  Biso   1.000  C
  C261     1.0000 0.51255  0.55357  0.45203  Biso   1.000  C
  H201     1.0000 0.54127  0.56993  0.46903  Biso   1.000  H
  H202     1.0000 0.39407  0.56213  0.42813  Biso   1.000  H
  H203     1.0000 0.41297  0.63083  0.30823  Biso   1.000  H
  O59      1.0000 0.29498  0.10907  0.74897  Biso   1.000  O
  O60      1.0000 0.28266  0.10254  0.59857  Biso   1.000  O
  C262     1.0000 0.27664  0.08857  0.67557  Biso   1.000  C
  C263     1.0000 0.24423  0.04166  0.69027  Biso   1.000  C
  C264     1.0000 0.22333  0.01557  0.62337  Biso   1.000  C
  H204     1.0000 0.22793  0.02657  0.56587  Biso   1.000  H
  C265     1.0000 0.19423  0.97147  0.63757  Biso   1.000  C
  H205     1.0000 0.17913  0.95417  0.58957  Biso   1.000  H
  C266     1.0000 0.18779  0.95408  0.71757  Biso   1.000  C
  C267     1.0000 0.20623  0.98117  0.78907  Biso   1.000  C
  H206     1.0000 0.19953  0.97007  0.84637  Biso   1.000  H
  C268     1.0000 0.23543  0.02577  0.77647  Biso   1.000  C
  H207     1.0000 0.24833  0.04407  0.82467  Biso   1.000  H
  C269     1.0000 0.16082  0.90657  0.73607  Biso   1.000  C
  C270     1.0000 0.17921  0.88691  0.78537  Biso   1.000  C
  H208     1.0000 0.20793  0.90327  0.80237  Biso   1.000  H
  H209     1.0000 0.06073  0.89547  0.76147  Biso   1.000  H
  H210     1.0000 0.07963  0.96417  0.64157  Biso   1.000  H
  O61      1.0000 0.48075  0.03835  0.08230  Biso   1.000  O
  O62      1.0000 0.48654  0.05067  0.93190  Biso   1.000  O
  C271     1.0000 0.47859  0.05669  0.00890  Biso   1.000  C
  C272     1.0000 0.46409  0.08910  0.02360  Biso   1.000  C
  C273     1.0000 0.45890  0.11000  0.95670  Biso   1.000  C
  H211     1.0000 0.46530  0.10540  0.89920  Biso   1.000  H
  C274     1.0000 0.44390  0.13910  0.97090  Biso   1.000  C
  H212     1.0000 0.44170  0.15420  0.92290  Biso   1.000  H
  C275     1.0000 0.43295  0.14554  0.05090  Biso   1.000  C
  C276     1.0000 0.44160  0.12710  0.12240  Biso   1.000  C
  H213     1.0000 0.43720  0.13380  0.17970  Biso   1.000  H
  C277     1.0000 0.45700  0.09790  0.10980  Biso   1.000  C
  H214     1.0000 0.46240  0.08500  0.15800  Biso   1.000  H
  C278     1.0000 0.41241  0.17251  0.06940  Biso   1.000  C
  C279     1.0000 0.37436  0.15412  0.11870  Biso   1.000  C
  H215     1.0000 0.36200  0.12540  0.13570  Biso   1.000  H
  H216     1.0000 0.50140  0.27260  0.09480  Biso   1.000  H
  H217     1.0000 0.55120  0.25370  0.97490  Biso   1.000  H
  O63      1.0000 0.14742  0.37168  0.41563  Biso   1.000  O
  O64      1.0000 0.15321  0.38400  0.26523  Biso   1.000  O
  C280     1.0000 0.14526  0.39002  0.34223  Biso   1.000  C
  C281     1.0000 0.13076  0.42243  0.35693  Biso   1.000  C
  C282     1.0000 0.12557  0.44333  0.29003  Biso   1.000  C
  H218     1.0000 0.13197  0.43873  0.23253  Biso   1.000  H
  C283     1.0000 0.11057  0.47243  0.30423  Biso   1.000  C
  H219     1.0000 0.10837  0.48753  0.25623  Biso   1.000  H
  C284     1.0000 0.09962  0.47887  0.38423  Biso   1.000  C
  C285     1.0000 0.10827  0.46043  0.45573  Biso   1.000  C
  H220     1.0000 0.10387  0.46713  0.51303  Biso   1.000  H
  C286     1.0000 0.12367  0.43123  0.44313  Biso   1.000  C
  H221     1.0000 0.12907  0.41833  0.49133  Biso   1.000  H
  C287     1.0000 0.07908  0.50584  0.40273  Biso   1.000  C
  C288     1.0000 0.04103  0.48745  0.45203  Biso   1.000  C
  H222     1.0000 0.02867  0.45873  0.46903  Biso   1.000  H
  H223     1.0000 0.16807  0.60593  0.42813  Biso   1.000  H
  H224     1.0000 0.21787  0.58703  0.30823  Biso   1.000  H
  O65      1.0000 0.81408  0.70502  0.74897  Biso   1.000  O
  O66      1.0000 0.81987  0.71734  0.59857  Biso   1.000  O
  C289     1.0000 0.81192  0.72336  0.67557  Biso   1.000  C
  C290     1.0000 0.79742  0.75577  0.69027  Biso   1.000  C
  C291     1.0000 0.79223  0.77667  0.62337  Biso   1.000  C
  H225     1.0000 0.79863  0.77207  0.56587  Biso   1.000  H
  C292     1.0000 0.77723  0.80577  0.63757  Biso   1.000  C
  H226     1.0000 0.77503  0.82087  0.58957  Biso   1.000  H
  C293     1.0000 0.76628  0.81221  0.71757  Biso   1.000  C
  C294     1.0000 0.77493  0.79377  0.78907  Biso   1.000  C
  H227     1.0000 0.77053  0.80047  0.84637  Biso   1.000  H
  C295     1.0000 0.79033  0.76457  0.77647  Biso   1.000  C
  H228     1.0000 0.79573  0.75167  0.82467  Biso   1.000  H
  C296     1.0000 0.74574  0.83918  0.73607  Biso   1.000  C
  C297     1.0000 0.70769  0.82079  0.78537  Biso   1.000  C
  H229     1.0000 0.69533  0.79207  0.80237  Biso   1.000  H
  H230     1.0000 0.83473  0.93927  0.76147  Biso   1.000  H
  H231     1.0000 0.88453  0.92037  0.64157  Biso   1.000  H
  O67      1.0000 0.55760  0.51925  0.08230  Biso   1.000  O
  O68      1.0000 0.56413  0.51346  0.93190  Biso   1.000  O
  C298     1.0000 0.57810  0.52141  0.00890  Biso   1.000  C
  C299     1.0000 0.62501  0.53591  0.02360  Biso   1.000  C
  C300     1.0000 0.65110  0.54110  0.95670  Biso   1.000  C
  H232     1.0000 0.64010  0.53470  0.89920  Biso   1.000  H
  C301     1.0000 0.69520  0.55610  0.97090  Biso   1.000  C
  H233     1.0000 0.71250  0.55830  0.92290  Biso   1.000  H
  C302     1.0000 0.71259  0.56705  0.05090  Biso   1.000  C
  C303     1.0000 0.68550  0.55840  0.12240  Biso   1.000  C
  H234     1.0000 0.69660  0.56280  0.17970  Biso   1.000  H
  C304     1.0000 0.64090  0.54300  0.10980  Biso   1.000  C
  H235     1.0000 0.62260  0.53760  0.15800  Biso   1.000  H
  C305     1.0000 0.76010  0.58759  0.06940  Biso   1.000  C
  C306     1.0000 0.77976  0.62564  0.11870  Biso   1.000  C
  H236     1.0000 0.76340  0.63800  0.13570  Biso   1.000  H
  H237     1.0000 0.77120  0.49860  0.09480  Biso   1.000  H
  H238     1.0000 0.70250  0.44880  0.97490  Biso   1.000  H
  O69      1.0000 0.22427  0.85258  0.41563  Biso   1.000  O
  O70      1.0000 0.23080  0.84679  0.26523  Biso   1.000  O
  C307     1.0000 0.24477  0.85474  0.34223  Biso   1.000  C
  C308     1.0000 0.29168  0.86924  0.35693  Biso   1.000  C
  C309     1.0000 0.31777  0.87443  0.29003  Biso   1.000  C
  H239     1.0000 0.30677  0.86803  0.23253  Biso   1.000  H
  C310     1.0000 0.36187  0.88943  0.30423  Biso   1.000  C
  H240     1.0000 0.37917  0.89163  0.25623  Biso   1.000  H
  C311     1.0000 0.37926  0.90038  0.38423  Biso   1.000  C
  C312     1.0000 0.35217  0.89173  0.45573  Biso   1.000  C
  H241     1.0000 0.36327  0.89613  0.51303  Biso   1.000  H
  C313     1.0000 0.30757  0.87633  0.44313  Biso   1.000  C
  H242     1.0000 0.28927  0.87093  0.49133  Biso   1.000  H
  C314     1.0000 0.42677  0.92092  0.40273  Biso   1.000  C
  C315     1.0000 0.44643  0.95897  0.45203  Biso   1.000  C
  H243     1.0000 0.43007  0.97133  0.46903  Biso   1.000  H
  H244     1.0000 0.43787  0.83193  0.42813  Biso   1.000  H
  H245     1.0000 0.36917  0.78213  0.30823  Biso   1.000  H
  O71      1.0000 0.89093  0.18592  0.74897  Biso   1.000  O
  O72      1.0000 0.89746  0.18013  0.59857  Biso   1.000  O
  C316     1.0000 0.91143  0.18808  0.67557  Biso   1.000  C
  C317     1.0000 0.95834  0.20258  0.69027  Biso   1.000  C
  C318     1.0000 0.98443  0.20777  0.62337  Biso   1.000  C
  H246     1.0000 0.97343  0.20137  0.56587  Biso   1.000  H
  C319     1.0000 0.02853  0.22277  0.63757  Biso   1.000  C
  H247     1.0000 0.04583  0.22497  0.58957  Biso   1.000  H
  C320     1.0000 0.04592  0.23372  0.71757  Biso   1.000  C
  C321     1.0000 0.01883  0.22507  0.78907  Biso   1.000  C
  H248     1.0000 0.02993  0.22947  0.84637  Biso   1.000  H
  C322     1.0000 0.97423  0.20967  0.77647  Biso   1.000  C
  H249     1.0000 0.95593  0.20427  0.82467  Biso   1.000  H
  C323     1.0000 0.09343  0.25426  0.73607  Biso   1.000  C
  C324     1.0000 0.11309  0.29231  0.78537  Biso   1.000  C
  H250     1.0000 0.09673  0.30467  0.80237  Biso   1.000  H
  H251     1.0000 0.10453  0.16527  0.76147  Biso   1.000  H
  H252     1.0000 0.03583  0.11547  0.64157  Biso   1.000  H
  Cu1      1.0000 0.50333  0.00666  0.91411  Biso   1.000  Cu
  Cu2      1.0000 0.17000  0.33999  0.24744  Biso   1.000  Cu
  Cu3      1.0000 0.83666  0.67333  0.58078  Biso   1.000  Cu
  Cu4      1.0000 0.99334  0.49667  0.91411  Biso   1.000  Cu
  Cu5      1.0000 0.66001  0.83000  0.24744  Biso   1.000  Cu
  Cu6      1.0000 0.32667  0.16334  0.58078  Biso   1.000  Cu
  Cu7      1.0000 0.50333  0.49667  0.91411  Biso   1.000  Cu
  Cu8      1.0000 0.17000  0.83000  0.24744  Biso   1.000  Cu
  Cu9      1.0000 0.83666  0.16334  0.58078  Biso   1.000  Cu
  Cu10     1.0000 0.00666  0.50333  0.08589  Biso   1.000  Cu
  Cu11     1.0000 0.67333  0.83666  0.41922  Biso   1.000  Cu
  Cu12     1.0000 0.33999  0.17000  0.75256  Biso   1.000  Cu
  Cu13     1.0000 0.49667  0.99334  0.08589  Biso   1.000  Cu
  Cu14     1.0000 0.16334  0.32667  0.41922  Biso   1.000  Cu
  Cu15     1.0000 0.83000  0.66001  0.75256  Biso   1.000  Cu
  Cu16     1.0000 0.49667  0.50333  0.08589  Biso   1.000  Cu
  Cu17     1.0000 0.16334  0.83666  0.41922  Biso   1.000  Cu
  Cu18     1.0000 0.83000  0.17000  0.75256  Biso   1.000  Cu
  O73      1.0000 0.76542  0.23458  0.99470  Biso   1.000  O
  C325     1.0000 0.82279  0.17721  0.14320  Biso   1.000  C
  C326     1.0000 0.78405  0.21595  0.04470  Biso   1.000  C
  C327     1.0000 0.74810  0.25190  0.05720  Biso   1.000  C
  C328     1.0000 0.72580  0.27420  0.01130  Biso   1.000  C
  H253     1.0000 0.71460  0.28540  0.05560  Biso   1.000  H
  O74      1.0000 0.43209  0.56791  0.32803  Biso   1.000  O
  C329     1.0000 0.48946  0.51054  0.47653  Biso   1.000  C
  C330     1.0000 0.45072  0.54928  0.37803  Biso   1.000  C
  C331     1.0000 0.41477  0.58523  0.39053  Biso   1.000  C
  C332     1.0000 0.39247  0.60753  0.34463  Biso   1.000  C
  H254     1.0000 0.38127  0.61873  0.38893  Biso   1.000  H
  O75      1.0000 0.09875  0.90125  0.66137  Biso   1.000  O
  C333     1.0000 0.15612  0.84388  0.80987  Biso   1.000  C
  C334     1.0000 0.11738  0.88262  0.71137  Biso   1.000  C
  C335     1.0000 0.08143  0.91857  0.72387  Biso   1.000  C
  C336     1.0000 0.05913  0.94087  0.67797  Biso   1.000  C
  H255     1.0000 0.04793  0.95207  0.72227  Biso   1.000  H
  O76      1.0000 0.76542  0.53084  0.99470  Biso   1.000  O
  C337     1.0000 0.82279  0.64558  0.14320  Biso   1.000  C
  C338     1.0000 0.78405  0.56810  0.04470  Biso   1.000  C
  C339     1.0000 0.74810  0.49620  0.05720  Biso   1.000  C
  C340     1.0000 0.72580  0.45160  0.01130  Biso   1.000  C
  H256     1.0000 0.71460  0.42920  0.05560  Biso   1.000  H
  O77      1.0000 0.43209  0.86417  0.32803  Biso   1.000  O
  C341     1.0000 0.48946  0.97891  0.47653  Biso   1.000  C
  C342     1.0000 0.45072  0.90143  0.37803  Biso   1.000  C
  C343     1.0000 0.41477  0.82953  0.39053  Biso   1.000  C
  C344     1.0000 0.39247  0.78493  0.34463  Biso   1.000  C
  H257     1.0000 0.38127  0.76253  0.38893  Biso   1.000  H
  O78      1.0000 0.09875  0.19751  0.66137  Biso   1.000  O
  C345     1.0000 0.15612  0.31225  0.80987  Biso   1.000  C
  C346     1.0000 0.11738  0.23477  0.71137  Biso   1.000  C
  C347     1.0000 0.08143  0.16287  0.72387  Biso   1.000  C
  C348     1.0000 0.05913  0.11827  0.67797  Biso   1.000  C
  H258     1.0000 0.04793  0.09587  0.72227  Biso   1.000  H
  O79      1.0000 0.46916  0.23458  0.99470  Biso   1.000  O
  C349     1.0000 0.35442  0.17721  0.14320  Biso   1.000  C
  C350     1.0000 0.43190  0.21595  0.04470  Biso   1.000  C
  C351     1.0000 0.50380  0.25190  0.05720  Biso   1.000  C
  C352     1.0000 0.54840  0.27420  0.01130  Biso   1.000  C
  H259     1.0000 0.57080  0.28540  0.05560  Biso   1.000  H
  O80      1.0000 0.13583  0.56791  0.32803  Biso   1.000  O
  C353     1.0000 0.02109  0.51054  0.47653  Biso   1.000  C
  C354     1.0000 0.09857  0.54928  0.37803  Biso   1.000  C
  C355     1.0000 0.17047  0.58523  0.39053  Biso   1.000  C
  C356     1.0000 0.21507  0.60753  0.34463  Biso   1.000  C
  H260     1.0000 0.23747  0.61873  0.38893  Biso   1.000  H
  O81      1.0000 0.80249  0.90125  0.66137  Biso   1.000  O
  C357     1.0000 0.68775  0.84388  0.80987  Biso   1.000  C
  C358     1.0000 0.76523  0.88262  0.71137  Biso   1.000  C
  C359     1.0000 0.83713  0.91857  0.72387  Biso   1.000  C
  C360     1.0000 0.88173  0.94087  0.67797  Biso   1.000  C
  H261     1.0000 0.90413  0.95207  0.72227  Biso   1.000  H
  O82      1.0000 0.23458  0.76542  0.00530  Biso   1.000  O
  C361     1.0000 0.17721  0.82279  0.85680  Biso   1.000  C
  C362     1.0000 0.21595  0.78405  0.95530  Biso   1.000  C
  C363     1.0000 0.25190  0.74810  0.94280  Biso   1.000  C
  C364     1.0000 0.27420  0.72580  0.98870  Biso   1.000  C
  H262     1.0000 0.28540  0.71460  0.94440  Biso   1.000  H
  O83      1.0000 0.90125  0.09875  0.33863  Biso   1.000  O
  C365     1.0000 0.84388  0.15612  0.19013  Biso   1.000  C
  C366     1.0000 0.88262  0.11738  0.28863  Biso   1.000  C
  C367     1.0000 0.91857  0.08143  0.27613  Biso   1.000  C
  C368     1.0000 0.94087  0.05913  0.32203  Biso   1.000  C
  H263     1.0000 0.95207  0.04793  0.27773  Biso   1.000  H
  O84      1.0000 0.56791  0.43209  0.67197  Biso   1.000  O
  C369     1.0000 0.51054  0.48946  0.52347  Biso   1.000  C
  C370     1.0000 0.54928  0.45072  0.62197  Biso   1.000  C
  C371     1.0000 0.58523  0.41477  0.60947  Biso   1.000  C
  C372     1.0000 0.60753  0.39247  0.65537  Biso   1.000  C
  H264     1.0000 0.61873  0.38127  0.61107  Biso   1.000  H
  O85      1.0000 0.53084  0.76542  0.00530  Biso   1.000  O
  C373     1.0000 0.64558  0.82279  0.85680  Biso   1.000  C
  C374     1.0000 0.56810  0.78405  0.95530  Biso   1.000  C
  C375     1.0000 0.49620  0.74810  0.94280  Biso   1.000  C
  C376     1.0000 0.45160  0.72580  0.98870  Biso   1.000  C
  H265     1.0000 0.42920  0.71460  0.94440  Biso   1.000  H
  O86      1.0000 0.19751  0.09875  0.33863  Biso   1.000  O
  C377     1.0000 0.31225  0.15612  0.19013  Biso   1.000  C
  C378     1.0000 0.23477  0.11738  0.28863  Biso   1.000  C
  C379     1.0000 0.16287  0.08143  0.27613  Biso   1.000  C
  C380     1.0000 0.11827  0.05913  0.32203  Biso   1.000  C
  H266     1.0000 0.09587  0.04793  0.27773  Biso   1.000  H
  O87      1.0000 0.86417  0.43209  0.67197  Biso   1.000  O
  C381     1.0000 0.97891  0.48946  0.52347  Biso   1.000  C
  C382     1.0000 0.90143  0.45072  0.62197  Biso   1.000  C
  C383     1.0000 0.82953  0.41477  0.60947  Biso   1.000  C
  C384     1.0000 0.78493  0.39247  0.65537  Biso   1.000  C
  H267     1.0000 0.76253  0.38127  0.61107  Biso   1.000  H
  O88      1.0000 0.23458  0.46916  0.00530  Biso   1.000  O
  C385     1.0000 0.17721  0.35442  0.85680  Biso   1.000  C
  C386     1.0000 0.21595  0.43190  0.95530  Biso   1.000  C
  C387     1.0000 0.25190  0.50380  0.94280  Biso   1.000  C
  C388     1.0000 0.27420  0.54840  0.98870  Biso   1.000  C
  H268     1.0000 0.28540  0.57080  0.94440  Biso   1.000  H
  O89      1.0000 0.90125  0.80249  0.33863  Biso   1.000  O
  C389     1.0000 0.84388  0.68775  0.19013  Biso   1.000  C
  C390     1.0000 0.88262  0.76523  0.28863  Biso   1.000  C
  C391     1.0000 0.91857  0.83713  0.27613  Biso   1.000  C
  C392     1.0000 0.94087  0.88173  0.32203  Biso   1.000  C
  H269     1.0000 0.95207  0.90413  0.27773  Biso   1.000  H
  O90      1.0000 0.56791  0.13583  0.67197  Biso   1.000  O
  C393     1.0000 0.51054  0.02109  0.52347  Biso   1.000  C
  C394     1.0000 0.54928  0.09857  0.62197  Biso   1.000  C
  C395     1.0000 0.58523  0.17047  0.60947  Biso   1.000  C
  C396     1.0000 0.60753  0.21507  0.65537  Biso   1.000  C
  H270     1.0000 0.61873  0.23747  0.61107  Biso   1.000  H
