data_image0
_cell_length_a       35.8539
_cell_length_b       35.8539
_cell_length_c       15.115
_cell_angle_alpha    90
_cell_angle_beta     90
_cell_angle_gamma    120

_symmetry_space_group_name_H-M    "P 1"
_symmetry_int_tables_number       1

loop_
  _symmetry_equiv_pos_as_xyz
  'x, y, z'

loop_
  _atom_site_label
  _atom_site_occupancy
  _atom_site_fract_x
  _atom_site_fract_y
  _atom_site_fract_z
  _atom_site_thermal_displace_type
  _atom_site_B_iso_or_equiv
  _atom_site_type_symbol
  O1       1.0000 0.55740  0.03820  0.08050  Biso   1.000  O
  O2       1.0000 0.56391  0.05056  0.93300  Biso   1.000  O
  C1       1.0000 0.57828  0.05688  0.00940  Biso   1.000  C
  C2       1.0000 0.62506  0.08891  0.02370  Biso   1.000  C
  C3       1.0000 0.65197  0.11040  0.95600  Biso   1.000  C
  H1       1.0000 0.64140  0.10600  0.89850  Biso   1.000  H
  C4       1.0000 0.69549  0.13914  0.97200  Biso   1.000  C
  H2       1.0000 0.71300  0.15440  0.92450  Biso   1.000  H
  C5       1.0000 0.71307  0.14566  0.05190  Biso   1.000  C
  C6       1.0000 0.68520  0.12600  0.12270  Biso   1.000  C
  H3       1.0000 0.69610  0.13190  0.18000  Biso   1.000  H
  C7       1.0000 0.64175  0.09796  0.10980  Biso   1.000  C
  H4       1.0000 0.62370  0.08520  0.15810  Biso   1.000  H
  C8       1.0000 0.75997  0.17261  0.06990  Biso   1.000  C
  C9       1.0000 0.77990  0.15419  0.11830  Biso   1.000  C
  H5       1.0000 0.76370  0.12560  0.13570  Biso   1.000  H
  H6       1.0000 0.77020  0.27330  0.09600  Biso   1.000  H
  H7       1.0000 0.74370  0.30000  0.98520  Biso   1.000  H
  O3       1.0000 0.22407  0.37153  0.41383  Biso   1.000  O
  O4       1.0000 0.23058  0.38389  0.26633  Biso   1.000  O
  C10      1.0000 0.24495  0.39021  0.34273  Biso   1.000  C
  C11      1.0000 0.29173  0.42224  0.35703  Biso   1.000  C
  C12      1.0000 0.31864  0.44373  0.28933  Biso   1.000  C
  H8       1.0000 0.30807  0.43933  0.23183  Biso   1.000  H
  C13      1.0000 0.36216  0.47247  0.30533  Biso   1.000  C
  H9       1.0000 0.37967  0.48773  0.25783  Biso   1.000  H
  C14      1.0000 0.37974  0.47899  0.38523  Biso   1.000  C
  C15      1.0000 0.35187  0.45933  0.45603  Biso   1.000  C
  H10      1.0000 0.36277  0.46523  0.51333  Biso   1.000  H
  C16      1.0000 0.30842  0.43129  0.44313  Biso   1.000  C
  H11      1.0000 0.29037  0.41853  0.49143  Biso   1.000  H
  C17      1.0000 0.42664  0.50594  0.40323  Biso   1.000  C
  C18      1.0000 0.44657  0.48752  0.45163  Biso   1.000  C
  H12      1.0000 0.43037  0.45893  0.46903  Biso   1.000  H
  H13      1.0000 0.43687  0.60663  0.42933  Biso   1.000  H
  H14      1.0000 0.41037  0.63333  0.31853  Biso   1.000  H
  O5       1.0000 0.89073  0.70487  0.74717  Biso   1.000  O
  O6       1.0000 0.89724  0.71723  0.59967  Biso   1.000  O
  C19      1.0000 0.91161  0.72355  0.67607  Biso   1.000  C
  C20      1.0000 0.95839  0.75558  0.69037  Biso   1.000  C
  C21      1.0000 0.98530  0.77707  0.62267  Biso   1.000  C
  H15      1.0000 0.97473  0.77267  0.56517  Biso   1.000  H
  C22      1.0000 0.02882  0.80581  0.63867  Biso   1.000  C
  H16      1.0000 0.04633  0.82107  0.59117  Biso   1.000  H
  C23      1.0000 0.04640  0.81233  0.71857  Biso   1.000  C
  C24      1.0000 0.01853  0.79267  0.78937  Biso   1.000  C
  H17      1.0000 0.02943  0.79857  0.84667  Biso   1.000  H
  C25      1.0000 0.97508  0.76463  0.77647  Biso   1.000  C
  H18      1.0000 0.95703  0.75187  0.82477  Biso   1.000  H
  C26      1.0000 0.09330  0.83928  0.73657  Biso   1.000  C
  C27      1.0000 0.11323  0.82086  0.78497  Biso   1.000  C
  H19      1.0000 0.09703  0.79227  0.80237  Biso   1.000  H
  H20      1.0000 0.10353  0.93997  0.76267  Biso   1.000  H
  H21      1.0000 0.07703  0.96667  0.65187  Biso   1.000  H
  O7       1.0000 0.96180  0.51920  0.08050  Biso   1.000  O
  O8       1.0000 0.94944  0.51335  0.93300  Biso   1.000  O
  C28      1.0000 0.94312  0.52140  0.00940  Biso   1.000  C
  C29      1.0000 0.91109  0.53615  0.02370  Biso   1.000  C
  C30      1.0000 0.88960  0.54157  0.95600  Biso   1.000  C
  H22      1.0000 0.89400  0.53540  0.89850  Biso   1.000  H
  C31      1.0000 0.86086  0.55635  0.97200  Biso   1.000  C
  H23      1.0000 0.84560  0.55860  0.92450  Biso   1.000  H
  C32      1.0000 0.85434  0.56741  0.05190  Biso   1.000  C
  C33      1.0000 0.87400  0.55920  0.12270  Biso   1.000  C
  H24      1.0000 0.86810  0.56420  0.18000  Biso   1.000  H
  C34      1.0000 0.90204  0.54379  0.10980  Biso   1.000  C
  H25      1.0000 0.91480  0.53850  0.15810  Biso   1.000  H
  C35      1.0000 0.82739  0.58736  0.06990  Biso   1.000  C
  C36      1.0000 0.84581  0.62571  0.11830  Biso   1.000  C
  H26      1.0000 0.87440  0.63810  0.13570  Biso   1.000  H
  H27      1.0000 0.72670  0.49690  0.09600  Biso   1.000  H
  H28      1.0000 0.70000  0.44370  0.98520  Biso   1.000  H
  O9       1.0000 0.62847  0.85253  0.41383  Biso   1.000  O
  O10      1.0000 0.61611  0.84668  0.26633  Biso   1.000  O
  C37      1.0000 0.60979  0.85473  0.34273  Biso   1.000  C
  C38      1.0000 0.57776  0.86948  0.35703  Biso   1.000  C
  C39      1.0000 0.55627  0.87490  0.28933  Biso   1.000  C
  H29      1.0000 0.56067  0.86873  0.23183  Biso   1.000  H
  C40      1.0000 0.52753  0.88968  0.30533  Biso   1.000  C
  H30      1.0000 0.51227  0.89193  0.25783  Biso   1.000  H
  C41      1.0000 0.52101  0.90074  0.38523  Biso   1.000  C
  C42      1.0000 0.54067  0.89253  0.45603  Biso   1.000  C
  H31      1.0000 0.53477  0.89753  0.51333  Biso   1.000  H
  C43      1.0000 0.56871  0.87712  0.44313  Biso   1.000  C
  H32      1.0000 0.58147  0.87183  0.49143  Biso   1.000  H
  C44      1.0000 0.49406  0.92069  0.40323  Biso   1.000  C
  C45      1.0000 0.51248  0.95904  0.45163  Biso   1.000  C
  H33      1.0000 0.54107  0.97143  0.46903  Biso   1.000  H
  H34      1.0000 0.39337  0.83023  0.42933  Biso   1.000  H
  H35      1.0000 0.36667  0.77703  0.31853  Biso   1.000  H
  O11      1.0000 0.29513  0.18587  0.74717  Biso   1.000  O
  O12      1.0000 0.28277  0.18002  0.59967  Biso   1.000  O
  C46      1.0000 0.27645  0.18807  0.67607  Biso   1.000  C
  C47      1.0000 0.24442  0.20282  0.69037  Biso   1.000  C
  C48      1.0000 0.22293  0.20824  0.62267  Biso   1.000  C
  H36      1.0000 0.22733  0.20207  0.56517  Biso   1.000  H
  C49      1.0000 0.19419  0.22302  0.63867  Biso   1.000  C
  H37      1.0000 0.17893  0.22527  0.59117  Biso   1.000  H
  C50      1.0000 0.18767  0.23408  0.71857  Biso   1.000  C
  C51      1.0000 0.20733  0.22587  0.78937  Biso   1.000  C
  H38      1.0000 0.20143  0.23087  0.84667  Biso   1.000  H
  C52      1.0000 0.23537  0.21046  0.77647  Biso   1.000  C
  H39      1.0000 0.24813  0.20517  0.82477  Biso   1.000  H
  C53      1.0000 0.16072  0.25403  0.73657  Biso   1.000  C
  C54      1.0000 0.17914  0.29238  0.78497  Biso   1.000  C
  H40      1.0000 0.20773  0.30477  0.80237  Biso   1.000  H
  H41      1.0000 0.06003  0.16357  0.76267  Biso   1.000  H
  H42      1.0000 0.03333  0.11037  0.65187  Biso   1.000  H
  O13      1.0000 0.48080  0.44260  0.08050  Biso   1.000  O
  O14      1.0000 0.48665  0.43609  0.93300  Biso   1.000  O
  C55      1.0000 0.47860  0.42172  0.00940  Biso   1.000  C
  C56      1.0000 0.46385  0.37494  0.02370  Biso   1.000  C
  C57      1.0000 0.45843  0.34803  0.95600  Biso   1.000  C
  H43      1.0000 0.46460  0.35860  0.89850  Biso   1.000  H
  C58      1.0000 0.44365  0.30451  0.97200  Biso   1.000  C
  H44      1.0000 0.44140  0.28700  0.92450  Biso   1.000  H
  C59      1.0000 0.43259  0.28693  0.05190  Biso   1.000  C
  C60      1.0000 0.44080  0.31480  0.12270  Biso   1.000  C
  H45      1.0000 0.43580  0.30390  0.18000  Biso   1.000  H
  C61      1.0000 0.45621  0.35825  0.10980  Biso   1.000  C
  H46      1.0000 0.46150  0.37630  0.15810  Biso   1.000  H
  C62      1.0000 0.41264  0.24003  0.06990  Biso   1.000  C
  C63      1.0000 0.37429  0.22010  0.11830  Biso   1.000  C
  H47      1.0000 0.36190  0.23630  0.13570  Biso   1.000  H
  H48      1.0000 0.50310  0.22980  0.09600  Biso   1.000  H
  H49      1.0000 0.55630  0.25630  0.98520  Biso   1.000  H
  O15      1.0000 0.14747  0.77593  0.41383  Biso   1.000  O
  O16      1.0000 0.15332  0.76942  0.26633  Biso   1.000  O
  C64      1.0000 0.14527  0.75505  0.34273  Biso   1.000  C
  C65      1.0000 0.13052  0.70827  0.35703  Biso   1.000  C
  C66      1.0000 0.12510  0.68136  0.28933  Biso   1.000  C
  H50      1.0000 0.13127  0.69193  0.23183  Biso   1.000  H
  C67      1.0000 0.11032  0.63784  0.30533  Biso   1.000  C
  H51      1.0000 0.10807  0.62033  0.25783  Biso   1.000  H
  C68      1.0000 0.09926  0.62026  0.38523  Biso   1.000  C
  C69      1.0000 0.10747  0.64813  0.45603  Biso   1.000  C
  H52      1.0000 0.10247  0.63723  0.51333  Biso   1.000  H
  C70      1.0000 0.12288  0.69158  0.44313  Biso   1.000  C
  H53      1.0000 0.12817  0.70963  0.49143  Biso   1.000  H
  C71      1.0000 0.07931  0.57336  0.40323  Biso   1.000  C
  C72      1.0000 0.04096  0.55343  0.45163  Biso   1.000  C
  H54      1.0000 0.02857  0.56963  0.46903  Biso   1.000  H
  H55      1.0000 0.16977  0.56313  0.42933  Biso   1.000  H
  H56      1.0000 0.22297  0.58963  0.31853  Biso   1.000  H
  O17      1.0000 0.81413  0.10927  0.74717  Biso   1.000  O
  O18      1.0000 0.81998  0.10276  0.59967  Biso   1.000  O
  C73      1.0000 0.81193  0.08839  0.67607  Biso   1.000  C
  C74      1.0000 0.79718  0.04161  0.69037  Biso   1.000  C
  C75      1.0000 0.79176  0.01470  0.62267  Biso   1.000  C
  H57      1.0000 0.79793  0.02527  0.56517  Biso   1.000  H
  C76      1.0000 0.77698  0.97118  0.63867  Biso   1.000  C
  H58      1.0000 0.77473  0.95367  0.59117  Biso   1.000  H
  C77      1.0000 0.76592  0.95360  0.71857  Biso   1.000  C
  C78      1.0000 0.77413  0.98147  0.78937  Biso   1.000  C
  H59      1.0000 0.76913  0.97057  0.84667  Biso   1.000  H
  C79      1.0000 0.78954  0.02492  0.77647  Biso   1.000  C
  H60      1.0000 0.79483  0.04297  0.82477  Biso   1.000  H
  C80      1.0000 0.74597  0.90670  0.73657  Biso   1.000  C
  C81      1.0000 0.70762  0.88677  0.78497  Biso   1.000  C
  H61      1.0000 0.69523  0.90297  0.80237  Biso   1.000  H
  H62      1.0000 0.83643  0.89647  0.76267  Biso   1.000  H
  H63      1.0000 0.88963  0.92297  0.65187  Biso   1.000  H
  O19      1.0000 0.03820  0.55740  0.91950  Biso   1.000  O
  O20      1.0000 0.05056  0.56391  0.06700  Biso   1.000  O
  C82      1.0000 0.05688  0.57828  0.99060  Biso   1.000  C
  C83      1.0000 0.08891  0.62506  0.97630  Biso   1.000  C
  C84      1.0000 0.11040  0.65197  0.04400  Biso   1.000  C
  H64      1.0000 0.10600  0.64140  0.10150  Biso   1.000  H
  C85      1.0000 0.13914  0.69549  0.02800  Biso   1.000  C
  H65      1.0000 0.15440  0.71300  0.07550  Biso   1.000  H
  C86      1.0000 0.14566  0.71307  0.94810  Biso   1.000  C
  C87      1.0000 0.12600  0.68520  0.87730  Biso   1.000  C
  H66      1.0000 0.13190  0.69610  0.82000  Biso   1.000  H
  C88      1.0000 0.09796  0.64175  0.89020  Biso   1.000  C
  H67      1.0000 0.08520  0.62370  0.84190  Biso   1.000  H
  C89      1.0000 0.17261  0.75997  0.93010  Biso   1.000  C
  C90      1.0000 0.15419  0.77990  0.88170  Biso   1.000  C
  H68      1.0000 0.12560  0.76370  0.86430  Biso   1.000  H
  H69      1.0000 0.27330  0.77020  0.90400  Biso   1.000  H
  H70      1.0000 0.30000  0.74370  0.01480  Biso   1.000  H
  O21      1.0000 0.70487  0.89073  0.25283  Biso   1.000  O
  O22      1.0000 0.71723  0.89724  0.40033  Biso   1.000  O
  C91      1.0000 0.72355  0.91161  0.32393  Biso   1.000  C
  C92      1.0000 0.75558  0.95839  0.30963  Biso   1.000  C
  C93      1.0000 0.77707  0.98530  0.37733  Biso   1.000  C
  H71      1.0000 0.77267  0.97473  0.43483  Biso   1.000  H
  C94      1.0000 0.80581  0.02882  0.36133  Biso   1.000  C
  H72      1.0000 0.82107  0.04633  0.40883  Biso   1.000  H
  C95      1.0000 0.81233  0.04640  0.28143  Biso   1.000  C
  C96      1.0000 0.79267  0.01853  0.21063  Biso   1.000  C
  H73      1.0000 0.79857  0.02943  0.15333  Biso   1.000  H
  C97      1.0000 0.76463  0.97508  0.22353  Biso   1.000  C
  H74      1.0000 0.75187  0.95703  0.17523  Biso   1.000  H
  C98      1.0000 0.83928  0.09330  0.26343  Biso   1.000  C
  C99      1.0000 0.82086  0.11323  0.21503  Biso   1.000  C
  H75      1.0000 0.79227  0.09703  0.19763  Biso   1.000  H
  H76      1.0000 0.93997  0.10353  0.23733  Biso   1.000  H
  H77      1.0000 0.96667  0.07703  0.34813  Biso   1.000  H
  O23      1.0000 0.37153  0.22407  0.58617  Biso   1.000  O
  O24      1.0000 0.38389  0.23058  0.73367  Biso   1.000  O
  C100     1.0000 0.39021  0.24495  0.65727  Biso   1.000  C
  C101     1.0000 0.42224  0.29173  0.64297  Biso   1.000  C
  C102     1.0000 0.44373  0.31864  0.71067  Biso   1.000  C
  H78      1.0000 0.43933  0.30807  0.76817  Biso   1.000  H
  C103     1.0000 0.47247  0.36216  0.69467  Biso   1.000  C
  H79      1.0000 0.48773  0.37967  0.74217  Biso   1.000  H
  C104     1.0000 0.47899  0.37974  0.61477  Biso   1.000  C
  C105     1.0000 0.45933  0.35187  0.54397  Biso   1.000  C
  H80      1.0000 0.46523  0.36277  0.48667  Biso   1.000  H
  C106     1.0000 0.43129  0.30842  0.55687  Biso   1.000  C
  H81      1.0000 0.41853  0.29037  0.50857  Biso   1.000  H
  C107     1.0000 0.50594  0.42664  0.59677  Biso   1.000  C
  C108     1.0000 0.48752  0.44657  0.54837  Biso   1.000  C
  H82      1.0000 0.45893  0.43037  0.53097  Biso   1.000  H
  H83      1.0000 0.60663  0.43687  0.57067  Biso   1.000  H
  H84      1.0000 0.63333  0.41037  0.68147  Biso   1.000  H
  O25      1.0000 0.51920  0.96180  0.91950  Biso   1.000  O
  O26      1.0000 0.51335  0.94944  0.06700  Biso   1.000  O
  C109     1.0000 0.52140  0.94312  0.99060  Biso   1.000  C
  C110     1.0000 0.53615  0.91109  0.97630  Biso   1.000  C
  C111     1.0000 0.54157  0.88960  0.04400  Biso   1.000  C
  H85      1.0000 0.53540  0.89400  0.10150  Biso   1.000  H
  C112     1.0000 0.55635  0.86086  0.02800  Biso   1.000  C
  H86      1.0000 0.55860  0.84560  0.07550  Biso   1.000  H
  C113     1.0000 0.56741  0.85434  0.94810  Biso   1.000  C
  C114     1.0000 0.55920  0.87400  0.87730  Biso   1.000  C
  H87      1.0000 0.56420  0.86810  0.82000  Biso   1.000  H
  C115     1.0000 0.54379  0.90204  0.89020  Biso   1.000  C
  H88      1.0000 0.53850  0.91480  0.84190  Biso   1.000  H
  C116     1.0000 0.58736  0.82739  0.93010  Biso   1.000  C
  C117     1.0000 0.62571  0.84581  0.88170  Biso   1.000  C
  H89      1.0000 0.63810  0.87440  0.86430  Biso   1.000  H
  H90      1.0000 0.49690  0.72670  0.90400  Biso   1.000  H
  H91      1.0000 0.44370  0.70000  0.01480  Biso   1.000  H
  O27      1.0000 0.18587  0.29513  0.25283  Biso   1.000  O
  O28      1.0000 0.18002  0.28277  0.40033  Biso   1.000  O
  C118     1.0000 0.18807  0.27645  0.32393  Biso   1.000  C
  C119     1.0000 0.20282  0.24442  0.30963  Biso   1.000  C
  C120     1.0000 0.20824  0.22293  0.37733  Biso   1.000  C
  H92      1.0000 0.20207  0.22733  0.43483  Biso   1.000  H
  C121     1.0000 0.22302  0.19419  0.36133  Biso   1.000  C
  H93      1.0000 0.22527  0.17893  0.40883  Biso   1.000  H
  C122     1.0000 0.23408  0.18767  0.28143  Biso   1.000  C
  C123     1.0000 0.22587  0.20733  0.21063  Biso   1.000  C
  H94      1.0000 0.23087  0.20143  0.15333  Biso   1.000  H
  C124     1.0000 0.21046  0.23537  0.22353  Biso   1.000  C
  H95      1.0000 0.20517  0.24813  0.17523  Biso   1.000  H
  C125     1.0000 0.25403  0.16072  0.26343  Biso   1.000  C
  C126     1.0000 0.29238  0.17914  0.21503  Biso   1.000  C
  H96      1.0000 0.30477  0.20773  0.19763  Biso   1.000  H
  H97      1.0000 0.16357  0.06003  0.23733  Biso   1.000  H
  H98      1.0000 0.11037  0.03333  0.34813  Biso   1.000  H
  O29      1.0000 0.85253  0.62847  0.58617  Biso   1.000  O
  O30      1.0000 0.84668  0.61611  0.73367  Biso   1.000  O
  C127     1.0000 0.85473  0.60979  0.65727  Biso   1.000  C
  C128     1.0000 0.86948  0.57776  0.64297  Biso   1.000  C
  C129     1.0000 0.87490  0.55627  0.71067  Biso   1.000  C
  H99      1.0000 0.86873  0.56067  0.76817  Biso   1.000  H
  C130     1.0000 0.88968  0.52753  0.69467  Biso   1.000  C
  H100     1.0000 0.89193  0.51227  0.74217  Biso   1.000  H
  C131     1.0000 0.90074  0.52101  0.61477  Biso   1.000  C
  C132     1.0000 0.89253  0.54067  0.54397  Biso   1.000  C
  H101     1.0000 0.89753  0.53477  0.48667  Biso   1.000  H
  C133     1.0000 0.87712  0.56871  0.55687  Biso   1.000  C
  H102     1.0000 0.87183  0.58147  0.50857  Biso   1.000  H
  C134     1.0000 0.92069  0.49406  0.59677  Biso   1.000  C
  C135     1.0000 0.95904  0.51248  0.54837  Biso   1.000  C
  H103     1.0000 0.97143  0.54107  0.53097  Biso   1.000  H
  H104     1.0000 0.83023  0.39337  0.57067  Biso   1.000  H
  H105     1.0000 0.77703  0.36667  0.68147  Biso   1.000  H
  O31      1.0000 0.44260  0.48080  0.91950  Biso   1.000  O
  O32      1.0000 0.43609  0.48665  0.06700  Biso   1.000  O
  C136     1.0000 0.42172  0.47860  0.99060  Biso   1.000  C
  C137     1.0000 0.37494  0.46385  0.97630  Biso   1.000  C
  C138     1.0000 0.34803  0.45843  0.04400  Biso   1.000  C
  H106     1.0000 0.35860  0.46460  0.10150  Biso   1.000  H
  C139     1.0000 0.30451  0.44365  0.02800  Biso   1.000  C
  H107     1.0000 0.28700  0.44140  0.07550  Biso   1.000  H
  C140     1.0000 0.28693  0.43259  0.94810  Biso   1.000  C
  C141     1.0000 0.31480  0.44080  0.87730  Biso   1.000  C
  H108     1.0000 0.30390  0.43580  0.82000  Biso   1.000  H
  C142     1.0000 0.35825  0.45621  0.89020  Biso   1.000  C
  H109     1.0000 0.37630  0.46150  0.84190  Biso   1.000  H
  C143     1.0000 0.24003  0.41264  0.93010  Biso   1.000  C
  C144     1.0000 0.22010  0.37429  0.88170  Biso   1.000  C
  H110     1.0000 0.23630  0.36190  0.86430  Biso   1.000  H
  H111     1.0000 0.22980  0.50310  0.90400  Biso   1.000  H
  H112     1.0000 0.25630  0.55630  0.01480  Biso   1.000  H
  O33      1.0000 0.10927  0.81413  0.25283  Biso   1.000  O
  O34      1.0000 0.10276  0.81998  0.40033  Biso   1.000  O
  C145     1.0000 0.08839  0.81193  0.32393  Biso   1.000  C
  C146     1.0000 0.04161  0.79718  0.30963  Biso   1.000  C
  C147     1.0000 0.01470  0.79176  0.37733  Biso   1.000  C
  H113     1.0000 0.02527  0.79793  0.43483  Biso   1.000  H
  C148     1.0000 0.97118  0.77698  0.36133  Biso   1.000  C
  H114     1.0000 0.95367  0.77473  0.40883  Biso   1.000  H
  C149     1.0000 0.95360  0.76592  0.28143  Biso   1.000  C
  C150     1.0000 0.98147  0.77413  0.21063  Biso   1.000  C
  H115     1.0000 0.97057  0.76913  0.15333  Biso   1.000  H
  C151     1.0000 0.02492  0.78954  0.22353  Biso   1.000  C
  H116     1.0000 0.04297  0.79483  0.17523  Biso   1.000  H
  C152     1.0000 0.90670  0.74597  0.26343  Biso   1.000  C
  C153     1.0000 0.88677  0.70762  0.21503  Biso   1.000  C
  H117     1.0000 0.90297  0.69523  0.19763  Biso   1.000  H
  H118     1.0000 0.89647  0.83643  0.23733  Biso   1.000  H
  H119     1.0000 0.92297  0.88963  0.34813  Biso   1.000  H
  O35      1.0000 0.77593  0.14747  0.58617  Biso   1.000  O
  O36      1.0000 0.76942  0.15332  0.73367  Biso   1.000  O
  C154     1.0000 0.75505  0.14527  0.65727  Biso   1.000  C
  C155     1.0000 0.70827  0.13052  0.64297  Biso   1.000  C
  C156     1.0000 0.68136  0.12510  0.71067  Biso   1.000  C
  H120     1.0000 0.69193  0.13127  0.76817  Biso   1.000  H
  C157     1.0000 0.63784  0.11032  0.69467  Biso   1.000  C
  H121     1.0000 0.62033  0.10807  0.74217  Biso   1.000  H
  C158     1.0000 0.62026  0.09926  0.61477  Biso   1.000  C
  C159     1.0000 0.64813  0.10747  0.54397  Biso   1.000  C
  H122     1.0000 0.63723  0.10247  0.48667  Biso   1.000  H
  C160     1.0000 0.69158  0.12288  0.55687  Biso   1.000  C
  H123     1.0000 0.70963  0.12817  0.50857  Biso   1.000  H
  C161     1.0000 0.57336  0.07931  0.59677  Biso   1.000  C
  C162     1.0000 0.55343  0.04096  0.54837  Biso   1.000  C
  H124     1.0000 0.56963  0.02857  0.53097  Biso   1.000  H
  H125     1.0000 0.56313  0.16977  0.57067  Biso   1.000  H
  H126     1.0000 0.58963  0.22297  0.68147  Biso   1.000  H
  O37      1.0000 0.44260  0.96180  0.91950  Biso   1.000  O
  O38      1.0000 0.43609  0.94944  0.06700  Biso   1.000  O
  C163     1.0000 0.42172  0.94312  0.99060  Biso   1.000  C
  C164     1.0000 0.37494  0.91109  0.97630  Biso   1.000  C
  C165     1.0000 0.34803  0.88960  0.04400  Biso   1.000  C
  H127     1.0000 0.35860  0.89400  0.10150  Biso   1.000  H
  C166     1.0000 0.30451  0.86086  0.02800  Biso   1.000  C
  H128     1.0000 0.28700  0.84560  0.07550  Biso   1.000  H
  C167     1.0000 0.28693  0.85434  0.94810  Biso   1.000  C
  C168     1.0000 0.31480  0.87400  0.87730  Biso   1.000  C
  H129     1.0000 0.30390  0.86810  0.82000  Biso   1.000  H
  C169     1.0000 0.35825  0.90204  0.89020  Biso   1.000  C
  H130     1.0000 0.37630  0.91480  0.84190  Biso   1.000  H
  C170     1.0000 0.24003  0.82739  0.93010  Biso   1.000  C
  C171     1.0000 0.22010  0.84581  0.88170  Biso   1.000  C
  H131     1.0000 0.23630  0.87440  0.86430  Biso   1.000  H
  H132     1.0000 0.22980  0.72670  0.90400  Biso   1.000  H
  H133     1.0000 0.25630  0.70000  0.01480  Biso   1.000  H
  O39      1.0000 0.10927  0.29513  0.25283  Biso   1.000  O
  O40      1.0000 0.10276  0.28277  0.40033  Biso   1.000  O
  C172     1.0000 0.08839  0.27645  0.32393  Biso   1.000  C
  C173     1.0000 0.04161  0.24442  0.30963  Biso   1.000  C
  C174     1.0000 0.01470  0.22293  0.37733  Biso   1.000  C
  H134     1.0000 0.02527  0.22733  0.43483  Biso   1.000  H
  C175     1.0000 0.97118  0.19419  0.36133  Biso   1.000  C
  H135     1.0000 0.95367  0.17893  0.40883  Biso   1.000  H
  C176     1.0000 0.95360  0.18767  0.28143  Biso   1.000  C
  C177     1.0000 0.98147  0.20733  0.21063  Biso   1.000  C
  H136     1.0000 0.97057  0.20143  0.15333  Biso   1.000  H
  C178     1.0000 0.02492  0.23537  0.22353  Biso   1.000  C
  H137     1.0000 0.04297  0.24813  0.17523  Biso   1.000  H
  C179     1.0000 0.90670  0.16072  0.26343  Biso   1.000  C
  C180     1.0000 0.88677  0.17914  0.21503  Biso   1.000  C
  H138     1.0000 0.90297  0.20773  0.19763  Biso   1.000  H
  H139     1.0000 0.89647  0.06003  0.23733  Biso   1.000  H
  H140     1.0000 0.92297  0.03333  0.34813  Biso   1.000  H
  O41      1.0000 0.77593  0.62847  0.58617  Biso   1.000  O
  O42      1.0000 0.76942  0.61611  0.73367  Biso   1.000  O
  C181     1.0000 0.75505  0.60979  0.65727  Biso   1.000  C
  C182     1.0000 0.70827  0.57776  0.64297  Biso   1.000  C
  C183     1.0000 0.68136  0.55627  0.71067  Biso   1.000  C
  H141     1.0000 0.69193  0.56067  0.76817  Biso   1.000  H
  C184     1.0000 0.63784  0.52753  0.69467  Biso   1.000  C
  H142     1.0000 0.62033  0.51227  0.74217  Biso   1.000  H
  C185     1.0000 0.62026  0.52101  0.61477  Biso   1.000  C
  C186     1.0000 0.64813  0.54067  0.54397  Biso   1.000  C
  H143     1.0000 0.63723  0.53477  0.48667  Biso   1.000  H
  C187     1.0000 0.69158  0.56871  0.55687  Biso   1.000  C
  H144     1.0000 0.70963  0.58147  0.50857  Biso   1.000  H
  C188     1.0000 0.57336  0.49406  0.59677  Biso   1.000  C
  C189     1.0000 0.55343  0.51248  0.54837  Biso   1.000  C
  H145     1.0000 0.56963  0.54107  0.53097  Biso   1.000  H
  H146     1.0000 0.56313  0.39337  0.57067  Biso   1.000  H
  H147     1.0000 0.58963  0.36667  0.68147  Biso   1.000  H
  O43      1.0000 0.03820  0.48080  0.91950  Biso   1.000  O
  O44      1.0000 0.05056  0.48665  0.06700  Biso   1.000  O
  C190     1.0000 0.05688  0.47860  0.99060  Biso   1.000  C
  C191     1.0000 0.08891  0.46385  0.97630  Biso   1.000  C
  C192     1.0000 0.11040  0.45843  0.04400  Biso   1.000  C
  H148     1.0000 0.10600  0.46460  0.10150  Biso   1.000  H
  C193     1.0000 0.13914  0.44365  0.02800  Biso   1.000  C
  H149     1.0000 0.15440  0.44140  0.07550  Biso   1.000  H
  C194     1.0000 0.14566  0.43259  0.94810  Biso   1.000  C
  C195     1.0000 0.12600  0.44080  0.87730  Biso   1.000  C
  H150     1.0000 0.13190  0.43580  0.82000  Biso   1.000  H
  C196     1.0000 0.09796  0.45621  0.89020  Biso   1.000  C
  H151     1.0000 0.08520  0.46150  0.84190  Biso   1.000  H
  C197     1.0000 0.17261  0.41264  0.93010  Biso   1.000  C
  C198     1.0000 0.15419  0.37429  0.88170  Biso   1.000  C
  H152     1.0000 0.12560  0.36190  0.86430  Biso   1.000  H
  H153     1.0000 0.27330  0.50310  0.90400  Biso   1.000  H
  H154     1.0000 0.30000  0.55630  0.01480  Biso   1.000  H
  O45      1.0000 0.70487  0.81413  0.25283  Biso   1.000  O
  O46      1.0000 0.71723  0.81998  0.40033  Biso   1.000  O
  C199     1.0000 0.72355  0.81193  0.32393  Biso   1.000  C
  C200     1.0000 0.75558  0.79718  0.30963  Biso   1.000  C
  C201     1.0000 0.77707  0.79176  0.37733  Biso   1.000  C
  H155     1.0000 0.77267  0.79793  0.43483  Biso   1.000  H
  C202     1.0000 0.80581  0.77698  0.36133  Biso   1.000  C
  H156     1.0000 0.82107  0.77473  0.40883  Biso   1.000  H
  C203     1.0000 0.81233  0.76592  0.28143  Biso   1.000  C
  C204     1.0000 0.79267  0.77413  0.21063  Biso   1.000  C
  H157     1.0000 0.79857  0.76913  0.15333  Biso   1.000  H
  C205     1.0000 0.76463  0.78954  0.22353  Biso   1.000  C
  H158     1.0000 0.75187  0.79483  0.17523  Biso   1.000  H
  C206     1.0000 0.83928  0.74597  0.26343  Biso   1.000  C
  C207     1.0000 0.82086  0.70762  0.21503  Biso   1.000  C
  H159     1.0000 0.79227  0.69523  0.19763  Biso   1.000  H
  H160     1.0000 0.93997  0.83643  0.23733  Biso   1.000  H
  H161     1.0000 0.96667  0.88963  0.34813  Biso   1.000  H
  O47      1.0000 0.37153  0.14747  0.58617  Biso   1.000  O
  O48      1.0000 0.38389  0.15332  0.73367  Biso   1.000  O
  C208     1.0000 0.39021  0.14527  0.65727  Biso   1.000  C
  C209     1.0000 0.42224  0.13052  0.64297  Biso   1.000  C
  C210     1.0000 0.44373  0.12510  0.71067  Biso   1.000  C
  H162     1.0000 0.43933  0.13127  0.76817  Biso   1.000  H
  C211     1.0000 0.47247  0.11032  0.69467  Biso   1.000  C
  H163     1.0000 0.48773  0.10807  0.74217  Biso   1.000  H
  C212     1.0000 0.47899  0.09926  0.61477  Biso   1.000  C
  C213     1.0000 0.45933  0.10747  0.54397  Biso   1.000  C
  H164     1.0000 0.46523  0.10247  0.48667  Biso   1.000  H
  C214     1.0000 0.43129  0.12288  0.55687  Biso   1.000  C
  H165     1.0000 0.41853  0.12817  0.50857  Biso   1.000  H
  C215     1.0000 0.50594  0.07931  0.59677  Biso   1.000  C
  C216     1.0000 0.48752  0.04096  0.54837  Biso   1.000  C
  H166     1.0000 0.45893  0.02857  0.53097  Biso   1.000  H
  H167     1.0000 0.60663  0.16977  0.57067  Biso   1.000  H
  H168     1.0000 0.63333  0.22297  0.68147  Biso   1.000  H
  O49      1.0000 0.51920  0.55740  0.91950  Biso   1.000  O
  O50      1.0000 0.51335  0.56391  0.06700  Biso   1.000  O
  C217     1.0000 0.52140  0.57828  0.99060  Biso   1.000  C
  C218     1.0000 0.53615  0.62506  0.97630  Biso   1.000  C
  C219     1.0000 0.54157  0.65197  0.04400  Biso   1.000  C
  H169     1.0000 0.53540  0.64140  0.10150  Biso   1.000  H
  C220     1.0000 0.55635  0.69549  0.02800  Biso   1.000  C
  H170     1.0000 0.55860  0.71300  0.07550  Biso   1.000  H
  C221     1.0000 0.56741  0.71307  0.94810  Biso   1.000  C
  C222     1.0000 0.55920  0.68520  0.87730  Biso   1.000  C
  H171     1.0000 0.56420  0.69610  0.82000  Biso   1.000  H
  C223     1.0000 0.54379  0.64175  0.89020  Biso   1.000  C
  H172     1.0000 0.53850  0.62370  0.84190  Biso   1.000  H
  C224     1.0000 0.58736  0.75997  0.93010  Biso   1.000  C
  C225     1.0000 0.62571  0.77990  0.88170  Biso   1.000  C
  H173     1.0000 0.63810  0.76370  0.86430  Biso   1.000  H
  H174     1.0000 0.49690  0.77020  0.90400  Biso   1.000  H
  H175     1.0000 0.44370  0.74370  0.01480  Biso   1.000  H
  O51      1.0000 0.18587  0.89073  0.25283  Biso   1.000  O
  O52      1.0000 0.18002  0.89724  0.40033  Biso   1.000  O
  C226     1.0000 0.18807  0.91161  0.32393  Biso   1.000  C
  C227     1.0000 0.20282  0.95839  0.30963  Biso   1.000  C
  C228     1.0000 0.20824  0.98530  0.37733  Biso   1.000  C
  H176     1.0000 0.20207  0.97473  0.43483  Biso   1.000  H
  C229     1.0000 0.22302  0.02882  0.36133  Biso   1.000  C
  H177     1.0000 0.22527  0.04633  0.40883  Biso   1.000  H
  C230     1.0000 0.23408  0.04640  0.28143  Biso   1.000  C
  C231     1.0000 0.22587  0.01853  0.21063  Biso   1.000  C
  H178     1.0000 0.23087  0.02943  0.15333  Biso   1.000  H
  C232     1.0000 0.21046  0.97508  0.22353  Biso   1.000  C
  H179     1.0000 0.20517  0.95703  0.17523  Biso   1.000  H
  C233     1.0000 0.25403  0.09330  0.26343  Biso   1.000  C
  C234     1.0000 0.29238  0.11323  0.21503  Biso   1.000  C
  H180     1.0000 0.30477  0.09703  0.19763  Biso   1.000  H
  H181     1.0000 0.16357  0.10353  0.23733  Biso   1.000  H
  H182     1.0000 0.11037  0.07703  0.34813  Biso   1.000  H
  O53      1.0000 0.85253  0.22407  0.58617  Biso   1.000  O
  O54      1.0000 0.84668  0.23058  0.73367  Biso   1.000  O
  C235     1.0000 0.85473  0.24495  0.65727  Biso   1.000  C
  C236     1.0000 0.86948  0.29173  0.64297  Biso   1.000  C
  C237     1.0000 0.87490  0.31864  0.71067  Biso   1.000  C
  H183     1.0000 0.86873  0.30807  0.76817  Biso   1.000  H
  C238     1.0000 0.88968  0.36216  0.69467  Biso   1.000  C
  H184     1.0000 0.89193  0.37967  0.74217  Biso   1.000  H
  C239     1.0000 0.90074  0.37974  0.61477  Biso   1.000  C
  C240     1.0000 0.89253  0.35187  0.54397  Biso   1.000  C
  H185     1.0000 0.89753  0.36277  0.48667  Biso   1.000  H
  C241     1.0000 0.87712  0.30842  0.55687  Biso   1.000  C
  H186     1.0000 0.87183  0.29037  0.50857  Biso   1.000  H
  C242     1.0000 0.92069  0.42664  0.59677  Biso   1.000  C
  C243     1.0000 0.95904  0.44657  0.54837  Biso   1.000  C
  H187     1.0000 0.97143  0.43037  0.53097  Biso   1.000  H
  H188     1.0000 0.83023  0.43687  0.57067  Biso   1.000  H
  H189     1.0000 0.77703  0.41037  0.68147  Biso   1.000  H
  O55      1.0000 0.96180  0.44260  0.08050  Biso   1.000  O
  O56      1.0000 0.94944  0.43609  0.93300  Biso   1.000  O
  C244     1.0000 0.94312  0.42172  0.00940  Biso   1.000  C
  C245     1.0000 0.91109  0.37494  0.02370  Biso   1.000  C
  C246     1.0000 0.88960  0.34803  0.95600  Biso   1.000  C
  H190     1.0000 0.89400  0.35860  0.89850  Biso   1.000  H
  C247     1.0000 0.86086  0.30451  0.97200  Biso   1.000  C
  H191     1.0000 0.84560  0.28700  0.92450  Biso   1.000  H
  C248     1.0000 0.85434  0.28693  0.05190  Biso   1.000  C
  C249     1.0000 0.87400  0.31480  0.12270  Biso   1.000  C
  H192     1.0000 0.86810  0.30390  0.18000  Biso   1.000  H
  C250     1.0000 0.90204  0.35825  0.10980  Biso   1.000  C
  H193     1.0000 0.91480  0.37630  0.15810  Biso   1.000  H
  C251     1.0000 0.82739  0.24003  0.06990  Biso   1.000  C
  C252     1.0000 0.84581  0.22010  0.11830  Biso   1.000  C
  H194     1.0000 0.87440  0.23630  0.13570  Biso   1.000  H
  H195     1.0000 0.72670  0.22980  0.09600  Biso   1.000  H
  H196     1.0000 0.70000  0.25630  0.98520  Biso   1.000  H
  O57      1.0000 0.62847  0.77593  0.41383  Biso   1.000  O
  O58      1.0000 0.61611  0.76942  0.26633  Biso   1.000  O
  C253     1.0000 0.60979  0.75505  0.34273  Biso   1.000  C
  C254     1.0000 0.57776  0.70827  0.35703  Biso   1.000  C
  C255     1.0000 0.55627  0.68136  0.28933  Biso   1.000  C
  H197     1.0000 0.56067  0.69193  0.23183  Biso   1.000  H
  C256     1.0000 0.52753  0.63784  0.30533  Biso   1.000  C
  H198     1.0000 0.51227  0.62033  0.25783  Biso   1.000  H
  C257     1.0000 0.52101  0.62026  0.38523  Biso   1.000  C
  C258     1.0000 0.54067  0.64813  0.45603  Biso   1.000  C
  H199     1.0000 0.53477  0.63723  0.51333  Biso   1.000  H
  C259     1.0000 0.56871  0.69158  0.44313  Biso   1.000  C
  H200     1.0000 0.58147  0.70963  0.49143  Biso   1.000  H
  C260     1.0000 0.49406  0.57336  0.40323  Biso   1.000  C
  C261     1.0000 0.51248  0.55343  0.45163  Biso   1.000  C
  H201     1.0000 0.54107  0.56963  0.46903  Biso   1.000  H
  H202     1.0000 0.39337  0.56313  0.42933  Biso   1.000  H
  H203     1.0000 0.36667  0.58963  0.31853  Biso   1.000  H
  O59      1.0000 0.29513  0.10927  0.74717  Biso   1.000  O
  O60      1.0000 0.28277  0.10276  0.59967  Biso   1.000  O
  C262     1.0000 0.27645  0.08839  0.67607  Biso   1.000  C
  C263     1.0000 0.24442  0.04161  0.69037  Biso   1.000  C
  C264     1.0000 0.22293  0.01470  0.62267  Biso   1.000  C
  H204     1.0000 0.22733  0.02527  0.56517  Biso   1.000  H
  C265     1.0000 0.19419  0.97118  0.63867  Biso   1.000  C
  H205     1.0000 0.17893  0.95367  0.59117  Biso   1.000  H
  C266     1.0000 0.18767  0.95360  0.71857  Biso   1.000  C
  C267     1.0000 0.20733  0.98147  0.78937  Biso   1.000  C
  H206     1.0000 0.20143  0.97057  0.84667  Biso   1.000  H
  C268     1.0000 0.23537  0.02492  0.77647  Biso   1.000  C
  H207     1.0000 0.24813  0.04297  0.82477  Biso   1.000  H
  C269     1.0000 0.16072  0.90670  0.73657  Biso   1.000  C
  C270     1.0000 0.17914  0.88677  0.78497  Biso   1.000  C
  H208     1.0000 0.20773  0.90297  0.80237  Biso   1.000  H
  H209     1.0000 0.06003  0.89647  0.76267  Biso   1.000  H
  H210     1.0000 0.03333  0.92297  0.65187  Biso   1.000  H
  O61      1.0000 0.48080  0.03820  0.08050  Biso   1.000  O
  O62      1.0000 0.48665  0.05056  0.93300  Biso   1.000  O
  C271     1.0000 0.47860  0.05688  0.00940  Biso   1.000  C
  C272     1.0000 0.46385  0.08891  0.02370  Biso   1.000  C
  C273     1.0000 0.45843  0.11040  0.95600  Biso   1.000  C
  H211     1.0000 0.46460  0.10600  0.89850  Biso   1.000  H
  C274     1.0000 0.44365  0.13914  0.97200  Biso   1.000  C
  H212     1.0000 0.44140  0.15440  0.92450  Biso   1.000  H
  C275     1.0000 0.43259  0.14566  0.05190  Biso   1.000  C
  C276     1.0000 0.44080  0.12600  0.12270  Biso   1.000  C
  H213     1.0000 0.43580  0.13190  0.18000  Biso   1.000  H
  C277     1.0000 0.45621  0.09796  0.10980  Biso   1.000  C
  H214     1.0000 0.46150  0.08520  0.15810  Biso   1.000  H
  C278     1.0000 0.41264  0.17261  0.06990  Biso   1.000  C
  C279     1.0000 0.37429  0.15419  0.11830  Biso   1.000  C
  H215     1.0000 0.36190  0.12560  0.13570  Biso   1.000  H
  H216     1.0000 0.50310  0.27330  0.09600  Biso   1.000  H
  H217     1.0000 0.55630  0.30000  0.98520  Biso   1.000  H
  O63      1.0000 0.14747  0.37153  0.41383  Biso   1.000  O
  O64      1.0000 0.15332  0.38389  0.26633  Biso   1.000  O
  C280     1.0000 0.14527  0.39021  0.34273  Biso   1.000  C
  C281     1.0000 0.13052  0.42224  0.35703  Biso   1.000  C
  C282     1.0000 0.12510  0.44373  0.28933  Biso   1.000  C
  H218     1.0000 0.13127  0.43933  0.23183  Biso   1.000  H
  C283     1.0000 0.11032  0.47247  0.30533  Biso   1.000  C
  H219     1.0000 0.10807  0.48773  0.25783  Biso   1.000  H
  C284     1.0000 0.09926  0.47899  0.38523  Biso   1.000  C
  C285     1.0000 0.10747  0.45933  0.45603  Biso   1.000  C
  H220     1.0000 0.10247  0.46523  0.51333  Biso   1.000  H
  C286     1.0000 0.12288  0.43129  0.44313  Biso   1.000  C
  H221     1.0000 0.12817  0.41853  0.49143  Biso   1.000  H
  C287     1.0000 0.07931  0.50594  0.40323  Biso   1.000  C
  C288     1.0000 0.04096  0.48752  0.45163  Biso   1.000  C
  H222     1.0000 0.02857  0.45893  0.46903  Biso   1.000  H
  H223     1.0000 0.16977  0.60663  0.42933  Biso   1.000  H
  H224     1.0000 0.22297  0.63333  0.31853  Biso   1.000  H
  O65      1.0000 0.81413  0.70487  0.74717  Biso   1.000  O
  O66      1.0000 0.81998  0.71723  0.59967  Biso   1.000  O
  C289     1.0000 0.81193  0.72355  0.67607  Biso   1.000  C
  C290     1.0000 0.79718  0.75558  0.69037  Biso   1.000  C
  C291     1.0000 0.79176  0.77707  0.62267  Biso   1.000  C
  H225     1.0000 0.79793  0.77267  0.56517  Biso   1.000  H
  C292     1.0000 0.77698  0.80581  0.63867  Biso   1.000  C
  H226     1.0000 0.77473  0.82107  0.59117  Biso   1.000  H
  C293     1.0000 0.76592  0.81233  0.71857  Biso   1.000  C
  C294     1.0000 0.77413  0.79267  0.78937  Biso   1.000  C
  H227     1.0000 0.76913  0.79857  0.84667  Biso   1.000  H
  C295     1.0000 0.78954  0.76463  0.77647  Biso   1.000  C
  H228     1.0000 0.79483  0.75187  0.82477  Biso   1.000  H
  C296     1.0000 0.74597  0.83928  0.73657  Biso   1.000  C
  C297     1.0000 0.70762  0.82086  0.78497  Biso   1.000  C
  H229     1.0000 0.69523  0.79227  0.80237  Biso   1.000  H
  H230     1.0000 0.83643  0.93997  0.76267  Biso   1.000  H
  H231     1.0000 0.88963  0.96667  0.65187  Biso   1.000  H
  O67      1.0000 0.55740  0.51920  0.08050  Biso   1.000  O
  O68      1.0000 0.56391  0.51335  0.93300  Biso   1.000  O
  C298     1.0000 0.57828  0.52140  0.00940  Biso   1.000  C
  C299     1.0000 0.62506  0.53615  0.02370  Biso   1.000  C
  C300     1.0000 0.65197  0.54157  0.95600  Biso   1.000  C
  H232     1.0000 0.64140  0.53540  0.89850  Biso   1.000  H
  C301     1.0000 0.69549  0.55635  0.97200  Biso   1.000  C
  H233     1.0000 0.71300  0.55860  0.92450  Biso   1.000  H
  C302     1.0000 0.71307  0.56741  0.05190  Biso   1.000  C
  C303     1.0000 0.68520  0.55920  0.12270  Biso   1.000  C
  H234     1.0000 0.69610  0.56420  0.18000  Biso   1.000  H
  C304     1.0000 0.64175  0.54379  0.10980  Biso   1.000  C
  H235     1.0000 0.62370  0.53850  0.15810  Biso   1.000  H
  C305     1.0000 0.75997  0.58736  0.06990  Biso   1.000  C
  C306     1.0000 0.77990  0.62571  0.11830  Biso   1.000  C
  H236     1.0000 0.76370  0.63810  0.13570  Biso   1.000  H
  H237     1.0000 0.77020  0.49690  0.09600  Biso   1.000  H
  H238     1.0000 0.74370  0.44370  0.98520  Biso   1.000  H
  O69      1.0000 0.22407  0.85253  0.41383  Biso   1.000  O
  O70      1.0000 0.23058  0.84668  0.26633  Biso   1.000  O
  C307     1.0000 0.24495  0.85473  0.34273  Biso   1.000  C
  C308     1.0000 0.29173  0.86948  0.35703  Biso   1.000  C
  C309     1.0000 0.31864  0.87490  0.28933  Biso   1.000  C
  H239     1.0000 0.30807  0.86873  0.23183  Biso   1.000  H
  C310     1.0000 0.36216  0.88968  0.30533  Biso   1.000  C
  H240     1.0000 0.37967  0.89193  0.25783  Biso   1.000  H
  C311     1.0000 0.37974  0.90074  0.38523  Biso   1.000  C
  C312     1.0000 0.35187  0.89253  0.45603  Biso   1.000  C
  H241     1.0000 0.36277  0.89753  0.51333  Biso   1.000  H
  C313     1.0000 0.30842  0.87712  0.44313  Biso   1.000  C
  H242     1.0000 0.29037  0.87183  0.49143  Biso   1.000  H
  C314     1.0000 0.42664  0.92069  0.40323  Biso   1.000  C
  C315     1.0000 0.44657  0.95904  0.45163  Biso   1.000  C
  H243     1.0000 0.43037  0.97143  0.46903  Biso   1.000  H
  H244     1.0000 0.43687  0.83023  0.42933  Biso   1.000  H
  H245     1.0000 0.41037  0.77703  0.31853  Biso   1.000  H
  O71      1.0000 0.89073  0.18587  0.74717  Biso   1.000  O
  O72      1.0000 0.89724  0.18002  0.59967  Biso   1.000  O
  C316     1.0000 0.91161  0.18807  0.67607  Biso   1.000  C
  C317     1.0000 0.95839  0.20282  0.69037  Biso   1.000  C
  C318     1.0000 0.98530  0.20824  0.62267  Biso   1.000  C
  H246     1.0000 0.97473  0.20207  0.56517  Biso   1.000  H
  C319     1.0000 0.02882  0.22302  0.63867  Biso   1.000  C
  H247     1.0000 0.04633  0.22527  0.59117  Biso   1.000  H
  C320     1.0000 0.04640  0.23408  0.71857  Biso   1.000  C
  C321     1.0000 0.01853  0.22587  0.78937  Biso   1.000  C
  H248     1.0000 0.02943  0.23087  0.84667  Biso   1.000  H
  C322     1.0000 0.97508  0.21046  0.77647  Biso   1.000  C
  H249     1.0000 0.95703  0.20517  0.82477  Biso   1.000  H
  C323     1.0000 0.09330  0.25403  0.73657  Biso   1.000  C
  C324     1.0000 0.11323  0.29238  0.78497  Biso   1.000  C
  H250     1.0000 0.09703  0.30477  0.80237  Biso   1.000  H
  H251     1.0000 0.10353  0.16357  0.76267  Biso   1.000  H
  H252     1.0000 0.07703  0.11037  0.65187  Biso   1.000  H
  Cu1      1.0000 0.50335  0.00670  0.91397  Biso   1.000  Cu
  Cu2      1.0000 0.17002  0.34003  0.24730  Biso   1.000  Cu
  Cu3      1.0000 0.83668  0.67337  0.58064  Biso   1.000  Cu
  Cu4      1.0000 0.99330  0.49665  0.91397  Biso   1.000  Cu
  Cu5      1.0000 0.65997  0.82998  0.24730  Biso   1.000  Cu
  Cu6      1.0000 0.32663  0.16332  0.58064  Biso   1.000  Cu
  Cu7      1.0000 0.50335  0.49665  0.91397  Biso   1.000  Cu
  Cu8      1.0000 0.17002  0.82998  0.24730  Biso   1.000  Cu
  Cu9      1.0000 0.83668  0.16332  0.58064  Biso   1.000  Cu
  Cu10     1.0000 0.00670  0.50335  0.08603  Biso   1.000  Cu
  Cu11     1.0000 0.67337  0.83668  0.41936  Biso   1.000  Cu
  Cu12     1.0000 0.34003  0.17002  0.75270  Biso   1.000  Cu
  Cu13     1.0000 0.49665  0.99330  0.08603  Biso   1.000  Cu
  Cu14     1.0000 0.16332  0.32663  0.41936  Biso   1.000  Cu
  Cu15     1.0000 0.82998  0.65997  0.75270  Biso   1.000  Cu
  Cu16     1.0000 0.49665  0.50335  0.08603  Biso   1.000  Cu
  Cu17     1.0000 0.16332  0.83668  0.41936  Biso   1.000  Cu
  Cu18     1.0000 0.82998  0.17002  0.75270  Biso   1.000  Cu
  O73      1.0000 0.76537  0.23463  0.99660  Biso   1.000  O
  C325     1.0000 0.82287  0.17713  0.14110  Biso   1.000  C
  C326     1.0000 0.78438  0.21562  0.04600  Biso   1.000  C
  C327     1.0000 0.74710  0.25290  0.05830  Biso   1.000  C
  C328     1.0000 0.72400  0.27600  0.02090  Biso   1.000  C
  H253     1.0000 0.71380  0.28620  0.06880  Biso   1.000  H
  O74      1.0000 0.43204  0.56796  0.32993  Biso   1.000  O
  C329     1.0000 0.48954  0.51046  0.47443  Biso   1.000  C
  C330     1.0000 0.45105  0.54895  0.37933  Biso   1.000  C
  C331     1.0000 0.41377  0.58623  0.39163  Biso   1.000  C
  C332     1.0000 0.39067  0.60933  0.35423  Biso   1.000  C
  H254     1.0000 0.38047  0.61953  0.40213  Biso   1.000  H
  O75      1.0000 0.09870  0.90130  0.66327  Biso   1.000  O
  C333     1.0000 0.15620  0.84380  0.80777  Biso   1.000  C
  C334     1.0000 0.11771  0.88229  0.71267  Biso   1.000  C
  C335     1.0000 0.08043  0.91957  0.72497  Biso   1.000  C
  C336     1.0000 0.05733  0.94267  0.68757  Biso   1.000  C
  H255     1.0000 0.04713  0.95287  0.73547  Biso   1.000  H
  O76      1.0000 0.76537  0.53074  0.99660  Biso   1.000  O
  C337     1.0000 0.82287  0.64574  0.14110  Biso   1.000  C
  C338     1.0000 0.78438  0.56876  0.04600  Biso   1.000  C
  C339     1.0000 0.74710  0.49420  0.05830  Biso   1.000  C
  C340     1.0000 0.72400  0.44800  0.02090  Biso   1.000  C
  H256     1.0000 0.71380  0.42760  0.06880  Biso   1.000  H
  O77      1.0000 0.43204  0.86407  0.32993  Biso   1.000  O
  C341     1.0000 0.48954  0.97907  0.47443  Biso   1.000  C
  C342     1.0000 0.45105  0.90209  0.37933  Biso   1.000  C
  C343     1.0000 0.41377  0.82753  0.39163  Biso   1.000  C
  C344     1.0000 0.39067  0.78133  0.35423  Biso   1.000  C
  H257     1.0000 0.38047  0.76093  0.40213  Biso   1.000  H
  O78      1.0000 0.09870  0.19741  0.66327  Biso   1.000  O
  C345     1.0000 0.15620  0.31241  0.80777  Biso   1.000  C
  C346     1.0000 0.11771  0.23543  0.71267  Biso   1.000  C
  C347     1.0000 0.08043  0.16087  0.72497  Biso   1.000  C
  C348     1.0000 0.05733  0.11467  0.68757  Biso   1.000  C
  H258     1.0000 0.04713  0.09427  0.73547  Biso   1.000  H
  O79      1.0000 0.46926  0.23463  0.99660  Biso   1.000  O
  C349     1.0000 0.35426  0.17713  0.14110  Biso   1.000  C
  C350     1.0000 0.43124  0.21562  0.04600  Biso   1.000  C
  C351     1.0000 0.50580  0.25290  0.05830  Biso   1.000  C
  C352     1.0000 0.55200  0.27600  0.02090  Biso   1.000  C
  H259     1.0000 0.57240  0.28620  0.06880  Biso   1.000  H
  O80      1.0000 0.13593  0.56796  0.32993  Biso   1.000  O
  C353     1.0000 0.02093  0.51046  0.47443  Biso   1.000  C
  C354     1.0000 0.09791  0.54895  0.37933  Biso   1.000  C
  C355     1.0000 0.17247  0.58623  0.39163  Biso   1.000  C
  C356     1.0000 0.21867  0.60933  0.35423  Biso   1.000  C
  H260     1.0000 0.23907  0.61953  0.40213  Biso   1.000  H
  O81      1.0000 0.80259  0.90130  0.66327  Biso   1.000  O
  C357     1.0000 0.68759  0.84380  0.80777  Biso   1.000  C
  C358     1.0000 0.76457  0.88229  0.71267  Biso   1.000  C
  C359     1.0000 0.83913  0.91957  0.72497  Biso   1.000  C
  C360     1.0000 0.88533  0.94267  0.68757  Biso   1.000  C
  H261     1.0000 0.90573  0.95287  0.73547  Biso   1.000  H
  O82      1.0000 0.23463  0.76537  0.00340  Biso   1.000  O
  C361     1.0000 0.17713  0.82287  0.85890  Biso   1.000  C
  C362     1.0000 0.21562  0.78438  0.95400  Biso   1.000  C
  C363     1.0000 0.25290  0.74710  0.94170  Biso   1.000  C
  C364     1.0000 0.27600  0.72400  0.97910  Biso   1.000  C
  H262     1.0000 0.28620  0.71380  0.93120  Biso   1.000  H
  O83      1.0000 0.90130  0.09870  0.33673  Biso   1.000  O
  C365     1.0000 0.84380  0.15620  0.19223  Biso   1.000  C
  C366     1.0000 0.88229  0.11771  0.28733  Biso   1.000  C
  C367     1.0000 0.91957  0.08043  0.27503  Biso   1.000  C
  C368     1.0000 0.94267  0.05733  0.31243  Biso   1.000  C
  H263     1.0000 0.95287  0.04713  0.26453  Biso   1.000  H
  O84      1.0000 0.56796  0.43204  0.67007  Biso   1.000  O
  C369     1.0000 0.51046  0.48954  0.52557  Biso   1.000  C
  C370     1.0000 0.54895  0.45105  0.62067  Biso   1.000  C
  C371     1.0000 0.58623  0.41377  0.60837  Biso   1.000  C
  C372     1.0000 0.60933  0.39067  0.64577  Biso   1.000  C
  H264     1.0000 0.61953  0.38047  0.59787  Biso   1.000  H
  O85      1.0000 0.53074  0.76537  0.00340  Biso   1.000  O
  C373     1.0000 0.64574  0.82287  0.85890  Biso   1.000  C
  C374     1.0000 0.56876  0.78438  0.95400  Biso   1.000  C
  C375     1.0000 0.49420  0.74710  0.94170  Biso   1.000  C
  C376     1.0000 0.44800  0.72400  0.97910  Biso   1.000  C
  H265     1.0000 0.42760  0.71380  0.93120  Biso   1.000  H
  O86      1.0000 0.19741  0.09870  0.33673  Biso   1.000  O
  C377     1.0000 0.31241  0.15620  0.19223  Biso   1.000  C
  C378     1.0000 0.23543  0.11771  0.28733  Biso   1.000  C
  C379     1.0000 0.16087  0.08043  0.27503  Biso   1.000  C
  C380     1.0000 0.11467  0.05733  0.31243  Biso   1.000  C
  H266     1.0000 0.09427  0.04713  0.26453  Biso   1.000  H
  O87      1.0000 0.86407  0.43204  0.67007  Biso   1.000  O
  C381     1.0000 0.97907  0.48954  0.52557  Biso   1.000  C
  C382     1.0000 0.90209  0.45105  0.62067  Biso   1.000  C
  C383     1.0000 0.82753  0.41377  0.60837  Biso   1.000  C
  C384     1.0000 0.78133  0.39067  0.64577  Biso   1.000  C
  H267     1.0000 0.76093  0.38047  0.59787  Biso   1.000  H
  O88      1.0000 0.23463  0.46926  0.00340  Biso   1.000  O
  C385     1.0000 0.17713  0.35426  0.85890  Biso   1.000  C
  C386     1.0000 0.21562  0.43124  0.95400  Biso   1.000  C
  C387     1.0000 0.25290  0.50580  0.94170  Biso   1.000  C
  C388     1.0000 0.27600  0.55200  0.97910  Biso   1.000  C
  H268     1.0000 0.28620  0.57240  0.93120  Biso   1.000  H
  O89      1.0000 0.90130  0.80259  0.33673  Biso   1.000  O
  C389     1.0000 0.84380  0.68759  0.19223  Biso   1.000  C
  C390     1.0000 0.88229  0.76457  0.28733  Biso   1.000  C
  C391     1.0000 0.91957  0.83913  0.27503  Biso   1.000  C
  C392     1.0000 0.94267  0.88533  0.31243  Biso   1.000  C
  H269     1.0000 0.95287  0.90573  0.26453  Biso   1.000  H
  O90      1.0000 0.56796  0.13593  0.67007  Biso   1.000  O
  C393     1.0000 0.51046  0.02093  0.52557  Biso   1.000  C
  C394     1.0000 0.54895  0.09791  0.62067  Biso   1.000  C
  C395     1.0000 0.58623  0.17247  0.60837  Biso   1.000  C
  C396     1.0000 0.60933  0.21867  0.64577  Biso   1.000  C
  H270     1.0000 0.61953  0.23907  0.59787  Biso   1.000  H
