data_image0
_cell_length_a       35.304
_cell_length_b       35.304
_cell_length_c       20.6171
_cell_angle_alpha    90
_cell_angle_beta     90
_cell_angle_gamma    120

_symmetry_space_group_name_H-M    "P 1"
_symmetry_int_tables_number       1

loop_
  _symmetry_equiv_pos_as_xyz
  'x, y, z'

loop_
  _atom_site_label
  _atom_site_occupancy
  _atom_site_fract_x
  _atom_site_fract_y
  _atom_site_fract_z
  _atom_site_thermal_displace_type
  _atom_site_B_iso_or_equiv
  _atom_site_type_symbol
  O1       1.0000 0.63649  0.77936  0.40666  Biso   1.000  O
  O2       1.0000 0.61159  0.76695  0.30291  Biso   1.000  O
  C1       1.0000 0.61219  0.75564  0.36111  Biso   1.000  C
  C2       1.0000 0.57990  0.70878  0.37849  Biso   1.000  C
  C3       1.0000 0.55287  0.67928  0.33158  Biso   1.000  C
  H1       1.0000 0.55410  0.68870  0.28910  Biso   1.000  H
  C4       1.0000 0.52442  0.63653  0.34725  Biso   1.000  C
  H2       1.0000 0.50610  0.61750  0.31550  Biso   1.000  H
  C5       1.0000 0.52251  0.62112  0.40945  Biso   1.000  C
  C6       1.0000 0.54915  0.65051  0.45730  Biso   1.000  C
  H3       1.0000 0.54790  0.64120  0.49980  Biso   1.000  H
  C7       1.0000 0.57780  0.69426  0.44038  Biso   1.000  C
  H4       1.0000 0.59570  0.71380  0.47200  Biso   1.000  H
  C8       1.0000 0.49458  0.57405  0.42693  Biso   1.000  C
  C9       1.0000 0.51299  0.55385  0.46370  Biso   1.000  C
  H5       1.0000 0.54230  0.57040  0.47550  Biso   1.000  H
  H6       1.0000 0.43390  0.61090  0.43350  Biso   1.000  H
  H7       1.0000 0.37520  0.58040  0.32400  Biso   1.000  H
  O3       1.0000 0.30316  0.11269  0.73999  Biso   1.000  O
  O4       1.0000 0.27826  0.10028  0.63624  Biso   1.000  O
  C10      1.0000 0.27886  0.08897  0.69444  Biso   1.000  C
  C11      1.0000 0.24657  0.04211  0.71182  Biso   1.000  C
  C12      1.0000 0.21954  0.01261  0.66491  Biso   1.000  C
  H8       1.0000 0.22077  0.02203  0.62243  Biso   1.000  H
  C13      1.0000 0.19109  0.96986  0.68058  Biso   1.000  C
  H9       1.0000 0.17277  0.95083  0.64883  Biso   1.000  H
  C14      1.0000 0.18918  0.95445  0.74278  Biso   1.000  C
  C15      1.0000 0.21582  0.98384  0.79063  Biso   1.000  C
  H10      1.0000 0.21457  0.97453  0.83313  Biso   1.000  H
  C16      1.0000 0.24447  0.02759  0.77371  Biso   1.000  C
  H11      1.0000 0.26237  0.04713  0.80533  Biso   1.000  H
  C17      1.0000 0.16125  0.90738  0.76026  Biso   1.000  C
  C18      1.0000 0.17966  0.88718  0.79703  Biso   1.000  C
  H12      1.0000 0.20897  0.90373  0.80883  Biso   1.000  H
  H13      1.0000 0.10057  0.94423  0.76683  Biso   1.000  H
  H14      1.0000 0.04187  0.91373  0.65733  Biso   1.000  H
  O5       1.0000 0.96982  0.44603  0.07333  Biso   1.000  O
  O6       1.0000 0.94492  0.43362  0.96958  Biso   1.000  O
  C19      1.0000 0.94552  0.42231  0.02778  Biso   1.000  C
  C20      1.0000 0.91323  0.37545  0.04516  Biso   1.000  C
  C21      1.0000 0.88620  0.34595  0.99825  Biso   1.000  C
  H15      1.0000 0.88743  0.35537  0.95577  Biso   1.000  H
  C22      1.0000 0.85775  0.30320  0.01392  Biso   1.000  C
  H16      1.0000 0.83943  0.28417  0.98217  Biso   1.000  H
  C23      1.0000 0.85584  0.28779  0.07612  Biso   1.000  C
  C24      1.0000 0.88248  0.31718  0.12397  Biso   1.000  C
  H17      1.0000 0.88123  0.30787  0.16647  Biso   1.000  H
  C25      1.0000 0.91113  0.36093  0.10705  Biso   1.000  C
  H18      1.0000 0.92903  0.38047  0.13867  Biso   1.000  H
  C26      1.0000 0.82791  0.24072  0.09360  Biso   1.000  C
  C27      1.0000 0.84632  0.22052  0.13037  Biso   1.000  C
  H19      1.0000 0.87563  0.23707  0.14217  Biso   1.000  H
  H20      1.0000 0.76723  0.27757  0.10017  Biso   1.000  H
  H21      1.0000 0.70853  0.24707  0.99067  Biso   1.000  H
  O7       1.0000 0.22064  0.85713  0.40666  Biso   1.000  O
  O8       1.0000 0.23305  0.84464  0.30291  Biso   1.000  O
  C28      1.0000 0.24436  0.85655  0.36111  Biso   1.000  C
  C29      1.0000 0.29122  0.87112  0.37849  Biso   1.000  C
  C30      1.0000 0.32072  0.87359  0.33158  Biso   1.000  C
  H22      1.0000 0.31130  0.86540  0.28910  Biso   1.000  H
  C31      1.0000 0.36347  0.88789  0.34725  Biso   1.000  C
  H23      1.0000 0.38250  0.88860  0.31550  Biso   1.000  H
  C32      1.0000 0.37888  0.90139  0.40945  Biso   1.000  C
  C33      1.0000 0.34949  0.89864  0.45730  Biso   1.000  C
  H24      1.0000 0.35880  0.90670  0.49980  Biso   1.000  H
  C34      1.0000 0.30574  0.88354  0.44038  Biso   1.000  C
  H25      1.0000 0.28620  0.88190  0.47200  Biso   1.000  H
  C35      1.0000 0.42595  0.92053  0.42693  Biso   1.000  C
  C36      1.0000 0.44615  0.95914  0.46370  Biso   1.000  C
  H26      1.0000 0.42960  0.97190  0.47550  Biso   1.000  H
  H27      1.0000 0.38910  0.82300  0.43350  Biso   1.000  H
  H28      1.0000 0.41960  0.79480  0.32400  Biso   1.000  H
  O9       1.0000 0.88731  0.19046  0.73999  Biso   1.000  O
  O10      1.0000 0.89972  0.17797  0.63624  Biso   1.000  O
  C37      1.0000 0.91103  0.18988  0.69444  Biso   1.000  C
  C38      1.0000 0.95789  0.20445  0.71182  Biso   1.000  C
  C39      1.0000 0.98739  0.20692  0.66491  Biso   1.000  C
  H29      1.0000 0.97797  0.19873  0.62243  Biso   1.000  H
  C40      1.0000 0.03014  0.22122  0.68058  Biso   1.000  C
  H30      1.0000 0.04917  0.22193  0.64883  Biso   1.000  H
  C41      1.0000 0.04555  0.23472  0.74278  Biso   1.000  C
  C42      1.0000 0.01616  0.23197  0.79063  Biso   1.000  C
  H31      1.0000 0.02547  0.24003  0.83313  Biso   1.000  H
  C43      1.0000 0.97241  0.21687  0.77371  Biso   1.000  C
  H32      1.0000 0.95287  0.21523  0.80533  Biso   1.000  H
  C44      1.0000 0.09262  0.25386  0.76026  Biso   1.000  C
  C45      1.0000 0.11282  0.29247  0.79703  Biso   1.000  C
  H33      1.0000 0.09627  0.30523  0.80883  Biso   1.000  H
  H34      1.0000 0.05577  0.15633  0.76683  Biso   1.000  H
  H35      1.0000 0.08627  0.12813  0.65733  Biso   1.000  H
  O11      1.0000 0.55397  0.52380  0.07333  Biso   1.000  O
  O12      1.0000 0.56638  0.51131  0.96958  Biso   1.000  O
  C46      1.0000 0.57769  0.52322  0.02778  Biso   1.000  C
  C47      1.0000 0.62455  0.53779  0.04516  Biso   1.000  C
  C48      1.0000 0.65405  0.54026  0.99825  Biso   1.000  C
  H36      1.0000 0.64463  0.53207  0.95577  Biso   1.000  H
  C49      1.0000 0.69680  0.55456  0.01392  Biso   1.000  C
  H37      1.0000 0.71583  0.55527  0.98217  Biso   1.000  H
  C50      1.0000 0.71221  0.56806  0.07612  Biso   1.000  C
  C51      1.0000 0.68282  0.56531  0.12397  Biso   1.000  C
  H38      1.0000 0.69213  0.57337  0.16647  Biso   1.000  H
  C52      1.0000 0.63907  0.55021  0.10705  Biso   1.000  C
  H39      1.0000 0.61953  0.54857  0.13867  Biso   1.000  H
  C53      1.0000 0.75928  0.58720  0.09360  Biso   1.000  C
  C54      1.0000 0.77948  0.62581  0.13037  Biso   1.000  C
  H40      1.0000 0.76293  0.63857  0.14217  Biso   1.000  H
  H41      1.0000 0.72243  0.48967  0.10017  Biso   1.000  H
  H42      1.0000 0.75293  0.46147  0.99067  Biso   1.000  H
  O13      1.0000 0.14287  0.36351  0.40666  Biso   1.000  O
  O14      1.0000 0.15536  0.38841  0.30291  Biso   1.000  O
  C55      1.0000 0.14345  0.38781  0.36111  Biso   1.000  C
  C56      1.0000 0.12888  0.42010  0.37849  Biso   1.000  C
  C57      1.0000 0.12641  0.44713  0.33158  Biso   1.000  C
  H43      1.0000 0.13460  0.44590  0.28910  Biso   1.000  H
  C58      1.0000 0.11211  0.47558  0.34725  Biso   1.000  C
  H44      1.0000 0.11140  0.49390  0.31550  Biso   1.000  H
  C59      1.0000 0.09861  0.47749  0.40945  Biso   1.000  C
  C60      1.0000 0.10136  0.45085  0.45730  Biso   1.000  C
  H45      1.0000 0.09330  0.45210  0.49980  Biso   1.000  H
  C61      1.0000 0.11646  0.42220  0.44038  Biso   1.000  C
  H46      1.0000 0.11810  0.40430  0.47200  Biso   1.000  H
  C62      1.0000 0.07947  0.50542  0.42693  Biso   1.000  C
  C63      1.0000 0.04086  0.48701  0.46370  Biso   1.000  C
  H47      1.0000 0.02810  0.45770  0.47550  Biso   1.000  H
  H48      1.0000 0.17700  0.56610  0.43350  Biso   1.000  H
  H49      1.0000 0.20520  0.62480  0.32400  Biso   1.000  H
  O15      1.0000 0.80954  0.69684  0.73999  Biso   1.000  O
  O16      1.0000 0.82203  0.72174  0.63624  Biso   1.000  O
  C64      1.0000 0.81012  0.72114  0.69444  Biso   1.000  C
  C65      1.0000 0.79555  0.75343  0.71182  Biso   1.000  C
  C66      1.0000 0.79308  0.78046  0.66491  Biso   1.000  C
  H50      1.0000 0.80127  0.77923  0.62243  Biso   1.000  H
  C67      1.0000 0.77878  0.80891  0.68058  Biso   1.000  C
  H51      1.0000 0.77807  0.82723  0.64883  Biso   1.000  H
  C68      1.0000 0.76528  0.81082  0.74278  Biso   1.000  C
  C69      1.0000 0.76803  0.78418  0.79063  Biso   1.000  C
  H52      1.0000 0.75997  0.78543  0.83313  Biso   1.000  H
  C70      1.0000 0.78313  0.75553  0.77371  Biso   1.000  C
  H53      1.0000 0.78477  0.73763  0.80533  Biso   1.000  H
  C71      1.0000 0.74614  0.83875  0.76026  Biso   1.000  C
  C72      1.0000 0.70753  0.82034  0.79703  Biso   1.000  C
  H54      1.0000 0.69477  0.79103  0.80883  Biso   1.000  H
  H55      1.0000 0.84367  0.89943  0.76683  Biso   1.000  H
  H56      1.0000 0.87187  0.95813  0.65733  Biso   1.000  H
  O17      1.0000 0.47620  0.03018  0.07333  Biso   1.000  O
  O18      1.0000 0.48869  0.05508  0.96958  Biso   1.000  O
  C73      1.0000 0.47678  0.05448  0.02778  Biso   1.000  C
  C74      1.0000 0.46221  0.08677  0.04516  Biso   1.000  C
  C75      1.0000 0.45974  0.11380  0.99825  Biso   1.000  C
  H57      1.0000 0.46793  0.11257  0.95577  Biso   1.000  H
  C76      1.0000 0.44544  0.14225  0.01392  Biso   1.000  C
  H58      1.0000 0.44473  0.16057  0.98217  Biso   1.000  H
  C77      1.0000 0.43194  0.14416  0.07612  Biso   1.000  C
  C78      1.0000 0.43469  0.11752  0.12397  Biso   1.000  C
  H59      1.0000 0.42663  0.11877  0.16647  Biso   1.000  H
  C79      1.0000 0.44979  0.08887  0.10705  Biso   1.000  C
  H60      1.0000 0.45143  0.07097  0.13867  Biso   1.000  H
  C80      1.0000 0.41280  0.17209  0.09360  Biso   1.000  C
  C81      1.0000 0.37419  0.15368  0.13037  Biso   1.000  C
  H61      1.0000 0.36143  0.12437  0.14217  Biso   1.000  H
  H62      1.0000 0.51033  0.23277  0.10017  Biso   1.000  H
  H63      1.0000 0.53853  0.29147  0.99067  Biso   1.000  H
  O19      1.0000 0.77936  0.63649  0.59334  Biso   1.000  O
  O20      1.0000 0.76695  0.61159  0.69709  Biso   1.000  O
  C82      1.0000 0.75564  0.61219  0.63889  Biso   1.000  C
  C83      1.0000 0.70878  0.57990  0.62151  Biso   1.000  C
  C84      1.0000 0.67928  0.55287  0.66842  Biso   1.000  C
  H64      1.0000 0.68870  0.55410  0.71090  Biso   1.000  H
  C85      1.0000 0.63653  0.52442  0.65275  Biso   1.000  C
  H65      1.0000 0.61750  0.50610  0.68450  Biso   1.000  H
  C86      1.0000 0.62112  0.52251  0.59055  Biso   1.000  C
  C87      1.0000 0.65051  0.54915  0.54270  Biso   1.000  C
  H66      1.0000 0.64120  0.54790  0.50020  Biso   1.000  H
  C88      1.0000 0.69426  0.57780  0.55962  Biso   1.000  C
  H67      1.0000 0.71380  0.59570  0.52800  Biso   1.000  H
  C89      1.0000 0.57405  0.49458  0.57307  Biso   1.000  C
  C90      1.0000 0.55385  0.51299  0.53630  Biso   1.000  C
  H68      1.0000 0.57040  0.54230  0.52450  Biso   1.000  H
  H69      1.0000 0.61090  0.43390  0.56650  Biso   1.000  H
  H70      1.0000 0.58040  0.37520  0.67600  Biso   1.000  H
  O21      1.0000 0.44603  0.96982  0.92667  Biso   1.000  O
  O22      1.0000 0.43362  0.94492  0.03042  Biso   1.000  O
  C91      1.0000 0.42231  0.94552  0.97222  Biso   1.000  C
  C92      1.0000 0.37545  0.91323  0.95484  Biso   1.000  C
  C93      1.0000 0.34595  0.88620  0.00175  Biso   1.000  C
  H71      1.0000 0.35537  0.88743  0.04423  Biso   1.000  H
  C94      1.0000 0.30320  0.85775  0.98608  Biso   1.000  C
  H72      1.0000 0.28417  0.83943  0.01783  Biso   1.000  H
  C95      1.0000 0.28779  0.85584  0.92388  Biso   1.000  C
  C96      1.0000 0.31718  0.88248  0.87603  Biso   1.000  C
  H73      1.0000 0.30787  0.88123  0.83353  Biso   1.000  H
  C97      1.0000 0.36093  0.91113  0.89295  Biso   1.000  C
  H74      1.0000 0.38047  0.92903  0.86133  Biso   1.000  H
  C98      1.0000 0.24072  0.82791  0.90640  Biso   1.000  C
  C99      1.0000 0.22052  0.84632  0.86963  Biso   1.000  C
  H75      1.0000 0.23707  0.87563  0.85783  Biso   1.000  H
  H76      1.0000 0.27757  0.76723  0.89983  Biso   1.000  H
  H77      1.0000 0.24707  0.70853  0.00933  Biso   1.000  H
  O23      1.0000 0.11269  0.30316  0.26001  Biso   1.000  O
  O24      1.0000 0.10028  0.27826  0.36376  Biso   1.000  O
  C100     1.0000 0.08897  0.27886  0.30556  Biso   1.000  C
  C101     1.0000 0.04211  0.24657  0.28818  Biso   1.000  C
  C102     1.0000 0.01261  0.21954  0.33509  Biso   1.000  C
  H78      1.0000 0.02203  0.22077  0.37757  Biso   1.000  H
  C103     1.0000 0.96986  0.19109  0.31942  Biso   1.000  C
  H79      1.0000 0.95083  0.17277  0.35117  Biso   1.000  H
  C104     1.0000 0.95445  0.18918  0.25722  Biso   1.000  C
  C105     1.0000 0.98384  0.21582  0.20937  Biso   1.000  C
  H80      1.0000 0.97453  0.21457  0.16687  Biso   1.000  H
  C106     1.0000 0.02759  0.24447  0.22629  Biso   1.000  C
  H81      1.0000 0.04713  0.26237  0.19467  Biso   1.000  H
  C107     1.0000 0.90738  0.16125  0.23974  Biso   1.000  C
  C108     1.0000 0.88718  0.17966  0.20297  Biso   1.000  C
  H82      1.0000 0.90373  0.20897  0.19117  Biso   1.000  H
  H83      1.0000 0.94423  0.10057  0.23317  Biso   1.000  H
  H84      1.0000 0.91373  0.04187  0.34267  Biso   1.000  H
  O25      1.0000 0.85713  0.22064  0.59334  Biso   1.000  O
  O26      1.0000 0.84464  0.23305  0.69709  Biso   1.000  O
  C109     1.0000 0.85655  0.24436  0.63889  Biso   1.000  C
  C110     1.0000 0.87112  0.29122  0.62151  Biso   1.000  C
  C111     1.0000 0.87359  0.32072  0.66842  Biso   1.000  C
  H85      1.0000 0.86540  0.31130  0.71090  Biso   1.000  H
  C112     1.0000 0.88789  0.36347  0.65275  Biso   1.000  C
  H86      1.0000 0.88860  0.38250  0.68450  Biso   1.000  H
  C113     1.0000 0.90139  0.37888  0.59055  Biso   1.000  C
  C114     1.0000 0.89864  0.34949  0.54270  Biso   1.000  C
  H87      1.0000 0.90670  0.35880  0.50020  Biso   1.000  H
  C115     1.0000 0.88354  0.30574  0.55962  Biso   1.000  C
  H88      1.0000 0.88190  0.28620  0.52800  Biso   1.000  H
  C116     1.0000 0.92053  0.42595  0.57307  Biso   1.000  C
  C117     1.0000 0.95914  0.44615  0.53630  Biso   1.000  C
  H89      1.0000 0.97190  0.42960  0.52450  Biso   1.000  H
  H90      1.0000 0.82300  0.38910  0.56650  Biso   1.000  H
  H91      1.0000 0.79480  0.41960  0.67600  Biso   1.000  H
  O27      1.0000 0.52380  0.55397  0.92667  Biso   1.000  O
  O28      1.0000 0.51131  0.56638  0.03042  Biso   1.000  O
  C118     1.0000 0.52322  0.57769  0.97222  Biso   1.000  C
  C119     1.0000 0.53779  0.62455  0.95484  Biso   1.000  C
  C120     1.0000 0.54026  0.65405  0.00175  Biso   1.000  C
  H92      1.0000 0.53207  0.64463  0.04423  Biso   1.000  H
  C121     1.0000 0.55456  0.69680  0.98608  Biso   1.000  C
  H93      1.0000 0.55527  0.71583  0.01783  Biso   1.000  H
  C122     1.0000 0.56806  0.71221  0.92388  Biso   1.000  C
  C123     1.0000 0.56531  0.68282  0.87603  Biso   1.000  C
  H94      1.0000 0.57337  0.69213  0.83353  Biso   1.000  H
  C124     1.0000 0.55021  0.63907  0.89295  Biso   1.000  C
  H95      1.0000 0.54857  0.61953  0.86133  Biso   1.000  H
  C125     1.0000 0.58720  0.75928  0.90640  Biso   1.000  C
  C126     1.0000 0.62581  0.77948  0.86963  Biso   1.000  C
  H96      1.0000 0.63857  0.76293  0.85783  Biso   1.000  H
  H97      1.0000 0.48967  0.72243  0.89983  Biso   1.000  H
  H98      1.0000 0.46147  0.75293  0.00933  Biso   1.000  H
  O29      1.0000 0.19046  0.88731  0.26001  Biso   1.000  O
  O30      1.0000 0.17797  0.89972  0.36376  Biso   1.000  O
  C127     1.0000 0.18988  0.91103  0.30556  Biso   1.000  C
  C128     1.0000 0.20445  0.95789  0.28818  Biso   1.000  C
  C129     1.0000 0.20692  0.98739  0.33509  Biso   1.000  C
  H99      1.0000 0.19873  0.97797  0.37757  Biso   1.000  H
  C130     1.0000 0.22122  0.03014  0.31942  Biso   1.000  C
  H100     1.0000 0.22193  0.04917  0.35117  Biso   1.000  H
  C131     1.0000 0.23472  0.04555  0.25722  Biso   1.000  C
  C132     1.0000 0.23197  0.01616  0.20937  Biso   1.000  C
  H101     1.0000 0.24003  0.02547  0.16687  Biso   1.000  H
  C133     1.0000 0.21687  0.97241  0.22629  Biso   1.000  C
  H102     1.0000 0.21523  0.95287  0.19467  Biso   1.000  H
  C134     1.0000 0.25386  0.09262  0.23974  Biso   1.000  C
  C135     1.0000 0.29247  0.11282  0.20297  Biso   1.000  C
  H103     1.0000 0.30523  0.09627  0.19117  Biso   1.000  H
  H104     1.0000 0.15633  0.05577  0.23317  Biso   1.000  H
  H105     1.0000 0.12813  0.08627  0.34267  Biso   1.000  H
  O31      1.0000 0.36351  0.14287  0.59334  Biso   1.000  O
  O32      1.0000 0.38841  0.15536  0.69709  Biso   1.000  O
  C136     1.0000 0.38781  0.14345  0.63889  Biso   1.000  C
  C137     1.0000 0.42010  0.12888  0.62151  Biso   1.000  C
  C138     1.0000 0.44713  0.12641  0.66842  Biso   1.000  C
  H106     1.0000 0.44590  0.13460  0.71090  Biso   1.000  H
  C139     1.0000 0.47558  0.11211  0.65275  Biso   1.000  C
  H107     1.0000 0.49390  0.11140  0.68450  Biso   1.000  H
  C140     1.0000 0.47749  0.09861  0.59055  Biso   1.000  C
  C141     1.0000 0.45085  0.10136  0.54270  Biso   1.000  C
  H108     1.0000 0.45210  0.09330  0.50020  Biso   1.000  H
  C142     1.0000 0.42220  0.11646  0.55962  Biso   1.000  C
  H109     1.0000 0.40430  0.11810  0.52800  Biso   1.000  H
  C143     1.0000 0.50542  0.07947  0.57307  Biso   1.000  C
  C144     1.0000 0.48701  0.04086  0.53630  Biso   1.000  C
  H110     1.0000 0.45770  0.02810  0.52450  Biso   1.000  H
  H111     1.0000 0.56610  0.17700  0.56650  Biso   1.000  H
  H112     1.0000 0.62480  0.20520  0.67600  Biso   1.000  H
  O33      1.0000 0.03018  0.47620  0.92667  Biso   1.000  O
  O34      1.0000 0.05508  0.48869  0.03042  Biso   1.000  O
  C145     1.0000 0.05448  0.47678  0.97222  Biso   1.000  C
  C146     1.0000 0.08677  0.46221  0.95484  Biso   1.000  C
  C147     1.0000 0.11380  0.45974  0.00175  Biso   1.000  C
  H113     1.0000 0.11257  0.46793  0.04423  Biso   1.000  H
  C148     1.0000 0.14225  0.44544  0.98608  Biso   1.000  C
  H114     1.0000 0.16057  0.44473  0.01783  Biso   1.000  H
  C149     1.0000 0.14416  0.43194  0.92388  Biso   1.000  C
  C150     1.0000 0.11752  0.43469  0.87603  Biso   1.000  C
  H115     1.0000 0.11877  0.42663  0.83353  Biso   1.000  H
  C151     1.0000 0.08887  0.44979  0.89295  Biso   1.000  C
  H116     1.0000 0.07097  0.45143  0.86133  Biso   1.000  H
  C152     1.0000 0.17209  0.41280  0.90640  Biso   1.000  C
  C153     1.0000 0.15368  0.37419  0.86963  Biso   1.000  C
  H117     1.0000 0.12437  0.36143  0.85783  Biso   1.000  H
  H118     1.0000 0.23277  0.51033  0.89983  Biso   1.000  H
  H119     1.0000 0.29147  0.53853  0.00933  Biso   1.000  H
  O35      1.0000 0.69684  0.80954  0.26001  Biso   1.000  O
  O36      1.0000 0.72174  0.82203  0.36376  Biso   1.000  O
  C154     1.0000 0.72114  0.81012  0.30556  Biso   1.000  C
  C155     1.0000 0.75343  0.79555  0.28818  Biso   1.000  C
  C156     1.0000 0.78046  0.79308  0.33509  Biso   1.000  C
  H120     1.0000 0.77923  0.80127  0.37757  Biso   1.000  H
  C157     1.0000 0.80891  0.77878  0.31942  Biso   1.000  C
  H121     1.0000 0.82723  0.77807  0.35117  Biso   1.000  H
  C158     1.0000 0.81082  0.76528  0.25722  Biso   1.000  C
  C159     1.0000 0.78418  0.76803  0.20937  Biso   1.000  C
  H122     1.0000 0.78543  0.75997  0.16687  Biso   1.000  H
  C160     1.0000 0.75553  0.78313  0.22629  Biso   1.000  C
  H123     1.0000 0.73763  0.78477  0.19467  Biso   1.000  H
  C161     1.0000 0.83875  0.74614  0.23974  Biso   1.000  C
  C162     1.0000 0.82034  0.70753  0.20297  Biso   1.000  C
  H124     1.0000 0.79103  0.69477  0.19117  Biso   1.000  H
  H125     1.0000 0.89943  0.84367  0.23317  Biso   1.000  H
  H126     1.0000 0.95813  0.87187  0.34267  Biso   1.000  H
  O37      1.0000 0.36351  0.22064  0.59334  Biso   1.000  O
  O38      1.0000 0.38841  0.23305  0.69709  Biso   1.000  O
  C163     1.0000 0.38781  0.24436  0.63889  Biso   1.000  C
  C164     1.0000 0.42010  0.29122  0.62151  Biso   1.000  C
  C165     1.0000 0.44713  0.32072  0.66842  Biso   1.000  C
  H127     1.0000 0.44590  0.31130  0.71090  Biso   1.000  H
  C166     1.0000 0.47558  0.36347  0.65275  Biso   1.000  C
  H128     1.0000 0.49390  0.38250  0.68450  Biso   1.000  H
  C167     1.0000 0.47749  0.37888  0.59055  Biso   1.000  C
  C168     1.0000 0.45085  0.34949  0.54270  Biso   1.000  C
  H129     1.0000 0.45210  0.35880  0.50020  Biso   1.000  H
  C169     1.0000 0.42220  0.30574  0.55962  Biso   1.000  C
  H130     1.0000 0.40430  0.28620  0.52800  Biso   1.000  H
  C170     1.0000 0.50542  0.42595  0.57307  Biso   1.000  C
  C171     1.0000 0.48701  0.44615  0.53630  Biso   1.000  C
  H131     1.0000 0.45770  0.42960  0.52450  Biso   1.000  H
  H132     1.0000 0.56610  0.38910  0.56650  Biso   1.000  H
  H133     1.0000 0.62480  0.41960  0.67600  Biso   1.000  H
  O39      1.0000 0.03018  0.55397  0.92667  Biso   1.000  O
  O40      1.0000 0.05508  0.56638  0.03042  Biso   1.000  O
  C172     1.0000 0.05448  0.57769  0.97222  Biso   1.000  C
  C173     1.0000 0.08677  0.62455  0.95484  Biso   1.000  C
  C174     1.0000 0.11380  0.65405  0.00175  Biso   1.000  C
  H134     1.0000 0.11257  0.64463  0.04423  Biso   1.000  H
  C175     1.0000 0.14225  0.69680  0.98608  Biso   1.000  C
  H135     1.0000 0.16057  0.71583  0.01783  Biso   1.000  H
  C176     1.0000 0.14416  0.71221  0.92388  Biso   1.000  C
  C177     1.0000 0.11752  0.68282  0.87603  Biso   1.000  C
  H136     1.0000 0.11877  0.69213  0.83353  Biso   1.000  H
  C178     1.0000 0.08887  0.63907  0.89295  Biso   1.000  C
  H137     1.0000 0.07097  0.61953  0.86133  Biso   1.000  H
  C179     1.0000 0.17209  0.75928  0.90640  Biso   1.000  C
  C180     1.0000 0.15368  0.77948  0.86963  Biso   1.000  C
  H138     1.0000 0.12437  0.76293  0.85783  Biso   1.000  H
  H139     1.0000 0.23277  0.72243  0.89983  Biso   1.000  H
  H140     1.0000 0.29147  0.75293  0.00933  Biso   1.000  H
  O41      1.0000 0.69684  0.88731  0.26001  Biso   1.000  O
  O42      1.0000 0.72174  0.89972  0.36376  Biso   1.000  O
  C181     1.0000 0.72114  0.91103  0.30556  Biso   1.000  C
  C182     1.0000 0.75343  0.95789  0.28818  Biso   1.000  C
  C183     1.0000 0.78046  0.98739  0.33509  Biso   1.000  C
  H141     1.0000 0.77923  0.97797  0.37757  Biso   1.000  H
  C184     1.0000 0.80891  0.03014  0.31942  Biso   1.000  C
  H142     1.0000 0.82723  0.04917  0.35117  Biso   1.000  H
  C185     1.0000 0.81082  0.04555  0.25722  Biso   1.000  C
  C186     1.0000 0.78418  0.01616  0.20937  Biso   1.000  C
  H143     1.0000 0.78543  0.02547  0.16687  Biso   1.000  H
  C187     1.0000 0.75553  0.97241  0.22629  Biso   1.000  C
  H144     1.0000 0.73763  0.95287  0.19467  Biso   1.000  H
  C188     1.0000 0.83875  0.09262  0.23974  Biso   1.000  C
  C189     1.0000 0.82034  0.11282  0.20297  Biso   1.000  C
  H145     1.0000 0.79103  0.09627  0.19117  Biso   1.000  H
  H146     1.0000 0.89943  0.05577  0.23317  Biso   1.000  H
  H147     1.0000 0.95813  0.08627  0.34267  Biso   1.000  H
  O43      1.0000 0.77936  0.14287  0.59334  Biso   1.000  O
  O44      1.0000 0.76695  0.15536  0.69709  Biso   1.000  O
  C190     1.0000 0.75564  0.14345  0.63889  Biso   1.000  C
  C191     1.0000 0.70878  0.12888  0.62151  Biso   1.000  C
  C192     1.0000 0.67928  0.12641  0.66842  Biso   1.000  C
  H148     1.0000 0.68870  0.13460  0.71090  Biso   1.000  H
  C193     1.0000 0.63653  0.11211  0.65275  Biso   1.000  C
  H149     1.0000 0.61750  0.11140  0.68450  Biso   1.000  H
  C194     1.0000 0.62112  0.09861  0.59055  Biso   1.000  C
  C195     1.0000 0.65051  0.10136  0.54270  Biso   1.000  C
  H150     1.0000 0.64120  0.09330  0.50020  Biso   1.000  H
  C196     1.0000 0.69426  0.11646  0.55962  Biso   1.000  C
  H151     1.0000 0.71380  0.11810  0.52800  Biso   1.000  H
  C197     1.0000 0.57405  0.07947  0.57307  Biso   1.000  C
  C198     1.0000 0.55385  0.04086  0.53630  Biso   1.000  C
  H152     1.0000 0.57040  0.02810  0.52450  Biso   1.000  H
  H153     1.0000 0.61090  0.17700  0.56650  Biso   1.000  H
  H154     1.0000 0.58040  0.20520  0.67600  Biso   1.000  H
  O45      1.0000 0.44603  0.47620  0.92667  Biso   1.000  O
  O46      1.0000 0.43362  0.48869  0.03042  Biso   1.000  O
  C199     1.0000 0.42231  0.47678  0.97222  Biso   1.000  C
  C200     1.0000 0.37545  0.46221  0.95484  Biso   1.000  C
  C201     1.0000 0.34595  0.45974  0.00175  Biso   1.000  C
  H155     1.0000 0.35537  0.46793  0.04423  Biso   1.000  H
  C202     1.0000 0.30320  0.44544  0.98608  Biso   1.000  C
  H156     1.0000 0.28417  0.44473  0.01783  Biso   1.000  H
  C203     1.0000 0.28779  0.43194  0.92388  Biso   1.000  C
  C204     1.0000 0.31718  0.43469  0.87603  Biso   1.000  C
  H157     1.0000 0.30787  0.42663  0.83353  Biso   1.000  H
  C205     1.0000 0.36093  0.44979  0.89295  Biso   1.000  C
  H158     1.0000 0.38047  0.45143  0.86133  Biso   1.000  H
  C206     1.0000 0.24072  0.41280  0.90640  Biso   1.000  C
  C207     1.0000 0.22052  0.37419  0.86963  Biso   1.000  C
  H159     1.0000 0.23707  0.36143  0.85783  Biso   1.000  H
  H160     1.0000 0.27757  0.51033  0.89983  Biso   1.000  H
  H161     1.0000 0.24707  0.53853  0.00933  Biso   1.000  H
  O47      1.0000 0.11269  0.80954  0.26001  Biso   1.000  O
  O48      1.0000 0.10028  0.82203  0.36376  Biso   1.000  O
  C208     1.0000 0.08897  0.81012  0.30556  Biso   1.000  C
  C209     1.0000 0.04211  0.79555  0.28818  Biso   1.000  C
  C210     1.0000 0.01261  0.79308  0.33509  Biso   1.000  C
  H162     1.0000 0.02203  0.80127  0.37757  Biso   1.000  H
  C211     1.0000 0.96986  0.77878  0.31942  Biso   1.000  C
  H163     1.0000 0.95083  0.77807  0.35117  Biso   1.000  H
  C212     1.0000 0.95445  0.76528  0.25722  Biso   1.000  C
  C213     1.0000 0.98384  0.76803  0.20937  Biso   1.000  C
  H164     1.0000 0.97453  0.75997  0.16687  Biso   1.000  H
  C214     1.0000 0.02759  0.78313  0.22629  Biso   1.000  C
  H165     1.0000 0.04713  0.78477  0.19467  Biso   1.000  H
  C215     1.0000 0.90738  0.74614  0.23974  Biso   1.000  C
  C216     1.0000 0.88718  0.70753  0.20297  Biso   1.000  C
  H166     1.0000 0.90373  0.69477  0.19117  Biso   1.000  H
  H167     1.0000 0.94423  0.84367  0.23317  Biso   1.000  H
  H168     1.0000 0.91373  0.87187  0.34267  Biso   1.000  H
  O49      1.0000 0.85713  0.63649  0.59334  Biso   1.000  O
  O50      1.0000 0.84464  0.61159  0.69709  Biso   1.000  O
  C217     1.0000 0.85655  0.61219  0.63889  Biso   1.000  C
  C218     1.0000 0.87112  0.57990  0.62151  Biso   1.000  C
  C219     1.0000 0.87359  0.55287  0.66842  Biso   1.000  C
  H169     1.0000 0.86540  0.55410  0.71090  Biso   1.000  H
  C220     1.0000 0.88789  0.52442  0.65275  Biso   1.000  C
  H170     1.0000 0.88860  0.50610  0.68450  Biso   1.000  H
  C221     1.0000 0.90139  0.52251  0.59055  Biso   1.000  C
  C222     1.0000 0.89864  0.54915  0.54270  Biso   1.000  C
  H171     1.0000 0.90670  0.54790  0.50020  Biso   1.000  H
  C223     1.0000 0.88354  0.57780  0.55962  Biso   1.000  C
  H172     1.0000 0.88190  0.59570  0.52800  Biso   1.000  H
  C224     1.0000 0.92053  0.49458  0.57307  Biso   1.000  C
  C225     1.0000 0.95914  0.51299  0.53630  Biso   1.000  C
  H173     1.0000 0.97190  0.54230  0.52450  Biso   1.000  H
  H174     1.0000 0.82300  0.43390  0.56650  Biso   1.000  H
  H175     1.0000 0.79480  0.37520  0.67600  Biso   1.000  H
  O51      1.0000 0.52380  0.96982  0.92667  Biso   1.000  O
  O52      1.0000 0.51131  0.94492  0.03042  Biso   1.000  O
  C226     1.0000 0.52322  0.94552  0.97222  Biso   1.000  C
  C227     1.0000 0.53779  0.91323  0.95484  Biso   1.000  C
  C228     1.0000 0.54026  0.88620  0.00175  Biso   1.000  C
  H176     1.0000 0.53207  0.88743  0.04423  Biso   1.000  H
  C229     1.0000 0.55456  0.85775  0.98608  Biso   1.000  C
  H177     1.0000 0.55527  0.83943  0.01783  Biso   1.000  H
  C230     1.0000 0.56806  0.85584  0.92388  Biso   1.000  C
  C231     1.0000 0.56531  0.88248  0.87603  Biso   1.000  C
  H178     1.0000 0.57337  0.88123  0.83353  Biso   1.000  H
  C232     1.0000 0.55021  0.91113  0.89295  Biso   1.000  C
  H179     1.0000 0.54857  0.92903  0.86133  Biso   1.000  H
  C233     1.0000 0.58720  0.82791  0.90640  Biso   1.000  C
  C234     1.0000 0.62581  0.84632  0.86963  Biso   1.000  C
  H180     1.0000 0.63857  0.87563  0.85783  Biso   1.000  H
  H181     1.0000 0.48967  0.76723  0.89983  Biso   1.000  H
  H182     1.0000 0.46147  0.70853  0.00933  Biso   1.000  H
  O53      1.0000 0.19046  0.30316  0.26001  Biso   1.000  O
  O54      1.0000 0.17797  0.27826  0.36376  Biso   1.000  O
  C235     1.0000 0.18988  0.27886  0.30556  Biso   1.000  C
  C236     1.0000 0.20445  0.24657  0.28818  Biso   1.000  C
  C237     1.0000 0.20692  0.21954  0.33509  Biso   1.000  C
  H183     1.0000 0.19873  0.22077  0.37757  Biso   1.000  H
  C238     1.0000 0.22122  0.19109  0.31942  Biso   1.000  C
  H184     1.0000 0.22193  0.17277  0.35117  Biso   1.000  H
  C239     1.0000 0.23472  0.18918  0.25722  Biso   1.000  C
  C240     1.0000 0.23197  0.21582  0.20937  Biso   1.000  C
  H185     1.0000 0.24003  0.21457  0.16687  Biso   1.000  H
  C241     1.0000 0.21687  0.24447  0.22629  Biso   1.000  C
  H186     1.0000 0.21523  0.26237  0.19467  Biso   1.000  H
  C242     1.0000 0.25386  0.16125  0.23974  Biso   1.000  C
  C243     1.0000 0.29247  0.17966  0.20297  Biso   1.000  C
  H187     1.0000 0.30523  0.20897  0.19117  Biso   1.000  H
  H188     1.0000 0.15633  0.10057  0.23317  Biso   1.000  H
  H189     1.0000 0.12813  0.04187  0.34267  Biso   1.000  H
  O55      1.0000 0.22064  0.36351  0.40666  Biso   1.000  O
  O56      1.0000 0.23305  0.38841  0.30291  Biso   1.000  O
  C244     1.0000 0.24436  0.38781  0.36111  Biso   1.000  C
  C245     1.0000 0.29122  0.42010  0.37849  Biso   1.000  C
  C246     1.0000 0.32072  0.44713  0.33158  Biso   1.000  C
  H190     1.0000 0.31130  0.44590  0.28910  Biso   1.000  H
  C247     1.0000 0.36347  0.47558  0.34725  Biso   1.000  C
  H191     1.0000 0.38250  0.49390  0.31550  Biso   1.000  H
  C248     1.0000 0.37888  0.47749  0.40945  Biso   1.000  C
  C249     1.0000 0.34949  0.45085  0.45730  Biso   1.000  C
  H192     1.0000 0.35880  0.45210  0.49980  Biso   1.000  H
  C250     1.0000 0.30574  0.42220  0.44038  Biso   1.000  C
  H193     1.0000 0.28620  0.40430  0.47200  Biso   1.000  H
  C251     1.0000 0.42595  0.50542  0.42693  Biso   1.000  C
  C252     1.0000 0.44615  0.48701  0.46370  Biso   1.000  C
  H194     1.0000 0.42960  0.45770  0.47550  Biso   1.000  H
  H195     1.0000 0.38910  0.56610  0.43350  Biso   1.000  H
  H196     1.0000 0.41960  0.62480  0.32400  Biso   1.000  H
  O57      1.0000 0.88731  0.69684  0.73999  Biso   1.000  O
  O58      1.0000 0.89972  0.72174  0.63624  Biso   1.000  O
  C253     1.0000 0.91103  0.72114  0.69444  Biso   1.000  C
  C254     1.0000 0.95789  0.75343  0.71182  Biso   1.000  C
  C255     1.0000 0.98739  0.78046  0.66491  Biso   1.000  C
  H197     1.0000 0.97797  0.77923  0.62243  Biso   1.000  H
  C256     1.0000 0.03014  0.80891  0.68058  Biso   1.000  C
  H198     1.0000 0.04917  0.82723  0.64883  Biso   1.000  H
  C257     1.0000 0.04555  0.81082  0.74278  Biso   1.000  C
  C258     1.0000 0.01616  0.78418  0.79063  Biso   1.000  C
  H199     1.0000 0.02547  0.78543  0.83313  Biso   1.000  H
  C259     1.0000 0.97241  0.75553  0.77371  Biso   1.000  C
  H200     1.0000 0.95287  0.73763  0.80533  Biso   1.000  H
  C260     1.0000 0.09262  0.83875  0.76026  Biso   1.000  C
  C261     1.0000 0.11282  0.82034  0.79703  Biso   1.000  C
  H201     1.0000 0.09627  0.79103  0.80883  Biso   1.000  H
  H202     1.0000 0.05577  0.89943  0.76683  Biso   1.000  H
  H203     1.0000 0.08627  0.95813  0.65733  Biso   1.000  H
  O59      1.0000 0.55397  0.03018  0.07333  Biso   1.000  O
  O60      1.0000 0.56638  0.05508  0.96958  Biso   1.000  O
  C262     1.0000 0.57769  0.05448  0.02778  Biso   1.000  C
  C263     1.0000 0.62455  0.08677  0.04516  Biso   1.000  C
  C264     1.0000 0.65405  0.11380  0.99825  Biso   1.000  C
  H204     1.0000 0.64463  0.11257  0.95577  Biso   1.000  H
  C265     1.0000 0.69680  0.14225  0.01392  Biso   1.000  C
  H205     1.0000 0.71583  0.16057  0.98217  Biso   1.000  H
  C266     1.0000 0.71221  0.14416  0.07612  Biso   1.000  C
  C267     1.0000 0.68282  0.11752  0.12397  Biso   1.000  C
  H206     1.0000 0.69213  0.11877  0.16647  Biso   1.000  H
  C268     1.0000 0.63907  0.08887  0.10705  Biso   1.000  C
  H207     1.0000 0.61953  0.07097  0.13867  Biso   1.000  H
  C269     1.0000 0.75928  0.17209  0.09360  Biso   1.000  C
  C270     1.0000 0.77948  0.15368  0.13037  Biso   1.000  C
  H208     1.0000 0.76293  0.12437  0.14217  Biso   1.000  H
  H209     1.0000 0.72243  0.23277  0.10017  Biso   1.000  H
  H210     1.0000 0.75293  0.29147  0.99067  Biso   1.000  H
  O61      1.0000 0.14287  0.77936  0.40666  Biso   1.000  O
  O62      1.0000 0.15536  0.76695  0.30291  Biso   1.000  O
  C271     1.0000 0.14345  0.75564  0.36111  Biso   1.000  C
  C272     1.0000 0.12888  0.70878  0.37849  Biso   1.000  C
  C273     1.0000 0.12641  0.67928  0.33158  Biso   1.000  C
  H211     1.0000 0.13460  0.68870  0.28910  Biso   1.000  H
  C274     1.0000 0.11211  0.63653  0.34725  Biso   1.000  C
  H212     1.0000 0.11140  0.61750  0.31550  Biso   1.000  H
  C275     1.0000 0.09861  0.62112  0.40945  Biso   1.000  C
  C276     1.0000 0.10136  0.65051  0.45730  Biso   1.000  C
  H213     1.0000 0.09330  0.64120  0.49980  Biso   1.000  H
  C277     1.0000 0.11646  0.69426  0.44038  Biso   1.000  C
  H214     1.0000 0.11810  0.71380  0.47200  Biso   1.000  H
  C278     1.0000 0.07947  0.57405  0.42693  Biso   1.000  C
  C279     1.0000 0.04086  0.55385  0.46370  Biso   1.000  C
  H215     1.0000 0.02810  0.57040  0.47550  Biso   1.000  H
  H216     1.0000 0.17700  0.61090  0.43350  Biso   1.000  H
  H217     1.0000 0.20520  0.58040  0.32400  Biso   1.000  H
  O63      1.0000 0.80954  0.11269  0.73999  Biso   1.000  O
  O64      1.0000 0.82203  0.10028  0.63624  Biso   1.000  O
  C280     1.0000 0.81012  0.08897  0.69444  Biso   1.000  C
  C281     1.0000 0.79555  0.04211  0.71182  Biso   1.000  C
  C282     1.0000 0.79308  0.01261  0.66491  Biso   1.000  C
  H218     1.0000 0.80127  0.02203  0.62243  Biso   1.000  H
  C283     1.0000 0.77878  0.96986  0.68058  Biso   1.000  C
  H219     1.0000 0.77807  0.95083  0.64883  Biso   1.000  H
  C284     1.0000 0.76528  0.95445  0.74278  Biso   1.000  C
  C285     1.0000 0.76803  0.98384  0.79063  Biso   1.000  C
  H220     1.0000 0.75997  0.97453  0.83313  Biso   1.000  H
  C286     1.0000 0.78313  0.02759  0.77371  Biso   1.000  C
  H221     1.0000 0.78477  0.04713  0.80533  Biso   1.000  H
  C287     1.0000 0.74614  0.90738  0.76026  Biso   1.000  C
  C288     1.0000 0.70753  0.88718  0.79703  Biso   1.000  C
  H222     1.0000 0.69477  0.90373  0.80883  Biso   1.000  H
  H223     1.0000 0.84367  0.94423  0.76683  Biso   1.000  H
  H224     1.0000 0.87187  0.91373  0.65733  Biso   1.000  H
  O65      1.0000 0.47620  0.44603  0.07333  Biso   1.000  O
  O66      1.0000 0.48869  0.43362  0.96958  Biso   1.000  O
  C289     1.0000 0.47678  0.42231  0.02778  Biso   1.000  C
  C290     1.0000 0.46221  0.37545  0.04516  Biso   1.000  C
  C291     1.0000 0.45974  0.34595  0.99825  Biso   1.000  C
  H225     1.0000 0.46793  0.35537  0.95577  Biso   1.000  H
  C292     1.0000 0.44544  0.30320  0.01392  Biso   1.000  C
  H226     1.0000 0.44473  0.28417  0.98217  Biso   1.000  H
  C293     1.0000 0.43194  0.28779  0.07612  Biso   1.000  C
  C294     1.0000 0.43469  0.31718  0.12397  Biso   1.000  C
  H227     1.0000 0.42663  0.30787  0.16647  Biso   1.000  H
  C295     1.0000 0.44979  0.36093  0.10705  Biso   1.000  C
  H228     1.0000 0.45143  0.38047  0.13867  Biso   1.000  H
  C296     1.0000 0.41280  0.24072  0.09360  Biso   1.000  C
  C297     1.0000 0.37419  0.22052  0.13037  Biso   1.000  C
  H229     1.0000 0.36143  0.23707  0.14217  Biso   1.000  H
  H230     1.0000 0.51033  0.27757  0.10017  Biso   1.000  H
  H231     1.0000 0.53853  0.24707  0.99067  Biso   1.000  H
  O67      1.0000 0.63649  0.85713  0.40666  Biso   1.000  O
  O68      1.0000 0.61159  0.84464  0.30291  Biso   1.000  O
  C298     1.0000 0.61219  0.85655  0.36111  Biso   1.000  C
  C299     1.0000 0.57990  0.87112  0.37849  Biso   1.000  C
  C300     1.0000 0.55287  0.87359  0.33158  Biso   1.000  C
  H232     1.0000 0.55410  0.86540  0.28910  Biso   1.000  H
  C301     1.0000 0.52442  0.88789  0.34725  Biso   1.000  C
  H233     1.0000 0.50610  0.88860  0.31550  Biso   1.000  H
  C302     1.0000 0.52251  0.90139  0.40945  Biso   1.000  C
  C303     1.0000 0.54915  0.89864  0.45730  Biso   1.000  C
  H234     1.0000 0.54790  0.90670  0.49980  Biso   1.000  H
  C304     1.0000 0.57780  0.88354  0.44038  Biso   1.000  C
  H235     1.0000 0.59570  0.88190  0.47200  Biso   1.000  H
  C305     1.0000 0.49458  0.92053  0.42693  Biso   1.000  C
  C306     1.0000 0.51299  0.95914  0.46370  Biso   1.000  C
  H236     1.0000 0.54230  0.97190  0.47550  Biso   1.000  H
  H237     1.0000 0.43390  0.82300  0.43350  Biso   1.000  H
  H238     1.0000 0.37520  0.79480  0.32400  Biso   1.000  H
  O69      1.0000 0.30316  0.19046  0.73999  Biso   1.000  O
  O70      1.0000 0.27826  0.17797  0.63624  Biso   1.000  O
  C307     1.0000 0.27886  0.18988  0.69444  Biso   1.000  C
  C308     1.0000 0.24657  0.20445  0.71182  Biso   1.000  C
  C309     1.0000 0.21954  0.20692  0.66491  Biso   1.000  C
  H239     1.0000 0.22077  0.19873  0.62243  Biso   1.000  H
  C310     1.0000 0.19109  0.22122  0.68058  Biso   1.000  C
  H240     1.0000 0.17277  0.22193  0.64883  Biso   1.000  H
  C311     1.0000 0.18918  0.23472  0.74278  Biso   1.000  C
  C312     1.0000 0.21582  0.23197  0.79063  Biso   1.000  C
  H241     1.0000 0.21457  0.24003  0.83313  Biso   1.000  H
  C313     1.0000 0.24447  0.21687  0.77371  Biso   1.000  C
  H242     1.0000 0.26237  0.21523  0.80533  Biso   1.000  H
  C314     1.0000 0.16125  0.25386  0.76026  Biso   1.000  C
  C315     1.0000 0.17966  0.29247  0.79703  Biso   1.000  C
  H243     1.0000 0.20897  0.30523  0.80883  Biso   1.000  H
  H244     1.0000 0.10057  0.15633  0.76683  Biso   1.000  H
  H245     1.0000 0.04187  0.12813  0.65733  Biso   1.000  H
  O71      1.0000 0.96982  0.52380  0.07333  Biso   1.000  O
  O72      1.0000 0.94492  0.51131  0.96958  Biso   1.000  O
  C316     1.0000 0.94552  0.52322  0.02778  Biso   1.000  C
  C317     1.0000 0.91323  0.53779  0.04516  Biso   1.000  C
  C318     1.0000 0.88620  0.54026  0.99825  Biso   1.000  C
  H246     1.0000 0.88743  0.53207  0.95577  Biso   1.000  H
  C319     1.0000 0.85775  0.55456  0.01392  Biso   1.000  C
  H247     1.0000 0.83943  0.55527  0.98217  Biso   1.000  H
  C320     1.0000 0.85584  0.56806  0.07612  Biso   1.000  C
  C321     1.0000 0.88248  0.56531  0.12397  Biso   1.000  C
  H248     1.0000 0.88123  0.57337  0.16647  Biso   1.000  H
  C322     1.0000 0.91113  0.55021  0.10705  Biso   1.000  C
  H249     1.0000 0.92903  0.54857  0.13867  Biso   1.000  H
  C323     1.0000 0.82791  0.58720  0.09360  Biso   1.000  C
  C324     1.0000 0.84632  0.62581  0.13037  Biso   1.000  C
  H250     1.0000 0.87563  0.63857  0.14217  Biso   1.000  H
  H251     1.0000 0.76723  0.48967  0.10017  Biso   1.000  H
  H252     1.0000 0.70853  0.46147  0.99067  Biso   1.000  H
  Cu1      1.0000 0.68089  0.84045  0.39285  Biso   1.000  Cu
  Cu2      1.0000 0.34756  0.17378  0.72618  Biso   1.000  Cu
  Cu3      1.0000 0.01422  0.50711  0.05952  Biso   1.000  Cu
  Cu4      1.0000 0.15955  0.84045  0.39285  Biso   1.000  Cu
  Cu5      1.0000 0.82622  0.17378  0.72618  Biso   1.000  Cu
  Cu6      1.0000 0.49289  0.50711  0.05952  Biso   1.000  Cu
  Cu7      1.0000 0.15955  0.31911  0.39285  Biso   1.000  Cu
  Cu8      1.0000 0.82622  0.65244  0.72618  Biso   1.000  Cu
  Cu9      1.0000 0.49289  0.98578  0.05952  Biso   1.000  Cu
  Cu10     1.0000 0.84045  0.68089  0.60715  Biso   1.000  Cu
  Cu11     1.0000 0.50711  0.01422  0.94048  Biso   1.000  Cu
  Cu12     1.0000 0.17378  0.34756  0.27382  Biso   1.000  Cu
  Cu13     1.0000 0.84045  0.15955  0.60715  Biso   1.000  Cu
  Cu14     1.0000 0.50711  0.49289  0.94048  Biso   1.000  Cu
  Cu15     1.0000 0.17378  0.82622  0.27382  Biso   1.000  Cu
  Cu16     1.0000 0.31911  0.15955  0.60715  Biso   1.000  Cu
  Cu17     1.0000 0.98578  0.49289  0.94048  Biso   1.000  Cu
  Cu18     1.0000 0.65244  0.82622  0.27382  Biso   1.000  Cu
  O73      1.0000 0.43233  0.56767  0.37020  Biso   1.000  O
  C325     1.0000 0.48964  0.51036  0.48340  Biso   1.000  C
  C326     1.0000 0.45080  0.54920  0.40910  Biso   1.000  C
  C327     1.0000 0.41274  0.58726  0.40650  Biso   1.000  C
  C328     1.0000 0.39544  0.60456  0.35030  Biso   1.000  C
  H253     1.0000 0.38100  0.61900  0.36840  Biso   1.000  H
  O74      1.0000 0.09900  0.90100  0.70353  Biso   1.000  O
  C329     1.0000 0.15631  0.84369  0.81673  Biso   1.000  C
  C330     1.0000 0.11747  0.88253  0.74243  Biso   1.000  C
  C331     1.0000 0.07941  0.92059  0.73983  Biso   1.000  C
  C332     1.0000 0.06211  0.93789  0.68363  Biso   1.000  C
  H254     1.0000 0.04767  0.95233  0.70173  Biso   1.000  H
  O75      1.0000 0.76566  0.23434  0.03687  Biso   1.000  O
  C333     1.0000 0.82297  0.17703  0.15007  Biso   1.000  C
  C334     1.0000 0.78413  0.21587  0.07577  Biso   1.000  C
  C335     1.0000 0.74607  0.25393  0.07317  Biso   1.000  C
  C336     1.0000 0.72877  0.27123  0.01697  Biso   1.000  C
  H255     1.0000 0.71433  0.28567  0.03507  Biso   1.000  H
  O76      1.0000 0.43233  0.86466  0.37020  Biso   1.000  O
  C337     1.0000 0.48964  0.97928  0.48340  Biso   1.000  C
  C338     1.0000 0.45080  0.90160  0.40910  Biso   1.000  C
  C339     1.0000 0.41274  0.82548  0.40650  Biso   1.000  C
  C340     1.0000 0.39544  0.79088  0.35030  Biso   1.000  C
  H256     1.0000 0.38100  0.76200  0.36840  Biso   1.000  H
  O77      1.0000 0.09900  0.19799  0.70353  Biso   1.000  O
  C341     1.0000 0.15631  0.31261  0.81673  Biso   1.000  C
  C342     1.0000 0.11747  0.23493  0.74243  Biso   1.000  C
  C343     1.0000 0.07941  0.15881  0.73983  Biso   1.000  C
  C344     1.0000 0.06211  0.12421  0.68363  Biso   1.000  C
  H257     1.0000 0.04767  0.09533  0.70173  Biso   1.000  H
  O78      1.0000 0.76566  0.53133  0.03687  Biso   1.000  O
  C345     1.0000 0.82297  0.64595  0.15007  Biso   1.000  C
  C346     1.0000 0.78413  0.56827  0.07577  Biso   1.000  C
  C347     1.0000 0.74607  0.49215  0.07317  Biso   1.000  C
  C348     1.0000 0.72877  0.45755  0.01697  Biso   1.000  C
  H258     1.0000 0.71433  0.42867  0.03507  Biso   1.000  H
  O79      1.0000 0.13534  0.56767  0.37020  Biso   1.000  O
  C349     1.0000 0.02072  0.51036  0.48340  Biso   1.000  C
  C350     1.0000 0.09840  0.54920  0.40910  Biso   1.000  C
  C351     1.0000 0.17452  0.58726  0.40650  Biso   1.000  C
  C352     1.0000 0.20912  0.60456  0.35030  Biso   1.000  C
  H259     1.0000 0.23800  0.61900  0.36840  Biso   1.000  H
  O80      1.0000 0.80201  0.90100  0.70353  Biso   1.000  O
  C353     1.0000 0.68739  0.84369  0.81673  Biso   1.000  C
  C354     1.0000 0.76507  0.88253  0.74243  Biso   1.000  C
  C355     1.0000 0.84119  0.92059  0.73983  Biso   1.000  C
  C356     1.0000 0.87579  0.93789  0.68363  Biso   1.000  C
  H260     1.0000 0.90467  0.95233  0.70173  Biso   1.000  H
  O81      1.0000 0.46867  0.23434  0.03687  Biso   1.000  O
  C357     1.0000 0.35405  0.17703  0.15007  Biso   1.000  C
  C358     1.0000 0.43173  0.21587  0.07577  Biso   1.000  C
  C359     1.0000 0.50785  0.25393  0.07317  Biso   1.000  C
  C360     1.0000 0.54245  0.27123  0.01697  Biso   1.000  C
  H261     1.0000 0.57133  0.28567  0.03507  Biso   1.000  H
  O82      1.0000 0.56767  0.43233  0.62980  Biso   1.000  O
  C361     1.0000 0.51036  0.48964  0.51660  Biso   1.000  C
  C362     1.0000 0.54920  0.45080  0.59090  Biso   1.000  C
  C363     1.0000 0.58726  0.41274  0.59350  Biso   1.000  C
  C364     1.0000 0.60456  0.39544  0.64970  Biso   1.000  C
  H262     1.0000 0.61900  0.38100  0.63160  Biso   1.000  H
  O83      1.0000 0.23434  0.76566  0.96313  Biso   1.000  O
  C365     1.0000 0.17703  0.82297  0.84993  Biso   1.000  C
  C366     1.0000 0.21587  0.78413  0.92423  Biso   1.000  C
  C367     1.0000 0.25393  0.74607  0.92683  Biso   1.000  C
  C368     1.0000 0.27123  0.72877  0.98303  Biso   1.000  C
  H263     1.0000 0.28567  0.71433  0.96493  Biso   1.000  H
  O84      1.0000 0.90100  0.09900  0.29647  Biso   1.000  O
  C369     1.0000 0.84369  0.15631  0.18327  Biso   1.000  C
  C370     1.0000 0.88253  0.11747  0.25757  Biso   1.000  C
  C371     1.0000 0.92059  0.07941  0.26017  Biso   1.000  C
  C372     1.0000 0.93789  0.06211  0.31637  Biso   1.000  C
  H264     1.0000 0.95233  0.04767  0.29827  Biso   1.000  H
  O85      1.0000 0.86466  0.43233  0.62980  Biso   1.000  O
  C373     1.0000 0.97928  0.48964  0.51660  Biso   1.000  C
  C374     1.0000 0.90160  0.45080  0.59090  Biso   1.000  C
  C375     1.0000 0.82548  0.41274  0.59350  Biso   1.000  C
  C376     1.0000 0.79088  0.39544  0.64970  Biso   1.000  C
  H265     1.0000 0.76200  0.38100  0.63160  Biso   1.000  H
  O86      1.0000 0.53133  0.76566  0.96313  Biso   1.000  O
  C377     1.0000 0.64595  0.82297  0.84993  Biso   1.000  C
  C378     1.0000 0.56827  0.78413  0.92423  Biso   1.000  C
  C379     1.0000 0.49215  0.74607  0.92683  Biso   1.000  C
  C380     1.0000 0.45755  0.72877  0.98303  Biso   1.000  C
  H266     1.0000 0.42867  0.71433  0.96493  Biso   1.000  H
  O87      1.0000 0.19799  0.09900  0.29647  Biso   1.000  O
  C381     1.0000 0.31261  0.15631  0.18327  Biso   1.000  C
  C382     1.0000 0.23493  0.11747  0.25757  Biso   1.000  C
  C383     1.0000 0.15881  0.07941  0.26017  Biso   1.000  C
  C384     1.0000 0.12421  0.06211  0.31637  Biso   1.000  C
  H267     1.0000 0.09533  0.04767  0.29827  Biso   1.000  H
  O88      1.0000 0.56767  0.13534  0.62980  Biso   1.000  O
  C385     1.0000 0.51036  0.02072  0.51660  Biso   1.000  C
  C386     1.0000 0.54920  0.09840  0.59090  Biso   1.000  C
  C387     1.0000 0.58726  0.17452  0.59350  Biso   1.000  C
  C388     1.0000 0.60456  0.20912  0.64970  Biso   1.000  C
  H268     1.0000 0.61900  0.23800  0.63160  Biso   1.000  H
  O89      1.0000 0.23434  0.46867  0.96313  Biso   1.000  O
  C389     1.0000 0.17703  0.35405  0.84993  Biso   1.000  C
  C390     1.0000 0.21587  0.43173  0.92423  Biso   1.000  C
  C391     1.0000 0.25393  0.50785  0.92683  Biso   1.000  C
  C392     1.0000 0.27123  0.54245  0.98303  Biso   1.000  C
  H269     1.0000 0.28567  0.57133  0.96493  Biso   1.000  H
  O90      1.0000 0.90100  0.80201  0.29647  Biso   1.000  O
  C393     1.0000 0.84369  0.68739  0.18327  Biso   1.000  C
  C394     1.0000 0.88253  0.76507  0.25757  Biso   1.000  C
  C395     1.0000 0.92059  0.84119  0.26017  Biso   1.000  C
  C396     1.0000 0.93789  0.87579  0.31637  Biso   1.000  C
  H270     1.0000 0.95233  0.90467  0.29827  Biso   1.000  H
