data_image0
_cell_length_a       34.9443
_cell_length_b       34.9443
_cell_length_c       23.436
_cell_angle_alpha    90
_cell_angle_beta     90
_cell_angle_gamma    120

_symmetry_space_group_name_H-M    "P 1"
_symmetry_int_tables_number       1

loop_
  _symmetry_equiv_pos_as_xyz
  'x, y, z'

loop_
  _atom_site_label
  _atom_site_occupancy
  _atom_site_fract_x
  _atom_site_fract_y
  _atom_site_fract_z
  _atom_site_thermal_displace_type
  _atom_site_B_iso_or_equiv
  _atom_site_type_symbol
  O1       1.0000 0.36102  0.21979  0.59987  Biso   1.000  O
  O2       1.0000 0.38965  0.23421  0.68855  Biso   1.000  O
  C1       1.0000 0.38721  0.24480  0.63856  Biso   1.000  C
  C2       1.0000 0.41846  0.29178  0.61997  Biso   1.000  C
  C3       1.0000 0.44675  0.32259  0.66104  Biso   1.000  C
  H1       1.0000 0.44610  0.31400  0.69870  Biso   1.000  H
  C4       1.0000 0.47530  0.36555  0.64453  Biso   1.000  C
  H2       1.0000 0.49480  0.38560  0.67110  Biso   1.000  H
  C5       1.0000 0.47540  0.37955  0.58871  Biso   1.000  C
  C6       1.0000 0.44733  0.34894  0.54863  Biso   1.000  C
  H3       1.0000 0.44790  0.35760  0.51100  Biso   1.000  H
  C7       1.0000 0.41838  0.30526  0.56470  Biso   1.000  C
  H4       1.0000 0.39900  0.28520  0.53810  Biso   1.000  H
  C8       1.0000 0.50385  0.42645  0.57032  Biso   1.000  C
  C9       1.0000 0.48593  0.44621  0.53565  Biso   1.000  C
  H5       1.0000 0.45670  0.42930  0.52390  Biso   1.000  H
  H6       1.0000 0.56520  0.38970  0.56180  Biso   1.000  H
  H7       1.0000 0.62800  0.41690  0.64680  Biso   1.000  H
  O3       1.0000 0.02769  0.55312  0.93320  Biso   1.000  O
  O4       1.0000 0.05632  0.56754  0.02188  Biso   1.000  O
  C10      1.0000 0.05388  0.57813  0.97189  Biso   1.000  C
  C11      1.0000 0.08513  0.62511  0.95330  Biso   1.000  C
  C12      1.0000 0.11342  0.65592  0.99437  Biso   1.000  C
  H8       1.0000 0.11277  0.64733  0.03203  Biso   1.000  H
  C13      1.0000 0.14197  0.69888  0.97786  Biso   1.000  C
  H9       1.0000 0.16147  0.71893  0.00443  Biso   1.000  H
  C14      1.0000 0.14207  0.71288  0.92204  Biso   1.000  C
  C15      1.0000 0.11400  0.68227  0.88196  Biso   1.000  C
  H10      1.0000 0.11457  0.69093  0.84433  Biso   1.000  H
  C16      1.0000 0.08505  0.63859  0.89803  Biso   1.000  C
  H11      1.0000 0.06567  0.61853  0.87143  Biso   1.000  H
  C17      1.0000 0.17052  0.75978  0.90365  Biso   1.000  C
  C18      1.0000 0.15260  0.77954  0.86898  Biso   1.000  C
  H12      1.0000 0.12337  0.76263  0.85723  Biso   1.000  H
  H13      1.0000 0.23187  0.72303  0.89513  Biso   1.000  H
  H14      1.0000 0.29467  0.75023  0.98013  Biso   1.000  H
  O5       1.0000 0.69435  0.88646  0.26654  Biso   1.000  O
  O6       1.0000 0.72298  0.90088  0.35522  Biso   1.000  O
  C19      1.0000 0.72054  0.91147  0.30523  Biso   1.000  C
  C20      1.0000 0.75179  0.95845  0.28664  Biso   1.000  C
  C21      1.0000 0.78008  0.98926  0.32771  Biso   1.000  C
  H15      1.0000 0.77943  0.98067  0.36537  Biso   1.000  H
  C22      1.0000 0.80863  0.03222  0.31120  Biso   1.000  C
  H16      1.0000 0.82813  0.05227  0.33777  Biso   1.000  H
  C23      1.0000 0.80873  0.04622  0.25538  Biso   1.000  C
  C24      1.0000 0.78066  0.01561  0.21530  Biso   1.000  C
  H17      1.0000 0.78123  0.02427  0.17767  Biso   1.000  H
  C25      1.0000 0.75171  0.97193  0.23137  Biso   1.000  C
  H18      1.0000 0.73233  0.95187  0.20477  Biso   1.000  H
  C26      1.0000 0.83718  0.09312  0.23699  Biso   1.000  C
  C27      1.0000 0.81926  0.11288  0.20232  Biso   1.000  C
  H19      1.0000 0.79003  0.09597  0.19057  Biso   1.000  H
  H20      1.0000 0.89853  0.05637  0.22847  Biso   1.000  H
  H21      1.0000 0.96133  0.08357  0.31347  Biso   1.000  H
  O7       1.0000 0.78021  0.14123  0.59987  Biso   1.000  O
  O8       1.0000 0.76579  0.15544  0.68855  Biso   1.000  O
  C28      1.0000 0.75520  0.14241  0.63856  Biso   1.000  C
  C29      1.0000 0.70822  0.12668  0.61997  Biso   1.000  C
  C30      1.0000 0.67741  0.12416  0.66104  Biso   1.000  C
  H22      1.0000 0.68600  0.13210  0.69870  Biso   1.000  H
  C31      1.0000 0.63445  0.10975  0.64453  Biso   1.000  C
  H23      1.0000 0.61440  0.10920  0.67110  Biso   1.000  H
  C32      1.0000 0.62045  0.09585  0.58871  Biso   1.000  C
  C33      1.0000 0.65106  0.09839  0.54863  Biso   1.000  C
  H24      1.0000 0.64240  0.09030  0.51100  Biso   1.000  H
  C34      1.0000 0.69474  0.11312  0.56470  Biso   1.000  C
  H25      1.0000 0.71480  0.11380  0.53810  Biso   1.000  H
  C35      1.0000 0.57355  0.07740  0.57032  Biso   1.000  C
  C36      1.0000 0.55379  0.03972  0.53565  Biso   1.000  C
  H26      1.0000 0.57070  0.02740  0.52390  Biso   1.000  H
  H27      1.0000 0.61030  0.17550  0.56180  Biso   1.000  H
  H28      1.0000 0.58310  0.21110  0.64680  Biso   1.000  H
  O9       1.0000 0.44688  0.47456  0.93320  Biso   1.000  O
  O10      1.0000 0.43246  0.48877  0.02188  Biso   1.000  O
  C37      1.0000 0.42187  0.47574  0.97189  Biso   1.000  C
  C38      1.0000 0.37489  0.46001  0.95330  Biso   1.000  C
  C39      1.0000 0.34408  0.45749  0.99437  Biso   1.000  C
  H29      1.0000 0.35267  0.46543  0.03203  Biso   1.000  H
  C40      1.0000 0.30112  0.44308  0.97786  Biso   1.000  C
  H30      1.0000 0.28107  0.44253  0.00443  Biso   1.000  H
  C41      1.0000 0.28712  0.42918  0.92204  Biso   1.000  C
  C42      1.0000 0.31773  0.43172  0.88196  Biso   1.000  C
  H31      1.0000 0.30907  0.42363  0.84433  Biso   1.000  H
  C43      1.0000 0.36141  0.44645  0.89803  Biso   1.000  C
  H32      1.0000 0.38147  0.44713  0.87143  Biso   1.000  H
  C44      1.0000 0.24022  0.41073  0.90365  Biso   1.000  C
  C45      1.0000 0.22046  0.37305  0.86898  Biso   1.000  C
  H33      1.0000 0.23737  0.36073  0.85723  Biso   1.000  H
  H34      1.0000 0.27697  0.50883  0.89513  Biso   1.000  H
  H35      1.0000 0.24977  0.54443  0.98013  Biso   1.000  H
  O11      1.0000 0.11354  0.80790  0.26654  Biso   1.000  O
  O12      1.0000 0.09912  0.82211  0.35522  Biso   1.000  O
  C46      1.0000 0.08853  0.80908  0.30523  Biso   1.000  C
  C47      1.0000 0.04155  0.79335  0.28664  Biso   1.000  C
  C48      1.0000 0.01074  0.79083  0.32771  Biso   1.000  C
  H36      1.0000 0.01933  0.79877  0.36537  Biso   1.000  H
  C49      1.0000 0.96778  0.77642  0.31120  Biso   1.000  C
  H37      1.0000 0.94773  0.77587  0.33777  Biso   1.000  H
  C50      1.0000 0.95378  0.76252  0.25538  Biso   1.000  C
  C51      1.0000 0.98439  0.76506  0.21530  Biso   1.000  C
  H38      1.0000 0.97573  0.75697  0.17767  Biso   1.000  H
  C52      1.0000 0.02807  0.77979  0.23137  Biso   1.000  C
  H39      1.0000 0.04813  0.78047  0.20477  Biso   1.000  H
  C53      1.0000 0.90688  0.74407  0.23699  Biso   1.000  C
  C54      1.0000 0.88712  0.70639  0.20232  Biso   1.000  C
  H40      1.0000 0.90403  0.69407  0.19057  Biso   1.000  H
  H41      1.0000 0.94363  0.84217  0.22847  Biso   1.000  H
  H42      1.0000 0.91643  0.87777  0.31347  Biso   1.000  H
  O13      1.0000 0.85877  0.63898  0.59987  Biso   1.000  O
  O14      1.0000 0.84456  0.61035  0.68855  Biso   1.000  O
  C55      1.0000 0.85759  0.61279  0.63856  Biso   1.000  C
  C56      1.0000 0.87332  0.58154  0.61997  Biso   1.000  C
  C57      1.0000 0.87584  0.55325  0.66104  Biso   1.000  C
  H43      1.0000 0.86790  0.55390  0.69870  Biso   1.000  H
  C58      1.0000 0.89025  0.52470  0.64453  Biso   1.000  C
  H44      1.0000 0.89080  0.50520  0.67110  Biso   1.000  H
  C59      1.0000 0.90415  0.52460  0.58871  Biso   1.000  C
  C60      1.0000 0.90161  0.55267  0.54863  Biso   1.000  C
  H45      1.0000 0.90970  0.55210  0.51100  Biso   1.000  H
  C61      1.0000 0.88688  0.58162  0.56470  Biso   1.000  C
  H46      1.0000 0.88620  0.60100  0.53810  Biso   1.000  H
  C62      1.0000 0.92260  0.49615  0.57032  Biso   1.000  C
  C63      1.0000 0.96028  0.51407  0.53565  Biso   1.000  C
  H47      1.0000 0.97260  0.54330  0.52390  Biso   1.000  H
  H48      1.0000 0.82450  0.43480  0.56180  Biso   1.000  H
  H49      1.0000 0.78890  0.37200  0.64680  Biso   1.000  H
  O15      1.0000 0.52544  0.97231  0.93320  Biso   1.000  O
  O16      1.0000 0.51123  0.94368  0.02188  Biso   1.000  O
  C64      1.0000 0.52426  0.94612  0.97189  Biso   1.000  C
  C65      1.0000 0.53999  0.91487  0.95330  Biso   1.000  C
  C66      1.0000 0.54251  0.88658  0.99437  Biso   1.000  C
  H50      1.0000 0.53457  0.88723  0.03203  Biso   1.000  H
  C67      1.0000 0.55692  0.85803  0.97786  Biso   1.000  C
  H51      1.0000 0.55747  0.83853  0.00443  Biso   1.000  H
  C68      1.0000 0.57082  0.85793  0.92204  Biso   1.000  C
  C69      1.0000 0.56828  0.88600  0.88196  Biso   1.000  C
  H52      1.0000 0.57637  0.88543  0.84433  Biso   1.000  H
  C70      1.0000 0.55355  0.91495  0.89803  Biso   1.000  C
  H53      1.0000 0.55287  0.93433  0.87143  Biso   1.000  H
  C71      1.0000 0.58927  0.82948  0.90365  Biso   1.000  C
  C72      1.0000 0.62695  0.84740  0.86898  Biso   1.000  C
  H54      1.0000 0.63927  0.87663  0.85723  Biso   1.000  H
  H55      1.0000 0.49117  0.76813  0.89513  Biso   1.000  H
  H56      1.0000 0.45557  0.70533  0.98013  Biso   1.000  H
  O17      1.0000 0.19210  0.30565  0.26654  Biso   1.000  O
  O18      1.0000 0.17789  0.27702  0.35522  Biso   1.000  O
  C73      1.0000 0.19092  0.27946  0.30523  Biso   1.000  C
  C74      1.0000 0.20665  0.24821  0.28664  Biso   1.000  C
  C75      1.0000 0.20917  0.21992  0.32771  Biso   1.000  C
  H57      1.0000 0.20123  0.22057  0.36537  Biso   1.000  H
  C76      1.0000 0.22358  0.19137  0.31120  Biso   1.000  C
  H58      1.0000 0.22413  0.17187  0.33777  Biso   1.000  H
  C77      1.0000 0.23748  0.19127  0.25538  Biso   1.000  C
  C78      1.0000 0.23494  0.21934  0.21530  Biso   1.000  C
  H59      1.0000 0.24303  0.21877  0.17767  Biso   1.000  H
  C79      1.0000 0.22021  0.24829  0.23137  Biso   1.000  C
  H60      1.0000 0.21953  0.26767  0.20477  Biso   1.000  H
  C80      1.0000 0.25593  0.16282  0.23699  Biso   1.000  C
  C81      1.0000 0.29361  0.18074  0.20232  Biso   1.000  C
  H61      1.0000 0.30593  0.20997  0.19057  Biso   1.000  H
  H62      1.0000 0.15783  0.10147  0.22847  Biso   1.000  H
  H63      1.0000 0.12223  0.03867  0.31347  Biso   1.000  H
  O19      1.0000 0.21979  0.36102  0.40013  Biso   1.000  O
  O20      1.0000 0.23421  0.38965  0.31145  Biso   1.000  O
  C82      1.0000 0.24480  0.38721  0.36144  Biso   1.000  C
  C83      1.0000 0.29178  0.41846  0.38003  Biso   1.000  C
  C84      1.0000 0.32259  0.44675  0.33896  Biso   1.000  C
  H64      1.0000 0.31400  0.44610  0.30130  Biso   1.000  H
  C85      1.0000 0.36555  0.47530  0.35547  Biso   1.000  C
  H65      1.0000 0.38560  0.49480  0.32890  Biso   1.000  H
  C86      1.0000 0.37955  0.47540  0.41129  Biso   1.000  C
  C87      1.0000 0.34894  0.44733  0.45137  Biso   1.000  C
  H66      1.0000 0.35760  0.44790  0.48900  Biso   1.000  H
  C88      1.0000 0.30526  0.41838  0.43530  Biso   1.000  C
  H67      1.0000 0.28520  0.39900  0.46190  Biso   1.000  H
  C89      1.0000 0.42645  0.50385  0.42968  Biso   1.000  C
  C90      1.0000 0.44621  0.48593  0.46435  Biso   1.000  C
  H68      1.0000 0.42930  0.45670  0.47610  Biso   1.000  H
  H69      1.0000 0.38970  0.56520  0.43820  Biso   1.000  H
  H70      1.0000 0.41690  0.62800  0.35320  Biso   1.000  H
  O21      1.0000 0.88646  0.69435  0.73346  Biso   1.000  O
  O22      1.0000 0.90088  0.72298  0.64478  Biso   1.000  O
  C91      1.0000 0.91147  0.72054  0.69477  Biso   1.000  C
  C92      1.0000 0.95845  0.75179  0.71336  Biso   1.000  C
  C93      1.0000 0.98926  0.78008  0.67229  Biso   1.000  C
  H71      1.0000 0.98067  0.77943  0.63463  Biso   1.000  H
  C94      1.0000 0.03222  0.80863  0.68880  Biso   1.000  C
  H72      1.0000 0.05227  0.82813  0.66223  Biso   1.000  H
  C95      1.0000 0.04622  0.80873  0.74462  Biso   1.000  C
  C96      1.0000 0.01561  0.78066  0.78470  Biso   1.000  C
  H73      1.0000 0.02427  0.78123  0.82233  Biso   1.000  H
  C97      1.0000 0.97193  0.75171  0.76863  Biso   1.000  C
  H74      1.0000 0.95187  0.73233  0.79523  Biso   1.000  H
  C98      1.0000 0.09312  0.83718  0.76301  Biso   1.000  C
  C99      1.0000 0.11288  0.81926  0.79768  Biso   1.000  C
  H75      1.0000 0.09597  0.79003  0.80943  Biso   1.000  H
  H76      1.0000 0.05637  0.89853  0.77153  Biso   1.000  H
  H77      1.0000 0.08357  0.96133  0.68653  Biso   1.000  H
  O23      1.0000 0.55312  0.02769  0.06680  Biso   1.000  O
  O24      1.0000 0.56754  0.05632  0.97812  Biso   1.000  O
  C100     1.0000 0.57813  0.05388  0.02811  Biso   1.000  C
  C101     1.0000 0.62511  0.08513  0.04670  Biso   1.000  C
  C102     1.0000 0.65592  0.11342  0.00563  Biso   1.000  C
  H78      1.0000 0.64733  0.11277  0.96797  Biso   1.000  H
  C103     1.0000 0.69888  0.14197  0.02214  Biso   1.000  C
  H79      1.0000 0.71893  0.16147  0.99557  Biso   1.000  H
  C104     1.0000 0.71288  0.14207  0.07796  Biso   1.000  C
  C105     1.0000 0.68227  0.11400  0.11804  Biso   1.000  C
  H80      1.0000 0.69093  0.11457  0.15567  Biso   1.000  H
  C106     1.0000 0.63859  0.08505  0.10197  Biso   1.000  C
  H81      1.0000 0.61853  0.06567  0.12857  Biso   1.000  H
  C107     1.0000 0.75978  0.17052  0.09635  Biso   1.000  C
  C108     1.0000 0.77954  0.15260  0.13102  Biso   1.000  C
  H82      1.0000 0.76263  0.12337  0.14277  Biso   1.000  H
  H83      1.0000 0.72303  0.23187  0.10487  Biso   1.000  H
  H84      1.0000 0.75023  0.29467  0.01987  Biso   1.000  H
  O25      1.0000 0.14123  0.78021  0.40013  Biso   1.000  O
  O26      1.0000 0.15544  0.76579  0.31145  Biso   1.000  O
  C109     1.0000 0.14241  0.75520  0.36144  Biso   1.000  C
  C110     1.0000 0.12668  0.70822  0.38003  Biso   1.000  C
  C111     1.0000 0.12416  0.67741  0.33896  Biso   1.000  C
  H85      1.0000 0.13210  0.68600  0.30130  Biso   1.000  H
  C112     1.0000 0.10975  0.63445  0.35547  Biso   1.000  C
  H86      1.0000 0.10920  0.61440  0.32890  Biso   1.000  H
  C113     1.0000 0.09585  0.62045  0.41129  Biso   1.000  C
  C114     1.0000 0.09839  0.65106  0.45137  Biso   1.000  C
  H87      1.0000 0.09030  0.64240  0.48900  Biso   1.000  H
  C115     1.0000 0.11312  0.69474  0.43530  Biso   1.000  C
  H88      1.0000 0.11380  0.71480  0.46190  Biso   1.000  H
  C116     1.0000 0.07740  0.57355  0.42968  Biso   1.000  C
  C117     1.0000 0.03972  0.55379  0.46435  Biso   1.000  C
  H89      1.0000 0.02740  0.57070  0.47610  Biso   1.000  H
  H90      1.0000 0.17550  0.61030  0.43820  Biso   1.000  H
  H91      1.0000 0.21110  0.58310  0.35320  Biso   1.000  H
  O27      1.0000 0.80790  0.11354  0.73346  Biso   1.000  O
  O28      1.0000 0.82211  0.09912  0.64478  Biso   1.000  O
  C118     1.0000 0.80908  0.08853  0.69477  Biso   1.000  C
  C119     1.0000 0.79335  0.04155  0.71336  Biso   1.000  C
  C120     1.0000 0.79083  0.01074  0.67229  Biso   1.000  C
  H92      1.0000 0.79877  0.01933  0.63463  Biso   1.000  H
  C121     1.0000 0.77642  0.96778  0.68880  Biso   1.000  C
  H93      1.0000 0.77587  0.94773  0.66223  Biso   1.000  H
  C122     1.0000 0.76252  0.95378  0.74462  Biso   1.000  C
  C123     1.0000 0.76506  0.98439  0.78470  Biso   1.000  C
  H94      1.0000 0.75697  0.97573  0.82233  Biso   1.000  H
  C124     1.0000 0.77979  0.02807  0.76863  Biso   1.000  C
  H95      1.0000 0.78047  0.04813  0.79523  Biso   1.000  H
  C125     1.0000 0.74407  0.90688  0.76301  Biso   1.000  C
  C126     1.0000 0.70639  0.88712  0.79768  Biso   1.000  C
  H96      1.0000 0.69407  0.90403  0.80943  Biso   1.000  H
  H97      1.0000 0.84217  0.94363  0.77153  Biso   1.000  H
  H98      1.0000 0.87777  0.91643  0.68653  Biso   1.000  H
  O29      1.0000 0.47456  0.44688  0.06680  Biso   1.000  O
  O30      1.0000 0.48877  0.43246  0.97812  Biso   1.000  O
  C127     1.0000 0.47574  0.42187  0.02811  Biso   1.000  C
  C128     1.0000 0.46001  0.37489  0.04670  Biso   1.000  C
  C129     1.0000 0.45749  0.34408  0.00563  Biso   1.000  C
  H99      1.0000 0.46543  0.35267  0.96797  Biso   1.000  H
  C130     1.0000 0.44308  0.30112  0.02214  Biso   1.000  C
  H100     1.0000 0.44253  0.28107  0.99557  Biso   1.000  H
  C131     1.0000 0.42918  0.28712  0.07796  Biso   1.000  C
  C132     1.0000 0.43172  0.31773  0.11804  Biso   1.000  C
  H101     1.0000 0.42363  0.30907  0.15567  Biso   1.000  H
  C133     1.0000 0.44645  0.36141  0.10197  Biso   1.000  C
  H102     1.0000 0.44713  0.38147  0.12857  Biso   1.000  H
  C134     1.0000 0.41073  0.24022  0.09635  Biso   1.000  C
  C135     1.0000 0.37305  0.22046  0.13102  Biso   1.000  C
  H103     1.0000 0.36073  0.23737  0.14277  Biso   1.000  H
  H104     1.0000 0.50883  0.27697  0.10487  Biso   1.000  H
  H105     1.0000 0.54443  0.24977  0.01987  Biso   1.000  H
  O31      1.0000 0.63898  0.85877  0.40013  Biso   1.000  O
  O32      1.0000 0.61035  0.84456  0.31145  Biso   1.000  O
  C136     1.0000 0.61279  0.85759  0.36144  Biso   1.000  C
  C137     1.0000 0.58154  0.87332  0.38003  Biso   1.000  C
  C138     1.0000 0.55325  0.87584  0.33896  Biso   1.000  C
  H106     1.0000 0.55390  0.86790  0.30130  Biso   1.000  H
  C139     1.0000 0.52470  0.89025  0.35547  Biso   1.000  C
  H107     1.0000 0.50520  0.89080  0.32890  Biso   1.000  H
  C140     1.0000 0.52460  0.90415  0.41129  Biso   1.000  C
  C141     1.0000 0.55267  0.90161  0.45137  Biso   1.000  C
  H108     1.0000 0.55210  0.90970  0.48900  Biso   1.000  H
  C142     1.0000 0.58162  0.88688  0.43530  Biso   1.000  C
  H109     1.0000 0.60100  0.88620  0.46190  Biso   1.000  H
  C143     1.0000 0.49615  0.92260  0.42968  Biso   1.000  C
  C144     1.0000 0.51407  0.96028  0.46435  Biso   1.000  C
  H110     1.0000 0.54330  0.97260  0.47610  Biso   1.000  H
  H111     1.0000 0.43480  0.82450  0.43820  Biso   1.000  H
  H112     1.0000 0.37200  0.78890  0.35320  Biso   1.000  H
  O33      1.0000 0.30565  0.19210  0.73346  Biso   1.000  O
  O34      1.0000 0.27702  0.17789  0.64478  Biso   1.000  O
  C145     1.0000 0.27946  0.19092  0.69477  Biso   1.000  C
  C146     1.0000 0.24821  0.20665  0.71336  Biso   1.000  C
  C147     1.0000 0.21992  0.20917  0.67229  Biso   1.000  C
  H113     1.0000 0.22057  0.20123  0.63463  Biso   1.000  H
  C148     1.0000 0.19137  0.22358  0.68880  Biso   1.000  C
  H114     1.0000 0.17187  0.22413  0.66223  Biso   1.000  H
  C149     1.0000 0.19127  0.23748  0.74462  Biso   1.000  C
  C150     1.0000 0.21934  0.23494  0.78470  Biso   1.000  C
  H115     1.0000 0.21877  0.24303  0.82233  Biso   1.000  H
  C151     1.0000 0.24829  0.22021  0.76863  Biso   1.000  C
  H116     1.0000 0.26767  0.21953  0.79523  Biso   1.000  H
  C152     1.0000 0.16282  0.25593  0.76301  Biso   1.000  C
  C153     1.0000 0.18074  0.29361  0.79768  Biso   1.000  C
  H117     1.0000 0.20997  0.30593  0.80943  Biso   1.000  H
  H118     1.0000 0.10147  0.15783  0.77153  Biso   1.000  H
  H119     1.0000 0.03867  0.12223  0.68653  Biso   1.000  H
  O35      1.0000 0.97231  0.52544  0.06680  Biso   1.000  O
  O36      1.0000 0.94368  0.51123  0.97812  Biso   1.000  O
  C154     1.0000 0.94612  0.52426  0.02811  Biso   1.000  C
  C155     1.0000 0.91487  0.53999  0.04670  Biso   1.000  C
  C156     1.0000 0.88658  0.54251  0.00563  Biso   1.000  C
  H120     1.0000 0.88723  0.53457  0.96797  Biso   1.000  H
  C157     1.0000 0.85803  0.55692  0.02214  Biso   1.000  C
  H121     1.0000 0.83853  0.55747  0.99557  Biso   1.000  H
  C158     1.0000 0.85793  0.57082  0.07796  Biso   1.000  C
  C159     1.0000 0.88600  0.56828  0.11804  Biso   1.000  C
  H122     1.0000 0.88543  0.57637  0.15567  Biso   1.000  H
  C160     1.0000 0.91495  0.55355  0.10197  Biso   1.000  C
  H123     1.0000 0.93433  0.55287  0.12857  Biso   1.000  H
  C161     1.0000 0.82948  0.58927  0.09635  Biso   1.000  C
  C162     1.0000 0.84740  0.62695  0.13102  Biso   1.000  C
  H124     1.0000 0.87663  0.63927  0.14277  Biso   1.000  H
  H125     1.0000 0.76813  0.49117  0.10487  Biso   1.000  H
  H126     1.0000 0.70533  0.45557  0.01987  Biso   1.000  H
  O37      1.0000 0.63898  0.78021  0.40013  Biso   1.000  O
  O38      1.0000 0.61035  0.76579  0.31145  Biso   1.000  O
  C163     1.0000 0.61279  0.75520  0.36144  Biso   1.000  C
  C164     1.0000 0.58154  0.70822  0.38003  Biso   1.000  C
  C165     1.0000 0.55325  0.67741  0.33896  Biso   1.000  C
  H127     1.0000 0.55390  0.68600  0.30130  Biso   1.000  H
  C166     1.0000 0.52470  0.63445  0.35547  Biso   1.000  C
  H128     1.0000 0.50520  0.61440  0.32890  Biso   1.000  H
  C167     1.0000 0.52460  0.62045  0.41129  Biso   1.000  C
  C168     1.0000 0.55267  0.65106  0.45137  Biso   1.000  C
  H129     1.0000 0.55210  0.64240  0.48900  Biso   1.000  H
  C169     1.0000 0.58162  0.69474  0.43530  Biso   1.000  C
  H130     1.0000 0.60100  0.71480  0.46190  Biso   1.000  H
  C170     1.0000 0.49615  0.57355  0.42968  Biso   1.000  C
  C171     1.0000 0.51407  0.55379  0.46435  Biso   1.000  C
  H131     1.0000 0.54330  0.57070  0.47610  Biso   1.000  H
  H132     1.0000 0.43480  0.61030  0.43820  Biso   1.000  H
  H133     1.0000 0.37200  0.58310  0.35320  Biso   1.000  H
  O39      1.0000 0.30565  0.11354  0.73346  Biso   1.000  O
  O40      1.0000 0.27702  0.09912  0.64478  Biso   1.000  O
  C172     1.0000 0.27946  0.08853  0.69477  Biso   1.000  C
  C173     1.0000 0.24821  0.04155  0.71336  Biso   1.000  C
  C174     1.0000 0.21992  0.01074  0.67229  Biso   1.000  C
  H134     1.0000 0.22057  0.01933  0.63463  Biso   1.000  H
  C175     1.0000 0.19137  0.96778  0.68880  Biso   1.000  C
  H135     1.0000 0.17187  0.94773  0.66223  Biso   1.000  H
  C176     1.0000 0.19127  0.95378  0.74462  Biso   1.000  C
  C177     1.0000 0.21934  0.98439  0.78470  Biso   1.000  C
  H136     1.0000 0.21877  0.97573  0.82233  Biso   1.000  H
  C178     1.0000 0.24829  0.02807  0.76863  Biso   1.000  C
  H137     1.0000 0.26767  0.04813  0.79523  Biso   1.000  H
  C179     1.0000 0.16282  0.90688  0.76301  Biso   1.000  C
  C180     1.0000 0.18074  0.88712  0.79768  Biso   1.000  C
  H138     1.0000 0.20997  0.90403  0.80943  Biso   1.000  H
  H139     1.0000 0.10147  0.94363  0.77153  Biso   1.000  H
  H140     1.0000 0.03867  0.91643  0.68653  Biso   1.000  H
  O41      1.0000 0.97231  0.44688  0.06680  Biso   1.000  O
  O42      1.0000 0.94368  0.43246  0.97812  Biso   1.000  O
  C181     1.0000 0.94612  0.42187  0.02811  Biso   1.000  C
  C182     1.0000 0.91487  0.37489  0.04670  Biso   1.000  C
  C183     1.0000 0.88658  0.34408  0.00563  Biso   1.000  C
  H141     1.0000 0.88723  0.35267  0.96797  Biso   1.000  H
  C184     1.0000 0.85803  0.30112  0.02214  Biso   1.000  C
  H142     1.0000 0.83853  0.28107  0.99557  Biso   1.000  H
  C185     1.0000 0.85793  0.28712  0.07796  Biso   1.000  C
  C186     1.0000 0.88600  0.31773  0.11804  Biso   1.000  C
  H143     1.0000 0.88543  0.30907  0.15567  Biso   1.000  H
  C187     1.0000 0.91495  0.36141  0.10197  Biso   1.000  C
  H144     1.0000 0.93433  0.38147  0.12857  Biso   1.000  H
  C188     1.0000 0.82948  0.24022  0.09635  Biso   1.000  C
  C189     1.0000 0.84740  0.22046  0.13102  Biso   1.000  C
  H145     1.0000 0.87663  0.23737  0.14277  Biso   1.000  H
  H146     1.0000 0.76813  0.27697  0.10487  Biso   1.000  H
  H147     1.0000 0.70533  0.24977  0.01987  Biso   1.000  H
  O43      1.0000 0.21979  0.85877  0.40013  Biso   1.000  O
  O44      1.0000 0.23421  0.84456  0.31145  Biso   1.000  O
  C190     1.0000 0.24480  0.85759  0.36144  Biso   1.000  C
  C191     1.0000 0.29178  0.87332  0.38003  Biso   1.000  C
  C192     1.0000 0.32259  0.87584  0.33896  Biso   1.000  C
  H148     1.0000 0.31400  0.86790  0.30130  Biso   1.000  H
  C193     1.0000 0.36555  0.89025  0.35547  Biso   1.000  C
  H149     1.0000 0.38560  0.89080  0.32890  Biso   1.000  H
  C194     1.0000 0.37955  0.90415  0.41129  Biso   1.000  C
  C195     1.0000 0.34894  0.90161  0.45137  Biso   1.000  C
  H150     1.0000 0.35760  0.90970  0.48900  Biso   1.000  H
  C196     1.0000 0.30526  0.88688  0.43530  Biso   1.000  C
  H151     1.0000 0.28520  0.88620  0.46190  Biso   1.000  H
  C197     1.0000 0.42645  0.92260  0.42968  Biso   1.000  C
  C198     1.0000 0.44621  0.96028  0.46435  Biso   1.000  C
  H152     1.0000 0.42930  0.97260  0.47610  Biso   1.000  H
  H153     1.0000 0.38970  0.82450  0.43820  Biso   1.000  H
  H154     1.0000 0.41690  0.78890  0.35320  Biso   1.000  H
  O45      1.0000 0.88646  0.19210  0.73346  Biso   1.000  O
  O46      1.0000 0.90088  0.17789  0.64478  Biso   1.000  O
  C199     1.0000 0.91147  0.19092  0.69477  Biso   1.000  C
  C200     1.0000 0.95845  0.20665  0.71336  Biso   1.000  C
  C201     1.0000 0.98926  0.20917  0.67229  Biso   1.000  C
  H155     1.0000 0.98067  0.20123  0.63463  Biso   1.000  H
  C202     1.0000 0.03222  0.22358  0.68880  Biso   1.000  C
  H156     1.0000 0.05227  0.22413  0.66223  Biso   1.000  H
  C203     1.0000 0.04622  0.23748  0.74462  Biso   1.000  C
  C204     1.0000 0.01561  0.23494  0.78470  Biso   1.000  C
  H157     1.0000 0.02427  0.24303  0.82233  Biso   1.000  H
  C205     1.0000 0.97193  0.22021  0.76863  Biso   1.000  C
  H158     1.0000 0.95187  0.21953  0.79523  Biso   1.000  H
  C206     1.0000 0.09312  0.25593  0.76301  Biso   1.000  C
  C207     1.0000 0.11288  0.29361  0.79768  Biso   1.000  C
  H159     1.0000 0.09597  0.30593  0.80943  Biso   1.000  H
  H160     1.0000 0.05637  0.15783  0.77153  Biso   1.000  H
  H161     1.0000 0.08357  0.12223  0.68653  Biso   1.000  H
  O47      1.0000 0.55312  0.52544  0.06680  Biso   1.000  O
  O48      1.0000 0.56754  0.51123  0.97812  Biso   1.000  O
  C208     1.0000 0.57813  0.52426  0.02811  Biso   1.000  C
  C209     1.0000 0.62511  0.53999  0.04670  Biso   1.000  C
  C210     1.0000 0.65592  0.54251  0.00563  Biso   1.000  C
  H162     1.0000 0.64733  0.53457  0.96797  Biso   1.000  H
  C211     1.0000 0.69888  0.55692  0.02214  Biso   1.000  C
  H163     1.0000 0.71893  0.55747  0.99557  Biso   1.000  H
  C212     1.0000 0.71288  0.57082  0.07796  Biso   1.000  C
  C213     1.0000 0.68227  0.56828  0.11804  Biso   1.000  C
  H164     1.0000 0.69093  0.57637  0.15567  Biso   1.000  H
  C214     1.0000 0.63859  0.55355  0.10197  Biso   1.000  C
  H165     1.0000 0.61853  0.55287  0.12857  Biso   1.000  H
  C215     1.0000 0.75978  0.58927  0.09635  Biso   1.000  C
  C216     1.0000 0.77954  0.62695  0.13102  Biso   1.000  C
  H166     1.0000 0.76263  0.63927  0.14277  Biso   1.000  H
  H167     1.0000 0.72303  0.49117  0.10487  Biso   1.000  H
  H168     1.0000 0.75023  0.45557  0.01987  Biso   1.000  H
  O49      1.0000 0.14123  0.36102  0.40013  Biso   1.000  O
  O50      1.0000 0.15544  0.38965  0.31145  Biso   1.000  O
  C217     1.0000 0.14241  0.38721  0.36144  Biso   1.000  C
  C218     1.0000 0.12668  0.41846  0.38003  Biso   1.000  C
  C219     1.0000 0.12416  0.44675  0.33896  Biso   1.000  C
  H169     1.0000 0.13210  0.44610  0.30130  Biso   1.000  H
  C220     1.0000 0.10975  0.47530  0.35547  Biso   1.000  C
  H170     1.0000 0.10920  0.49480  0.32890  Biso   1.000  H
  C221     1.0000 0.09585  0.47540  0.41129  Biso   1.000  C
  C222     1.0000 0.09839  0.44733  0.45137  Biso   1.000  C
  H171     1.0000 0.09030  0.44790  0.48900  Biso   1.000  H
  C223     1.0000 0.11312  0.41838  0.43530  Biso   1.000  C
  H172     1.0000 0.11380  0.39900  0.46190  Biso   1.000  H
  C224     1.0000 0.07740  0.50385  0.42968  Biso   1.000  C
  C225     1.0000 0.03972  0.48593  0.46435  Biso   1.000  C
  H173     1.0000 0.02740  0.45670  0.47610  Biso   1.000  H
  H174     1.0000 0.17550  0.56520  0.43820  Biso   1.000  H
  H175     1.0000 0.21110  0.62800  0.35320  Biso   1.000  H
  O51      1.0000 0.80790  0.69435  0.73346  Biso   1.000  O
  O52      1.0000 0.82211  0.72298  0.64478  Biso   1.000  O
  C226     1.0000 0.80908  0.72054  0.69477  Biso   1.000  C
  C227     1.0000 0.79335  0.75179  0.71336  Biso   1.000  C
  C228     1.0000 0.79083  0.78008  0.67229  Biso   1.000  C
  H176     1.0000 0.79877  0.77943  0.63463  Biso   1.000  H
  C229     1.0000 0.77642  0.80863  0.68880  Biso   1.000  C
  H177     1.0000 0.77587  0.82813  0.66223  Biso   1.000  H
  C230     1.0000 0.76252  0.80873  0.74462  Biso   1.000  C
  C231     1.0000 0.76506  0.78066  0.78470  Biso   1.000  C
  H178     1.0000 0.75697  0.78123  0.82233  Biso   1.000  H
  C232     1.0000 0.77979  0.75171  0.76863  Biso   1.000  C
  H179     1.0000 0.78047  0.73233  0.79523  Biso   1.000  H
  C233     1.0000 0.74407  0.83718  0.76301  Biso   1.000  C
  C234     1.0000 0.70639  0.81926  0.79768  Biso   1.000  C
  H180     1.0000 0.69407  0.79003  0.80943  Biso   1.000  H
  H181     1.0000 0.84217  0.89853  0.77153  Biso   1.000  H
  H182     1.0000 0.87777  0.96133  0.68653  Biso   1.000  H
  O53      1.0000 0.47456  0.02769  0.06680  Biso   1.000  O
  O54      1.0000 0.48877  0.05632  0.97812  Biso   1.000  O
  C235     1.0000 0.47574  0.05388  0.02811  Biso   1.000  C
  C236     1.0000 0.46001  0.08513  0.04670  Biso   1.000  C
  C237     1.0000 0.45749  0.11342  0.00563  Biso   1.000  C
  H183     1.0000 0.46543  0.11277  0.96797  Biso   1.000  H
  C238     1.0000 0.44308  0.14197  0.02214  Biso   1.000  C
  H184     1.0000 0.44253  0.16147  0.99557  Biso   1.000  H
  C239     1.0000 0.42918  0.14207  0.07796  Biso   1.000  C
  C240     1.0000 0.43172  0.11400  0.11804  Biso   1.000  C
  H185     1.0000 0.42363  0.11457  0.15567  Biso   1.000  H
  C241     1.0000 0.44645  0.08505  0.10197  Biso   1.000  C
  H186     1.0000 0.44713  0.06567  0.12857  Biso   1.000  H
  C242     1.0000 0.41073  0.17052  0.09635  Biso   1.000  C
  C243     1.0000 0.37305  0.15260  0.13102  Biso   1.000  C
  H187     1.0000 0.36073  0.12337  0.14277  Biso   1.000  H
  H188     1.0000 0.50883  0.23187  0.10487  Biso   1.000  H
  H189     1.0000 0.54443  0.29467  0.01987  Biso   1.000  H
  O55      1.0000 0.78021  0.63898  0.59987  Biso   1.000  O
  O56      1.0000 0.76579  0.61035  0.68855  Biso   1.000  O
  C244     1.0000 0.75520  0.61279  0.63856  Biso   1.000  C
  C245     1.0000 0.70822  0.58154  0.61997  Biso   1.000  C
  C246     1.0000 0.67741  0.55325  0.66104  Biso   1.000  C
  H190     1.0000 0.68600  0.55390  0.69870  Biso   1.000  H
  C247     1.0000 0.63445  0.52470  0.64453  Biso   1.000  C
  H191     1.0000 0.61440  0.50520  0.67110  Biso   1.000  H
  C248     1.0000 0.62045  0.52460  0.58871  Biso   1.000  C
  C249     1.0000 0.65106  0.55267  0.54863  Biso   1.000  C
  H192     1.0000 0.64240  0.55210  0.51100  Biso   1.000  H
  C250     1.0000 0.69474  0.58162  0.56470  Biso   1.000  C
  H193     1.0000 0.71480  0.60100  0.53810  Biso   1.000  H
  C251     1.0000 0.57355  0.49615  0.57032  Biso   1.000  C
  C252     1.0000 0.55379  0.51407  0.53565  Biso   1.000  C
  H194     1.0000 0.57070  0.54330  0.52390  Biso   1.000  H
  H195     1.0000 0.61030  0.43480  0.56180  Biso   1.000  H
  H196     1.0000 0.58310  0.37200  0.64680  Biso   1.000  H
  O57      1.0000 0.44688  0.97231  0.93320  Biso   1.000  O
  O58      1.0000 0.43246  0.94368  0.02188  Biso   1.000  O
  C253     1.0000 0.42187  0.94612  0.97189  Biso   1.000  C
  C254     1.0000 0.37489  0.91487  0.95330  Biso   1.000  C
  C255     1.0000 0.34408  0.88658  0.99437  Biso   1.000  C
  H197     1.0000 0.35267  0.88723  0.03203  Biso   1.000  H
  C256     1.0000 0.30112  0.85803  0.97786  Biso   1.000  C
  H198     1.0000 0.28107  0.83853  0.00443  Biso   1.000  H
  C257     1.0000 0.28712  0.85793  0.92204  Biso   1.000  C
  C258     1.0000 0.31773  0.88600  0.88196  Biso   1.000  C
  H199     1.0000 0.30907  0.88543  0.84433  Biso   1.000  H
  C259     1.0000 0.36141  0.91495  0.89803  Biso   1.000  C
  H200     1.0000 0.38147  0.93433  0.87143  Biso   1.000  H
  C260     1.0000 0.24022  0.82948  0.90365  Biso   1.000  C
  C261     1.0000 0.22046  0.84740  0.86898  Biso   1.000  C
  H201     1.0000 0.23737  0.87663  0.85723  Biso   1.000  H
  H202     1.0000 0.27697  0.76813  0.89513  Biso   1.000  H
  H203     1.0000 0.24977  0.70533  0.98013  Biso   1.000  H
  O59      1.0000 0.11354  0.30565  0.26654  Biso   1.000  O
  O60      1.0000 0.09912  0.27702  0.35522  Biso   1.000  O
  C262     1.0000 0.08853  0.27946  0.30523  Biso   1.000  C
  C263     1.0000 0.04155  0.24821  0.28664  Biso   1.000  C
  C264     1.0000 0.01074  0.21992  0.32771  Biso   1.000  C
  H204     1.0000 0.01933  0.22057  0.36537  Biso   1.000  H
  C265     1.0000 0.96778  0.19137  0.31120  Biso   1.000  C
  H205     1.0000 0.94773  0.17187  0.33777  Biso   1.000  H
  C266     1.0000 0.95378  0.19127  0.25538  Biso   1.000  C
  C267     1.0000 0.98439  0.21934  0.21530  Biso   1.000  C
  H206     1.0000 0.97573  0.21877  0.17767  Biso   1.000  H
  C268     1.0000 0.02807  0.24829  0.23137  Biso   1.000  C
  H207     1.0000 0.04813  0.26767  0.20477  Biso   1.000  H
  C269     1.0000 0.90688  0.16282  0.23699  Biso   1.000  C
  C270     1.0000 0.88712  0.18074  0.20232  Biso   1.000  C
  H208     1.0000 0.90403  0.20997  0.19057  Biso   1.000  H
  H209     1.0000 0.94363  0.10147  0.22847  Biso   1.000  H
  H210     1.0000 0.91643  0.03867  0.31347  Biso   1.000  H
  O61      1.0000 0.85877  0.21979  0.59987  Biso   1.000  O
  O62      1.0000 0.84456  0.23421  0.68855  Biso   1.000  O
  C271     1.0000 0.85759  0.24480  0.63856  Biso   1.000  C
  C272     1.0000 0.87332  0.29178  0.61997  Biso   1.000  C
  C273     1.0000 0.87584  0.32259  0.66104  Biso   1.000  C
  H211     1.0000 0.86790  0.31400  0.69870  Biso   1.000  H
  C274     1.0000 0.89025  0.36555  0.64453  Biso   1.000  C
  H212     1.0000 0.89080  0.38560  0.67110  Biso   1.000  H
  C275     1.0000 0.90415  0.37955  0.58871  Biso   1.000  C
  C276     1.0000 0.90161  0.34894  0.54863  Biso   1.000  C
  H213     1.0000 0.90970  0.35760  0.51100  Biso   1.000  H
  C277     1.0000 0.88688  0.30526  0.56470  Biso   1.000  C
  H214     1.0000 0.88620  0.28520  0.53810  Biso   1.000  H
  C278     1.0000 0.92260  0.42645  0.57032  Biso   1.000  C
  C279     1.0000 0.96028  0.44621  0.53565  Biso   1.000  C
  H215     1.0000 0.97260  0.42930  0.52390  Biso   1.000  H
  H216     1.0000 0.82450  0.38970  0.56180  Biso   1.000  H
  H217     1.0000 0.78890  0.41690  0.64680  Biso   1.000  H
  O63      1.0000 0.52544  0.55312  0.93320  Biso   1.000  O
  O64      1.0000 0.51123  0.56754  0.02188  Biso   1.000  O
  C280     1.0000 0.52426  0.57813  0.97189  Biso   1.000  C
  C281     1.0000 0.53999  0.62511  0.95330  Biso   1.000  C
  C282     1.0000 0.54251  0.65592  0.99437  Biso   1.000  C
  H218     1.0000 0.53457  0.64733  0.03203  Biso   1.000  H
  C283     1.0000 0.55692  0.69888  0.97786  Biso   1.000  C
  H219     1.0000 0.55747  0.71893  0.00443  Biso   1.000  H
  C284     1.0000 0.57082  0.71288  0.92204  Biso   1.000  C
  C285     1.0000 0.56828  0.68227  0.88196  Biso   1.000  C
  H220     1.0000 0.57637  0.69093  0.84433  Biso   1.000  H
  C286     1.0000 0.55355  0.63859  0.89803  Biso   1.000  C
  H221     1.0000 0.55287  0.61853  0.87143  Biso   1.000  H
  C287     1.0000 0.58927  0.75978  0.90365  Biso   1.000  C
  C288     1.0000 0.62695  0.77954  0.86898  Biso   1.000  C
  H222     1.0000 0.63927  0.76263  0.85723  Biso   1.000  H
  H223     1.0000 0.49117  0.72303  0.89513  Biso   1.000  H
  H224     1.0000 0.45557  0.75023  0.98013  Biso   1.000  H
  O65      1.0000 0.19210  0.88646  0.26654  Biso   1.000  O
  O66      1.0000 0.17789  0.90088  0.35522  Biso   1.000  O
  C289     1.0000 0.19092  0.91147  0.30523  Biso   1.000  C
  C290     1.0000 0.20665  0.95845  0.28664  Biso   1.000  C
  C291     1.0000 0.20917  0.98926  0.32771  Biso   1.000  C
  H225     1.0000 0.20123  0.98067  0.36537  Biso   1.000  H
  C292     1.0000 0.22358  0.03222  0.31120  Biso   1.000  C
  H226     1.0000 0.22413  0.05227  0.33777  Biso   1.000  H
  C293     1.0000 0.23748  0.04622  0.25538  Biso   1.000  C
  C294     1.0000 0.23494  0.01561  0.21530  Biso   1.000  C
  H227     1.0000 0.24303  0.02427  0.17767  Biso   1.000  H
  C295     1.0000 0.22021  0.97193  0.23137  Biso   1.000  C
  H228     1.0000 0.21953  0.95187  0.20477  Biso   1.000  H
  C296     1.0000 0.25593  0.09312  0.23699  Biso   1.000  C
  C297     1.0000 0.29361  0.11288  0.20232  Biso   1.000  C
  H229     1.0000 0.30593  0.09597  0.19057  Biso   1.000  H
  H230     1.0000 0.15783  0.05637  0.22847  Biso   1.000  H
  H231     1.0000 0.12223  0.08357  0.31347  Biso   1.000  H
  O67      1.0000 0.36102  0.14123  0.59987  Biso   1.000  O
  O68      1.0000 0.38965  0.15544  0.68855  Biso   1.000  O
  C298     1.0000 0.38721  0.14241  0.63856  Biso   1.000  C
  C299     1.0000 0.41846  0.12668  0.61997  Biso   1.000  C
  C300     1.0000 0.44675  0.12416  0.66104  Biso   1.000  C
  H232     1.0000 0.44610  0.13210  0.69870  Biso   1.000  H
  C301     1.0000 0.47530  0.10975  0.64453  Biso   1.000  C
  H233     1.0000 0.49480  0.10920  0.67110  Biso   1.000  H
  C302     1.0000 0.47540  0.09585  0.58871  Biso   1.000  C
  C303     1.0000 0.44733  0.09839  0.54863  Biso   1.000  C
  H234     1.0000 0.44790  0.09030  0.51100  Biso   1.000  H
  C304     1.0000 0.41838  0.11312  0.56470  Biso   1.000  C
  H235     1.0000 0.39900  0.11380  0.53810  Biso   1.000  H
  C305     1.0000 0.50385  0.07740  0.57032  Biso   1.000  C
  C306     1.0000 0.48593  0.03972  0.53565  Biso   1.000  C
  H236     1.0000 0.45670  0.02740  0.52390  Biso   1.000  H
  H237     1.0000 0.56520  0.17550  0.56180  Biso   1.000  H
  H238     1.0000 0.62800  0.21110  0.64680  Biso   1.000  H
  O69      1.0000 0.02769  0.47456  0.93320  Biso   1.000  O
  O70      1.0000 0.05632  0.48877  0.02188  Biso   1.000  O
  C307     1.0000 0.05388  0.47574  0.97189  Biso   1.000  C
  C308     1.0000 0.08513  0.46001  0.95330  Biso   1.000  C
  C309     1.0000 0.11342  0.45749  0.99437  Biso   1.000  C
  H239     1.0000 0.11277  0.46543  0.03203  Biso   1.000  H
  C310     1.0000 0.14197  0.44308  0.97786  Biso   1.000  C
  H240     1.0000 0.16147  0.44253  0.00443  Biso   1.000  H
  C311     1.0000 0.14207  0.42918  0.92204  Biso   1.000  C
  C312     1.0000 0.11400  0.43172  0.88196  Biso   1.000  C
  H241     1.0000 0.11457  0.42363  0.84433  Biso   1.000  H
  C313     1.0000 0.08505  0.44645  0.89803  Biso   1.000  C
  H242     1.0000 0.06567  0.44713  0.87143  Biso   1.000  H
  C314     1.0000 0.17052  0.41073  0.90365  Biso   1.000  C
  C315     1.0000 0.15260  0.37305  0.86898  Biso   1.000  C
  H243     1.0000 0.12337  0.36073  0.85723  Biso   1.000  H
  H244     1.0000 0.23187  0.50883  0.89513  Biso   1.000  H
  H245     1.0000 0.29467  0.54443  0.98013  Biso   1.000  H
  O71      1.0000 0.69435  0.80790  0.26654  Biso   1.000  O
  O72      1.0000 0.72298  0.82211  0.35522  Biso   1.000  O
  C316     1.0000 0.72054  0.80908  0.30523  Biso   1.000  C
  C317     1.0000 0.75179  0.79335  0.28664  Biso   1.000  C
  C318     1.0000 0.78008  0.79083  0.32771  Biso   1.000  C
  H246     1.0000 0.77943  0.79877  0.36537  Biso   1.000  H
  C319     1.0000 0.80863  0.77642  0.31120  Biso   1.000  C
  H247     1.0000 0.82813  0.77587  0.33777  Biso   1.000  H
  C320     1.0000 0.80873  0.76252  0.25538  Biso   1.000  C
  C321     1.0000 0.78066  0.76506  0.21530  Biso   1.000  C
  H248     1.0000 0.78123  0.75697  0.17767  Biso   1.000  H
  C322     1.0000 0.75171  0.77979  0.23137  Biso   1.000  C
  H249     1.0000 0.73233  0.78047  0.20477  Biso   1.000  H
  C323     1.0000 0.83718  0.74407  0.23699  Biso   1.000  C
  C324     1.0000 0.81926  0.70639  0.20232  Biso   1.000  C
  H250     1.0000 0.79003  0.69407  0.19057  Biso   1.000  H
  H251     1.0000 0.89853  0.84217  0.22847  Biso   1.000  H
  H252     1.0000 0.96133  0.87777  0.31347  Biso   1.000  H
  Cu1      1.0000 0.35014  0.17507  0.71875  Biso   1.000  Cu
  Cu2      1.0000 0.01681  0.50840  0.05208  Biso   1.000  Cu
  Cu3      1.0000 0.68347  0.84174  0.38542  Biso   1.000  Cu
  Cu4      1.0000 0.82493  0.17507  0.71875  Biso   1.000  Cu
  Cu5      1.0000 0.49160  0.50840  0.05208  Biso   1.000  Cu
  Cu6      1.0000 0.15826  0.84174  0.38542  Biso   1.000  Cu
  Cu7      1.0000 0.82493  0.64986  0.71875  Biso   1.000  Cu
  Cu8      1.0000 0.49160  0.98319  0.05208  Biso   1.000  Cu
  Cu9      1.0000 0.15826  0.31653  0.38542  Biso   1.000  Cu
  Cu10     1.0000 0.17507  0.35014  0.28125  Biso   1.000  Cu
  Cu11     1.0000 0.84174  0.68347  0.61458  Biso   1.000  Cu
  Cu12     1.0000 0.50840  0.01681  0.94792  Biso   1.000  Cu
  Cu13     1.0000 0.17507  0.82493  0.28125  Biso   1.000  Cu
  Cu14     1.0000 0.84174  0.15826  0.61458  Biso   1.000  Cu
  Cu15     1.0000 0.50840  0.49160  0.94792  Biso   1.000  Cu
  Cu16     1.0000 0.64986  0.82493  0.28125  Biso   1.000  Cu
  Cu17     1.0000 0.31653  0.15826  0.61458  Biso   1.000  Cu
  Cu18     1.0000 0.98319  0.49160  0.94792  Biso   1.000  Cu
  O73      1.0000 0.56683  0.43317  0.62184  Biso   1.000  O
  C325     1.0000 0.50994  0.49006  0.51800  Biso   1.000  C
  C326     1.0000 0.54808  0.45192  0.58701  Biso   1.000  C
  C327     1.0000 0.58743  0.41257  0.58600  Biso   1.000  C
  C328     1.0000 0.60596  0.39404  0.62320  Biso   1.000  C
  H253     1.0000 0.61930  0.38070  0.60110  Biso   1.000  H
  O74      1.0000 0.23350  0.76650  0.95517  Biso   1.000  O
  C329     1.0000 0.17661  0.82339  0.85133  Biso   1.000  C
  C330     1.0000 0.21475  0.78525  0.92034  Biso   1.000  C
  C331     1.0000 0.25410  0.74590  0.91933  Biso   1.000  C
  C332     1.0000 0.27263  0.72737  0.95653  Biso   1.000  C
  H254     1.0000 0.28597  0.71403  0.93443  Biso   1.000  H
  O75      1.0000 0.90016  0.09984  0.28851  Biso   1.000  O
  C333     1.0000 0.84327  0.15673  0.18467  Biso   1.000  C
  C334     1.0000 0.88141  0.11859  0.25368  Biso   1.000  C
  C335     1.0000 0.92076  0.07924  0.25267  Biso   1.000  C
  C336     1.0000 0.93929  0.06071  0.28987  Biso   1.000  C
  H255     1.0000 0.95263  0.04737  0.26777  Biso   1.000  H
  O76      1.0000 0.56683  0.13366  0.62184  Biso   1.000  O
  C337     1.0000 0.50994  0.01988  0.51800  Biso   1.000  C
  C338     1.0000 0.54808  0.09616  0.58701  Biso   1.000  C
  C339     1.0000 0.58743  0.17486  0.58600  Biso   1.000  C
  C340     1.0000 0.60596  0.21192  0.62320  Biso   1.000  C
  H256     1.0000 0.61930  0.23860  0.60110  Biso   1.000  H
  O77      1.0000 0.23350  0.46699  0.95517  Biso   1.000  O
  C341     1.0000 0.17661  0.35321  0.85133  Biso   1.000  C
  C342     1.0000 0.21475  0.42949  0.92034  Biso   1.000  C
  C343     1.0000 0.25410  0.50819  0.91933  Biso   1.000  C
  C344     1.0000 0.27263  0.54525  0.95653  Biso   1.000  C
  H257     1.0000 0.28597  0.57193  0.93443  Biso   1.000  H
  O78      1.0000 0.90016  0.80033  0.28851  Biso   1.000  O
  C345     1.0000 0.84327  0.68655  0.18467  Biso   1.000  C
  C346     1.0000 0.88141  0.76283  0.25368  Biso   1.000  C
  C347     1.0000 0.92076  0.84153  0.25267  Biso   1.000  C
  C348     1.0000 0.93929  0.87859  0.28987  Biso   1.000  C
  H258     1.0000 0.95263  0.90527  0.26777  Biso   1.000  H
  O79      1.0000 0.86634  0.43317  0.62184  Biso   1.000  O
  C349     1.0000 0.98012  0.49006  0.51800  Biso   1.000  C
  C350     1.0000 0.90384  0.45192  0.58701  Biso   1.000  C
  C351     1.0000 0.82514  0.41257  0.58600  Biso   1.000  C
  C352     1.0000 0.78808  0.39404  0.62320  Biso   1.000  C
  H259     1.0000 0.76140  0.38070  0.60110  Biso   1.000  H
  O80      1.0000 0.53301  0.76650  0.95517  Biso   1.000  O
  C353     1.0000 0.64679  0.82339  0.85133  Biso   1.000  C
  C354     1.0000 0.57051  0.78525  0.92034  Biso   1.000  C
  C355     1.0000 0.49181  0.74590  0.91933  Biso   1.000  C
  C356     1.0000 0.45475  0.72737  0.95653  Biso   1.000  C
  H260     1.0000 0.42807  0.71403  0.93443  Biso   1.000  H
  O81      1.0000 0.19967  0.09984  0.28851  Biso   1.000  O
  C357     1.0000 0.31345  0.15673  0.18467  Biso   1.000  C
  C358     1.0000 0.23717  0.11859  0.25368  Biso   1.000  C
  C359     1.0000 0.15847  0.07924  0.25267  Biso   1.000  C
  C360     1.0000 0.12141  0.06071  0.28987  Biso   1.000  C
  H261     1.0000 0.09473  0.04737  0.26777  Biso   1.000  H
  O82      1.0000 0.43317  0.56683  0.37816  Biso   1.000  O
  C361     1.0000 0.49006  0.50994  0.48200  Biso   1.000  C
  C362     1.0000 0.45192  0.54808  0.41299  Biso   1.000  C
  C363     1.0000 0.41257  0.58743  0.41400  Biso   1.000  C
  C364     1.0000 0.39404  0.60596  0.37680  Biso   1.000  C
  H262     1.0000 0.38070  0.61930  0.39890  Biso   1.000  H
  O83      1.0000 0.09984  0.90016  0.71149  Biso   1.000  O
  C365     1.0000 0.15673  0.84327  0.81533  Biso   1.000  C
  C366     1.0000 0.11859  0.88141  0.74632  Biso   1.000  C
  C367     1.0000 0.07924  0.92076  0.74733  Biso   1.000  C
  C368     1.0000 0.06071  0.93929  0.71013  Biso   1.000  C
  H263     1.0000 0.04737  0.95263  0.73223  Biso   1.000  H
  O84      1.0000 0.76650  0.23350  0.04483  Biso   1.000  O
  C369     1.0000 0.82339  0.17661  0.14867  Biso   1.000  C
  C370     1.0000 0.78525  0.21475  0.07966  Biso   1.000  C
  C371     1.0000 0.74590  0.25410  0.08067  Biso   1.000  C
  C372     1.0000 0.72737  0.27263  0.04347  Biso   1.000  C
  H264     1.0000 0.71403  0.28597  0.06557  Biso   1.000  H
  O85      1.0000 0.13366  0.56683  0.37816  Biso   1.000  O
  C373     1.0000 0.01988  0.50994  0.48200  Biso   1.000  C
  C374     1.0000 0.09616  0.54808  0.41299  Biso   1.000  C
  C375     1.0000 0.17486  0.58743  0.41400  Biso   1.000  C
  C376     1.0000 0.21192  0.60596  0.37680  Biso   1.000  C
  H265     1.0000 0.23860  0.61930  0.39890  Biso   1.000  H
  O86      1.0000 0.80033  0.90016  0.71149  Biso   1.000  O
  C377     1.0000 0.68655  0.84327  0.81533  Biso   1.000  C
  C378     1.0000 0.76283  0.88141  0.74632  Biso   1.000  C
  C379     1.0000 0.84153  0.92076  0.74733  Biso   1.000  C
  C380     1.0000 0.87859  0.93929  0.71013  Biso   1.000  C
  H266     1.0000 0.90527  0.95263  0.73223  Biso   1.000  H
  O87      1.0000 0.46699  0.23350  0.04483  Biso   1.000  O
  C381     1.0000 0.35321  0.17661  0.14867  Biso   1.000  C
  C382     1.0000 0.42949  0.21475  0.07966  Biso   1.000  C
  C383     1.0000 0.50819  0.25410  0.08067  Biso   1.000  C
  C384     1.0000 0.54525  0.27263  0.04347  Biso   1.000  C
  H267     1.0000 0.57193  0.28597  0.06557  Biso   1.000  H
  O88      1.0000 0.43317  0.86634  0.37816  Biso   1.000  O
  C385     1.0000 0.49006  0.98012  0.48200  Biso   1.000  C
  C386     1.0000 0.45192  0.90384  0.41299  Biso   1.000  C
  C387     1.0000 0.41257  0.82514  0.41400  Biso   1.000  C
  C388     1.0000 0.39404  0.78808  0.37680  Biso   1.000  C
  H268     1.0000 0.38070  0.76140  0.39890  Biso   1.000  H
  O89      1.0000 0.09984  0.19967  0.71149  Biso   1.000  O
  C389     1.0000 0.15673  0.31345  0.81533  Biso   1.000  C
  C390     1.0000 0.11859  0.23717  0.74632  Biso   1.000  C
  C391     1.0000 0.07924  0.15847  0.74733  Biso   1.000  C
  C392     1.0000 0.06071  0.12141  0.71013  Biso   1.000  C
  H269     1.0000 0.04737  0.09473  0.73223  Biso   1.000  H
  O90      1.0000 0.76650  0.53301  0.04483  Biso   1.000  O
  C393     1.0000 0.82339  0.64679  0.14867  Biso   1.000  C
  C394     1.0000 0.78525  0.57051  0.07966  Biso   1.000  C
  C395     1.0000 0.74590  0.49181  0.08067  Biso   1.000  C
  C396     1.0000 0.72737  0.45475  0.04347  Biso   1.000  C
  H270     1.0000 0.71403  0.42807  0.06557  Biso   1.000  H
