data_image0
_cell_length_a       35.2795
_cell_length_b       35.2795
_cell_length_c       21.025
_cell_angle_alpha    90
_cell_angle_beta     90
_cell_angle_gamma    120

_symmetry_space_group_name_H-M    "P 1"
_symmetry_int_tables_number       1

loop_
  _symmetry_equiv_pos_as_xyz
  'x, y, z'

loop_
  _atom_site_label
  _atom_site_occupancy
  _atom_site_fract_x
  _atom_site_fract_y
  _atom_site_fract_z
  _atom_site_thermal_displace_type
  _atom_site_B_iso_or_equiv
  _atom_site_type_symbol
  O1       1.0000 0.52443  0.55376  0.42849  Biso   1.000  O
  O2       1.0000 0.51116  0.56688  0.52894  Biso   1.000  O
  C1       1.0000 0.52304  0.57781  0.47227  Biso   1.000  C
  C2       1.0000 0.53806  0.62479  0.45339  Biso   1.000  C
  C3       1.0000 0.53821  0.65383  0.49849  Biso   1.000  C
  H1       1.0000 0.52870  0.64430  0.54070  Biso   1.000  H
  C4       1.0000 0.55258  0.69717  0.48087  Biso   1.000  C
  H2       1.0000 0.55220  0.71690  0.51130  Biso   1.000  H
  C5       1.0000 0.56716  0.71161  0.42047  Biso   1.000  C
  C6       1.0000 0.56671  0.68224  0.37595  Biso   1.000  C
  H3       1.0000 0.57640  0.69180  0.33380  Biso   1.000  H
  C7       1.0000 0.55211  0.63894  0.39273  Biso   1.000  C
  H4       1.0000 0.55190  0.61910  0.36200  Biso   1.000  H
  C8       1.0000 0.58627  0.75868  0.40201  Biso   1.000  C
  C9       1.0000 0.62509  0.77895  0.36793  Biso   1.000  C
  H5       1.0000 0.63810  0.76200  0.35630  Biso   1.000  H
  H6       1.0000 0.48800  0.72130  0.38960  Biso   1.000  H
  H7       1.0000 0.45170  0.74850  0.48810  Biso   1.000  H
  O3       1.0000 0.19110  0.88709  0.76182  Biso   1.000  O
  O4       1.0000 0.17783  0.90021  0.86227  Biso   1.000  O
  C10      1.0000 0.18971  0.91114  0.80560  Biso   1.000  C
  C11      1.0000 0.20473  0.95812  0.78672  Biso   1.000  C
  C12      1.0000 0.20488  0.98716  0.83182  Biso   1.000  C
  H8       1.0000 0.19537  0.97763  0.87403  Biso   1.000  H
  C13      1.0000 0.21925  0.03050  0.81420  Biso   1.000  C
  H9       1.0000 0.21887  0.05023  0.84463  Biso   1.000  H
  C14      1.0000 0.23383  0.04494  0.75380  Biso   1.000  C
  C15      1.0000 0.23338  0.01557  0.70928  Biso   1.000  C
  H10      1.0000 0.24307  0.02513  0.66713  Biso   1.000  H
  C16      1.0000 0.21878  0.97227  0.72606  Biso   1.000  C
  H11      1.0000 0.21857  0.95243  0.69533  Biso   1.000  H
  C17      1.0000 0.25294  0.09201  0.73534  Biso   1.000  C
  C18      1.0000 0.29176  0.11228  0.70126  Biso   1.000  C
  H12      1.0000 0.30477  0.09533  0.68963  Biso   1.000  H
  H13      1.0000 0.15467  0.05463  0.72293  Biso   1.000  H
  H14      1.0000 0.11837  0.08183  0.82143  Biso   1.000  H
  O5       1.0000 0.85776  0.22043  0.09516  Biso   1.000  O
  O6       1.0000 0.84449  0.23355  0.19561  Biso   1.000  O
  C19      1.0000 0.85637  0.24448  0.13894  Biso   1.000  C
  C20      1.0000 0.87139  0.29146  0.12006  Biso   1.000  C
  C21      1.0000 0.87154  0.32050  0.16516  Biso   1.000  C
  H15      1.0000 0.86203  0.31097  0.20737  Biso   1.000  H
  C22      1.0000 0.88591  0.36384  0.14754  Biso   1.000  C
  H16      1.0000 0.88553  0.38357  0.17797  Biso   1.000  H
  C23      1.0000 0.90049  0.37828  0.08714  Biso   1.000  C
  C24      1.0000 0.90004  0.34891  0.04262  Biso   1.000  C
  H17      1.0000 0.90973  0.35847  0.00047  Biso   1.000  H
  C25      1.0000 0.88544  0.30561  0.05940  Biso   1.000  C
  H18      1.0000 0.88523  0.28577  0.02867  Biso   1.000  H
  C26      1.0000 0.91960  0.42535  0.06868  Biso   1.000  C
  C27      1.0000 0.95842  0.44562  0.03460  Biso   1.000  C
  H19      1.0000 0.97143  0.42867  0.02297  Biso   1.000  H
  H20      1.0000 0.82133  0.38797  0.05627  Biso   1.000  H
  H21      1.0000 0.78503  0.41517  0.15477  Biso   1.000  H
  O7       1.0000 0.44624  0.97067  0.42849  Biso   1.000  O
  O8       1.0000 0.43312  0.94428  0.52894  Biso   1.000  O
  C28      1.0000 0.42219  0.94523  0.47227  Biso   1.000  C
  C29      1.0000 0.37521  0.91327  0.45339  Biso   1.000  C
  C30      1.0000 0.34617  0.88438  0.49849  Biso   1.000  C
  H22      1.0000 0.35570  0.88440  0.54070  Biso   1.000  H
  C31      1.0000 0.30283  0.85541  0.48087  Biso   1.000  C
  H23      1.0000 0.28310  0.83530  0.51130  Biso   1.000  H
  C32      1.0000 0.28839  0.85555  0.42047  Biso   1.000  C
  C33      1.0000 0.31776  0.88447  0.37595  Biso   1.000  C
  H24      1.0000 0.30820  0.88460  0.33380  Biso   1.000  H
  C34      1.0000 0.36106  0.91317  0.39273  Biso   1.000  C
  H25      1.0000 0.38090  0.93280  0.36200  Biso   1.000  H
  C35      1.0000 0.24132  0.82759  0.40201  Biso   1.000  C
  C36      1.0000 0.22105  0.84614  0.36793  Biso   1.000  C
  H26      1.0000 0.23800  0.87610  0.35630  Biso   1.000  H
  H27      1.0000 0.27870  0.76670  0.38960  Biso   1.000  H
  H28      1.0000 0.25150  0.70320  0.48810  Biso   1.000  H
  O9       1.0000 0.11291  0.30400  0.76182  Biso   1.000  O
  O10      1.0000 0.09979  0.27761  0.86227  Biso   1.000  O
  C37      1.0000 0.08886  0.27856  0.80560  Biso   1.000  C
  C38      1.0000 0.04188  0.24660  0.78672  Biso   1.000  C
  C39      1.0000 0.01284  0.21771  0.83182  Biso   1.000  C
  H29      1.0000 0.02237  0.21773  0.87403  Biso   1.000  H
  C40      1.0000 0.96950  0.18874  0.81420  Biso   1.000  C
  H30      1.0000 0.94977  0.16863  0.84463  Biso   1.000  H
  C41      1.0000 0.95506  0.18888  0.75380  Biso   1.000  C
  C42      1.0000 0.98443  0.21780  0.70928  Biso   1.000  C
  H31      1.0000 0.97487  0.21793  0.66713  Biso   1.000  H
  C43      1.0000 0.02773  0.24650  0.72606  Biso   1.000  C
  H32      1.0000 0.04757  0.26613  0.69533  Biso   1.000  H
  C44      1.0000 0.90799  0.16092  0.73534  Biso   1.000  C
  C45      1.0000 0.88772  0.17947  0.70126  Biso   1.000  C
  H33      1.0000 0.90467  0.20943  0.68963  Biso   1.000  H
  H34      1.0000 0.94537  0.10003  0.72293  Biso   1.000  H
  H35      1.0000 0.91817  0.03653  0.82143  Biso   1.000  H
  O11      1.0000 0.77957  0.63734  0.09516  Biso   1.000  O
  O12      1.0000 0.76645  0.61095  0.19561  Biso   1.000  O
  C46      1.0000 0.75552  0.61190  0.13894  Biso   1.000  C
  C47      1.0000 0.70854  0.57994  0.12006  Biso   1.000  C
  C48      1.0000 0.67950  0.55105  0.16516  Biso   1.000  C
  H36      1.0000 0.68903  0.55107  0.20737  Biso   1.000  H
  C49      1.0000 0.63616  0.52208  0.14754  Biso   1.000  C
  H37      1.0000 0.61643  0.50197  0.17797  Biso   1.000  H
  C50      1.0000 0.62172  0.52222  0.08714  Biso   1.000  C
  C51      1.0000 0.65109  0.55114  0.04262  Biso   1.000  C
  H38      1.0000 0.64153  0.55127  0.00047  Biso   1.000  H
  C52      1.0000 0.69439  0.57984  0.05940  Biso   1.000  C
  H39      1.0000 0.71423  0.59947  0.02867  Biso   1.000  H
  C53      1.0000 0.57465  0.49426  0.06868  Biso   1.000  C
  C54      1.0000 0.55438  0.51281  0.03460  Biso   1.000  C
  H40      1.0000 0.57133  0.54277  0.02297  Biso   1.000  H
  H41      1.0000 0.61203  0.43337  0.05627  Biso   1.000  H
  H42      1.0000 0.58483  0.36987  0.15477  Biso   1.000  H
  O13      1.0000 0.02933  0.47557  0.42849  Biso   1.000  O
  O14      1.0000 0.05572  0.48884  0.52894  Biso   1.000  O
  C55      1.0000 0.05477  0.47696  0.47227  Biso   1.000  C
  C56      1.0000 0.08673  0.46194  0.45339  Biso   1.000  C
  C57      1.0000 0.11562  0.46179  0.49849  Biso   1.000  C
  H43      1.0000 0.11560  0.47130  0.54070  Biso   1.000  H
  C58      1.0000 0.14459  0.44742  0.48087  Biso   1.000  C
  H44      1.0000 0.16470  0.44780  0.51130  Biso   1.000  H
  C59      1.0000 0.14445  0.43284  0.42047  Biso   1.000  C
  C60      1.0000 0.11553  0.43329  0.37595  Biso   1.000  C
  H45      1.0000 0.11540  0.42360  0.33380  Biso   1.000  H
  C61      1.0000 0.08683  0.44789  0.39273  Biso   1.000  C
  H46      1.0000 0.06720  0.44810  0.36200  Biso   1.000  H
  C62      1.0000 0.17241  0.41373  0.40201  Biso   1.000  C
  C63      1.0000 0.15386  0.37491  0.36793  Biso   1.000  C
  H47      1.0000 0.12390  0.36190  0.35630  Biso   1.000  H
  H48      1.0000 0.23330  0.51200  0.38960  Biso   1.000  H
  H49      1.0000 0.29680  0.54830  0.48810  Biso   1.000  H
  O15      1.0000 0.69600  0.80890  0.76182  Biso   1.000  O
  O16      1.0000 0.72239  0.82217  0.86227  Biso   1.000  O
  C64      1.0000 0.72144  0.81029  0.80560  Biso   1.000  C
  C65      1.0000 0.75340  0.79527  0.78672  Biso   1.000  C
  C66      1.0000 0.78229  0.79512  0.83182  Biso   1.000  C
  H50      1.0000 0.78227  0.80463  0.87403  Biso   1.000  H
  C67      1.0000 0.81126  0.78075  0.81420  Biso   1.000  C
  H51      1.0000 0.83137  0.78113  0.84463  Biso   1.000  H
  C68      1.0000 0.81112  0.76617  0.75380  Biso   1.000  C
  C69      1.0000 0.78220  0.76662  0.70928  Biso   1.000  C
  H52      1.0000 0.78207  0.75693  0.66713  Biso   1.000  H
  C70      1.0000 0.75350  0.78122  0.72606  Biso   1.000  C
  H53      1.0000 0.73387  0.78143  0.69533  Biso   1.000  H
  C71      1.0000 0.83908  0.74706  0.73534  Biso   1.000  C
  C72      1.0000 0.82053  0.70824  0.70126  Biso   1.000  C
  H54      1.0000 0.79057  0.69523  0.68963  Biso   1.000  H
  H55      1.0000 0.89997  0.84533  0.72293  Biso   1.000  H
  H56      1.0000 0.96347  0.88163  0.82143  Biso   1.000  H
  O17      1.0000 0.36266  0.14224  0.09516  Biso   1.000  O
  O18      1.0000 0.38905  0.15551  0.19561  Biso   1.000  O
  C73      1.0000 0.38810  0.14363  0.13894  Biso   1.000  C
  C74      1.0000 0.42006  0.12861  0.12006  Biso   1.000  C
  C75      1.0000 0.44895  0.12846  0.16516  Biso   1.000  C
  H57      1.0000 0.44893  0.13797  0.20737  Biso   1.000  H
  C76      1.0000 0.47792  0.11409  0.14754  Biso   1.000  C
  H58      1.0000 0.49803  0.11447  0.17797  Biso   1.000  H
  C77      1.0000 0.47778  0.09951  0.08714  Biso   1.000  C
  C78      1.0000 0.44886  0.09996  0.04262  Biso   1.000  C
  H59      1.0000 0.44873  0.09027  0.00047  Biso   1.000  H
  C79      1.0000 0.42016  0.11456  0.05940  Biso   1.000  C
  H60      1.0000 0.40053  0.11477  0.02867  Biso   1.000  H
  C80      1.0000 0.50574  0.08040  0.06868  Biso   1.000  C
  C81      1.0000 0.48719  0.04158  0.03460  Biso   1.000  C
  H61      1.0000 0.45723  0.02857  0.02297  Biso   1.000  H
  H62      1.0000 0.56663  0.17867  0.05627  Biso   1.000  H
  H63      1.0000 0.63013  0.21497  0.15477  Biso   1.000  H
  O19      1.0000 0.55376  0.52443  0.57151  Biso   1.000  O
  O20      1.0000 0.56688  0.51116  0.47106  Biso   1.000  O
  C82      1.0000 0.57781  0.52304  0.52773  Biso   1.000  C
  C83      1.0000 0.62479  0.53806  0.54661  Biso   1.000  C
  C84      1.0000 0.65383  0.53821  0.50151  Biso   1.000  C
  H64      1.0000 0.64430  0.52870  0.45930  Biso   1.000  H
  C85      1.0000 0.69717  0.55258  0.51913  Biso   1.000  C
  H65      1.0000 0.71690  0.55220  0.48870  Biso   1.000  H
  C86      1.0000 0.71161  0.56716  0.57953  Biso   1.000  C
  C87      1.0000 0.68224  0.56671  0.62405  Biso   1.000  C
  H66      1.0000 0.69180  0.57640  0.66620  Biso   1.000  H
  C88      1.0000 0.63894  0.55211  0.60727  Biso   1.000  C
  H67      1.0000 0.61910  0.55190  0.63800  Biso   1.000  H
  C89      1.0000 0.75868  0.58627  0.59799  Biso   1.000  C
  C90      1.0000 0.77895  0.62509  0.63207  Biso   1.000  C
  H68      1.0000 0.76200  0.63810  0.64370  Biso   1.000  H
  H69      1.0000 0.72130  0.48800  0.61040  Biso   1.000  H
  H70      1.0000 0.74850  0.45170  0.51190  Biso   1.000  H
  O21      1.0000 0.22043  0.85776  0.90484  Biso   1.000  O
  O22      1.0000 0.23355  0.84449  0.80439  Biso   1.000  O
  C91      1.0000 0.24448  0.85637  0.86106  Biso   1.000  C
  C92      1.0000 0.29146  0.87139  0.87994  Biso   1.000  C
  C93      1.0000 0.32050  0.87154  0.83484  Biso   1.000  C
  H71      1.0000 0.31097  0.86203  0.79263  Biso   1.000  H
  C94      1.0000 0.36384  0.88591  0.85246  Biso   1.000  C
  H72      1.0000 0.38357  0.88553  0.82203  Biso   1.000  H
  C95      1.0000 0.37828  0.90049  0.91286  Biso   1.000  C
  C96      1.0000 0.34891  0.90004  0.95738  Biso   1.000  C
  H73      1.0000 0.35847  0.90973  0.99953  Biso   1.000  H
  C97      1.0000 0.30561  0.88544  0.94060  Biso   1.000  C
  H74      1.0000 0.28577  0.88523  0.97133  Biso   1.000  H
  C98      1.0000 0.42535  0.91960  0.93132  Biso   1.000  C
  C99      1.0000 0.44562  0.95842  0.96540  Biso   1.000  C
  H75      1.0000 0.42867  0.97143  0.97703  Biso   1.000  H
  H76      1.0000 0.38797  0.82133  0.94373  Biso   1.000  H
  H77      1.0000 0.41517  0.78503  0.84523  Biso   1.000  H
  O23      1.0000 0.88709  0.19110  0.23818  Biso   1.000  O
  O24      1.0000 0.90021  0.17783  0.13773  Biso   1.000  O
  C100     1.0000 0.91114  0.18971  0.19440  Biso   1.000  C
  C101     1.0000 0.95812  0.20473  0.21328  Biso   1.000  C
  C102     1.0000 0.98716  0.20488  0.16818  Biso   1.000  C
  H78      1.0000 0.97763  0.19537  0.12597  Biso   1.000  H
  C103     1.0000 0.03050  0.21925  0.18580  Biso   1.000  C
  H79      1.0000 0.05023  0.21887  0.15537  Biso   1.000  H
  C104     1.0000 0.04494  0.23383  0.24620  Biso   1.000  C
  C105     1.0000 0.01557  0.23338  0.29072  Biso   1.000  C
  H80      1.0000 0.02513  0.24307  0.33287  Biso   1.000  H
  C106     1.0000 0.97227  0.21878  0.27394  Biso   1.000  C
  H81      1.0000 0.95243  0.21857  0.30467  Biso   1.000  H
  C107     1.0000 0.09201  0.25294  0.26466  Biso   1.000  C
  C108     1.0000 0.11228  0.29176  0.29874  Biso   1.000  C
  H82      1.0000 0.09533  0.30477  0.31037  Biso   1.000  H
  H83      1.0000 0.05463  0.15467  0.27707  Biso   1.000  H
  H84      1.0000 0.08183  0.11837  0.17857  Biso   1.000  H
  O25      1.0000 0.97067  0.44624  0.57151  Biso   1.000  O
  O26      1.0000 0.94428  0.43312  0.47106  Biso   1.000  O
  C109     1.0000 0.94523  0.42219  0.52773  Biso   1.000  C
  C110     1.0000 0.91327  0.37521  0.54661  Biso   1.000  C
  C111     1.0000 0.88438  0.34617  0.50151  Biso   1.000  C
  H85      1.0000 0.88440  0.35570  0.45930  Biso   1.000  H
  C112     1.0000 0.85541  0.30283  0.51913  Biso   1.000  C
  H86      1.0000 0.83530  0.28310  0.48870  Biso   1.000  H
  C113     1.0000 0.85555  0.28839  0.57953  Biso   1.000  C
  C114     1.0000 0.88447  0.31776  0.62405  Biso   1.000  C
  H87      1.0000 0.88460  0.30820  0.66620  Biso   1.000  H
  C115     1.0000 0.91317  0.36106  0.60727  Biso   1.000  C
  H88      1.0000 0.93280  0.38090  0.63800  Biso   1.000  H
  C116     1.0000 0.82759  0.24132  0.59799  Biso   1.000  C
  C117     1.0000 0.84614  0.22105  0.63207  Biso   1.000  C
  H89      1.0000 0.87610  0.23800  0.64370  Biso   1.000  H
  H90      1.0000 0.76670  0.27870  0.61040  Biso   1.000  H
  H91      1.0000 0.70320  0.25150  0.51190  Biso   1.000  H
  O27      1.0000 0.63734  0.77957  0.90484  Biso   1.000  O
  O28      1.0000 0.61095  0.76645  0.80439  Biso   1.000  O
  C118     1.0000 0.61190  0.75552  0.86106  Biso   1.000  C
  C119     1.0000 0.57994  0.70854  0.87994  Biso   1.000  C
  C120     1.0000 0.55105  0.67950  0.83484  Biso   1.000  C
  H92      1.0000 0.55107  0.68903  0.79263  Biso   1.000  H
  C121     1.0000 0.52208  0.63616  0.85246  Biso   1.000  C
  H93      1.0000 0.50197  0.61643  0.82203  Biso   1.000  H
  C122     1.0000 0.52222  0.62172  0.91286  Biso   1.000  C
  C123     1.0000 0.55114  0.65109  0.95738  Biso   1.000  C
  H94      1.0000 0.55127  0.64153  0.99953  Biso   1.000  H
  C124     1.0000 0.57984  0.69439  0.94060  Biso   1.000  C
  H95      1.0000 0.59947  0.71423  0.97133  Biso   1.000  H
  C125     1.0000 0.49426  0.57465  0.93132  Biso   1.000  C
  C126     1.0000 0.51281  0.55438  0.96540  Biso   1.000  C
  H96      1.0000 0.54277  0.57133  0.97703  Biso   1.000  H
  H97      1.0000 0.43337  0.61203  0.94373  Biso   1.000  H
  H98      1.0000 0.36987  0.58483  0.84523  Biso   1.000  H
  O29      1.0000 0.30400  0.11291  0.23818  Biso   1.000  O
  O30      1.0000 0.27761  0.09979  0.13773  Biso   1.000  O
  C127     1.0000 0.27856  0.08886  0.19440  Biso   1.000  C
  C128     1.0000 0.24660  0.04188  0.21328  Biso   1.000  C
  C129     1.0000 0.21771  0.01284  0.16818  Biso   1.000  C
  H99      1.0000 0.21773  0.02237  0.12597  Biso   1.000  H
  C130     1.0000 0.18874  0.96950  0.18580  Biso   1.000  C
  H100     1.0000 0.16863  0.94977  0.15537  Biso   1.000  H
  C131     1.0000 0.18888  0.95506  0.24620  Biso   1.000  C
  C132     1.0000 0.21780  0.98443  0.29072  Biso   1.000  C
  H101     1.0000 0.21793  0.97487  0.33287  Biso   1.000  H
  C133     1.0000 0.24650  0.02773  0.27394  Biso   1.000  C
  H102     1.0000 0.26613  0.04757  0.30467  Biso   1.000  H
  C134     1.0000 0.16092  0.90799  0.26466  Biso   1.000  C
  C135     1.0000 0.17947  0.88772  0.29874  Biso   1.000  C
  H103     1.0000 0.20943  0.90467  0.31037  Biso   1.000  H
  H104     1.0000 0.10003  0.94537  0.27707  Biso   1.000  H
  H105     1.0000 0.03653  0.91817  0.17857  Biso   1.000  H
  O31      1.0000 0.47557  0.02933  0.57151  Biso   1.000  O
  O32      1.0000 0.48884  0.05572  0.47106  Biso   1.000  O
  C136     1.0000 0.47696  0.05477  0.52773  Biso   1.000  C
  C137     1.0000 0.46194  0.08673  0.54661  Biso   1.000  C
  C138     1.0000 0.46179  0.11562  0.50151  Biso   1.000  C
  H106     1.0000 0.47130  0.11560  0.45930  Biso   1.000  H
  C139     1.0000 0.44742  0.14459  0.51913  Biso   1.000  C
  H107     1.0000 0.44780  0.16470  0.48870  Biso   1.000  H
  C140     1.0000 0.43284  0.14445  0.57953  Biso   1.000  C
  C141     1.0000 0.43329  0.11553  0.62405  Biso   1.000  C
  H108     1.0000 0.42360  0.11540  0.66620  Biso   1.000  H
  C142     1.0000 0.44789  0.08683  0.60727  Biso   1.000  C
  H109     1.0000 0.44810  0.06720  0.63800  Biso   1.000  H
  C143     1.0000 0.41373  0.17241  0.59799  Biso   1.000  C
  C144     1.0000 0.37491  0.15386  0.63207  Biso   1.000  C
  H110     1.0000 0.36190  0.12390  0.64370  Biso   1.000  H
  H111     1.0000 0.51200  0.23330  0.61040  Biso   1.000  H
  H112     1.0000 0.54830  0.29680  0.51190  Biso   1.000  H
  O33      1.0000 0.14224  0.36266  0.90484  Biso   1.000  O
  O34      1.0000 0.15551  0.38905  0.80439  Biso   1.000  O
  C145     1.0000 0.14363  0.38810  0.86106  Biso   1.000  C
  C146     1.0000 0.12861  0.42006  0.87994  Biso   1.000  C
  C147     1.0000 0.12846  0.44895  0.83484  Biso   1.000  C
  H113     1.0000 0.13797  0.44893  0.79263  Biso   1.000  H
  C148     1.0000 0.11409  0.47792  0.85246  Biso   1.000  C
  H114     1.0000 0.11447  0.49803  0.82203  Biso   1.000  H
  C149     1.0000 0.09951  0.47778  0.91286  Biso   1.000  C
  C150     1.0000 0.09996  0.44886  0.95738  Biso   1.000  C
  H115     1.0000 0.09027  0.44873  0.99953  Biso   1.000  H
  C151     1.0000 0.11456  0.42016  0.94060  Biso   1.000  C
  H116     1.0000 0.11477  0.40053  0.97133  Biso   1.000  H
  C152     1.0000 0.08040  0.50574  0.93132  Biso   1.000  C
  C153     1.0000 0.04158  0.48719  0.96540  Biso   1.000  C
  H117     1.0000 0.02857  0.45723  0.97703  Biso   1.000  H
  H118     1.0000 0.17867  0.56663  0.94373  Biso   1.000  H
  H119     1.0000 0.21497  0.63013  0.84523  Biso   1.000  H
  O35      1.0000 0.80890  0.69600  0.23818  Biso   1.000  O
  O36      1.0000 0.82217  0.72239  0.13773  Biso   1.000  O
  C154     1.0000 0.81029  0.72144  0.19440  Biso   1.000  C
  C155     1.0000 0.79527  0.75340  0.21328  Biso   1.000  C
  C156     1.0000 0.79512  0.78229  0.16818  Biso   1.000  C
  H120     1.0000 0.80463  0.78227  0.12597  Biso   1.000  H
  C157     1.0000 0.78075  0.81126  0.18580  Biso   1.000  C
  H121     1.0000 0.78113  0.83137  0.15537  Biso   1.000  H
  C158     1.0000 0.76617  0.81112  0.24620  Biso   1.000  C
  C159     1.0000 0.76662  0.78220  0.29072  Biso   1.000  C
  H122     1.0000 0.75693  0.78207  0.33287  Biso   1.000  H
  C160     1.0000 0.78122  0.75350  0.27394  Biso   1.000  C
  H123     1.0000 0.78143  0.73387  0.30467  Biso   1.000  H
  C161     1.0000 0.74706  0.83908  0.26466  Biso   1.000  C
  C162     1.0000 0.70824  0.82053  0.29874  Biso   1.000  C
  H124     1.0000 0.69523  0.79057  0.31037  Biso   1.000  H
  H125     1.0000 0.84533  0.89997  0.27707  Biso   1.000  H
  H126     1.0000 0.88163  0.96347  0.17857  Biso   1.000  H
  O37      1.0000 0.47557  0.44624  0.57151  Biso   1.000  O
  O38      1.0000 0.48884  0.43312  0.47106  Biso   1.000  O
  C163     1.0000 0.47696  0.42219  0.52773  Biso   1.000  C
  C164     1.0000 0.46194  0.37521  0.54661  Biso   1.000  C
  C165     1.0000 0.46179  0.34617  0.50151  Biso   1.000  C
  H127     1.0000 0.47130  0.35570  0.45930  Biso   1.000  H
  C166     1.0000 0.44742  0.30283  0.51913  Biso   1.000  C
  H128     1.0000 0.44780  0.28310  0.48870  Biso   1.000  H
  C167     1.0000 0.43284  0.28839  0.57953  Biso   1.000  C
  C168     1.0000 0.43329  0.31776  0.62405  Biso   1.000  C
  H129     1.0000 0.42360  0.30820  0.66620  Biso   1.000  H
  C169     1.0000 0.44789  0.36106  0.60727  Biso   1.000  C
  H130     1.0000 0.44810  0.38090  0.63800  Biso   1.000  H
  C170     1.0000 0.41373  0.24132  0.59799  Biso   1.000  C
  C171     1.0000 0.37491  0.22105  0.63207  Biso   1.000  C
  H131     1.0000 0.36190  0.23800  0.64370  Biso   1.000  H
  H132     1.0000 0.51200  0.27870  0.61040  Biso   1.000  H
  H133     1.0000 0.54830  0.25150  0.51190  Biso   1.000  H
  O39      1.0000 0.14224  0.77957  0.90484  Biso   1.000  O
  O40      1.0000 0.15551  0.76645  0.80439  Biso   1.000  O
  C172     1.0000 0.14363  0.75552  0.86106  Biso   1.000  C
  C173     1.0000 0.12861  0.70854  0.87994  Biso   1.000  C
  C174     1.0000 0.12846  0.67950  0.83484  Biso   1.000  C
  H134     1.0000 0.13797  0.68903  0.79263  Biso   1.000  H
  C175     1.0000 0.11409  0.63616  0.85246  Biso   1.000  C
  H135     1.0000 0.11447  0.61643  0.82203  Biso   1.000  H
  C176     1.0000 0.09951  0.62172  0.91286  Biso   1.000  C
  C177     1.0000 0.09996  0.65109  0.95738  Biso   1.000  C
  H136     1.0000 0.09027  0.64153  0.99953  Biso   1.000  H
  C178     1.0000 0.11456  0.69439  0.94060  Biso   1.000  C
  H137     1.0000 0.11477  0.71423  0.97133  Biso   1.000  H
  C179     1.0000 0.08040  0.57465  0.93132  Biso   1.000  C
  C180     1.0000 0.04158  0.55438  0.96540  Biso   1.000  C
  H138     1.0000 0.02857  0.57133  0.97703  Biso   1.000  H
  H139     1.0000 0.17867  0.61203  0.94373  Biso   1.000  H
  H140     1.0000 0.21497  0.58483  0.84523  Biso   1.000  H
  O41      1.0000 0.80890  0.11291  0.23818  Biso   1.000  O
  O42      1.0000 0.82217  0.09979  0.13773  Biso   1.000  O
  C181     1.0000 0.81029  0.08886  0.19440  Biso   1.000  C
  C182     1.0000 0.79527  0.04188  0.21328  Biso   1.000  C
  C183     1.0000 0.79512  0.01284  0.16818  Biso   1.000  C
  H141     1.0000 0.80463  0.02237  0.12597  Biso   1.000  H
  C184     1.0000 0.78075  0.96950  0.18580  Biso   1.000  C
  H142     1.0000 0.78113  0.94977  0.15537  Biso   1.000  H
  C185     1.0000 0.76617  0.95506  0.24620  Biso   1.000  C
  C186     1.0000 0.76662  0.98443  0.29072  Biso   1.000  C
  H143     1.0000 0.75693  0.97487  0.33287  Biso   1.000  H
  C187     1.0000 0.78122  0.02773  0.27394  Biso   1.000  C
  H144     1.0000 0.78143  0.04757  0.30467  Biso   1.000  H
  C188     1.0000 0.74706  0.90799  0.26466  Biso   1.000  C
  C189     1.0000 0.70824  0.88772  0.29874  Biso   1.000  C
  H145     1.0000 0.69523  0.90467  0.31037  Biso   1.000  H
  H146     1.0000 0.84533  0.94537  0.27707  Biso   1.000  H
  H147     1.0000 0.88163  0.91817  0.17857  Biso   1.000  H
  O43      1.0000 0.55376  0.02933  0.57151  Biso   1.000  O
  O44      1.0000 0.56688  0.05572  0.47106  Biso   1.000  O
  C190     1.0000 0.57781  0.05477  0.52773  Biso   1.000  C
  C191     1.0000 0.62479  0.08673  0.54661  Biso   1.000  C
  C192     1.0000 0.65383  0.11562  0.50151  Biso   1.000  C
  H148     1.0000 0.64430  0.11560  0.45930  Biso   1.000  H
  C193     1.0000 0.69717  0.14459  0.51913  Biso   1.000  C
  H149     1.0000 0.71690  0.16470  0.48870  Biso   1.000  H
  C194     1.0000 0.71161  0.14445  0.57953  Biso   1.000  C
  C195     1.0000 0.68224  0.11553  0.62405  Biso   1.000  C
  H150     1.0000 0.69180  0.11540  0.66620  Biso   1.000  H
  C196     1.0000 0.63894  0.08683  0.60727  Biso   1.000  C
  H151     1.0000 0.61910  0.06720  0.63800  Biso   1.000  H
  C197     1.0000 0.75868  0.17241  0.59799  Biso   1.000  C
  C198     1.0000 0.77895  0.15386  0.63207  Biso   1.000  C
  H152     1.0000 0.76200  0.12390  0.64370  Biso   1.000  H
  H153     1.0000 0.72130  0.23330  0.61040  Biso   1.000  H
  H154     1.0000 0.74850  0.29680  0.51190  Biso   1.000  H
  O45      1.0000 0.22043  0.36266  0.90484  Biso   1.000  O
  O46      1.0000 0.23355  0.38905  0.80439  Biso   1.000  O
  C199     1.0000 0.24448  0.38810  0.86106  Biso   1.000  C
  C200     1.0000 0.29146  0.42006  0.87994  Biso   1.000  C
  C201     1.0000 0.32050  0.44895  0.83484  Biso   1.000  C
  H155     1.0000 0.31097  0.44893  0.79263  Biso   1.000  H
  C202     1.0000 0.36384  0.47792  0.85246  Biso   1.000  C
  H156     1.0000 0.38357  0.49803  0.82203  Biso   1.000  H
  C203     1.0000 0.37828  0.47778  0.91286  Biso   1.000  C
  C204     1.0000 0.34891  0.44886  0.95738  Biso   1.000  C
  H157     1.0000 0.35847  0.44873  0.99953  Biso   1.000  H
  C205     1.0000 0.30561  0.42016  0.94060  Biso   1.000  C
  H158     1.0000 0.28577  0.40053  0.97133  Biso   1.000  H
  C206     1.0000 0.42535  0.50574  0.93132  Biso   1.000  C
  C207     1.0000 0.44562  0.48719  0.96540  Biso   1.000  C
  H159     1.0000 0.42867  0.45723  0.97703  Biso   1.000  H
  H160     1.0000 0.38797  0.56663  0.94373  Biso   1.000  H
  H161     1.0000 0.41517  0.63013  0.84523  Biso   1.000  H
  O47      1.0000 0.88709  0.69600  0.23818  Biso   1.000  O
  O48      1.0000 0.90021  0.72239  0.13773  Biso   1.000  O
  C208     1.0000 0.91114  0.72144  0.19440  Biso   1.000  C
  C209     1.0000 0.95812  0.75340  0.21328  Biso   1.000  C
  C210     1.0000 0.98716  0.78229  0.16818  Biso   1.000  C
  H162     1.0000 0.97763  0.78227  0.12597  Biso   1.000  H
  C211     1.0000 0.03050  0.81126  0.18580  Biso   1.000  C
  H163     1.0000 0.05023  0.83137  0.15537  Biso   1.000  H
  C212     1.0000 0.04494  0.81112  0.24620  Biso   1.000  C
  C213     1.0000 0.01557  0.78220  0.29072  Biso   1.000  C
  H164     1.0000 0.02513  0.78207  0.33287  Biso   1.000  H
  C214     1.0000 0.97227  0.75350  0.27394  Biso   1.000  C
  H165     1.0000 0.95243  0.73387  0.30467  Biso   1.000  H
  C215     1.0000 0.09201  0.83908  0.26466  Biso   1.000  C
  C216     1.0000 0.11228  0.82053  0.29874  Biso   1.000  C
  H166     1.0000 0.09533  0.79057  0.31037  Biso   1.000  H
  H167     1.0000 0.05463  0.89997  0.27707  Biso   1.000  H
  H168     1.0000 0.08183  0.96347  0.17857  Biso   1.000  H
  O49      1.0000 0.97067  0.52443  0.57151  Biso   1.000  O
  O50      1.0000 0.94428  0.51116  0.47106  Biso   1.000  O
  C217     1.0000 0.94523  0.52304  0.52773  Biso   1.000  C
  C218     1.0000 0.91327  0.53806  0.54661  Biso   1.000  C
  C219     1.0000 0.88438  0.53821  0.50151  Biso   1.000  C
  H169     1.0000 0.88440  0.52870  0.45930  Biso   1.000  H
  C220     1.0000 0.85541  0.55258  0.51913  Biso   1.000  C
  H170     1.0000 0.83530  0.55220  0.48870  Biso   1.000  H
  C221     1.0000 0.85555  0.56716  0.57953  Biso   1.000  C
  C222     1.0000 0.88447  0.56671  0.62405  Biso   1.000  C
  H171     1.0000 0.88460  0.57640  0.66620  Biso   1.000  H
  C223     1.0000 0.91317  0.55211  0.60727  Biso   1.000  C
  H172     1.0000 0.93280  0.55190  0.63800  Biso   1.000  H
  C224     1.0000 0.82759  0.58627  0.59799  Biso   1.000  C
  C225     1.0000 0.84614  0.62509  0.63207  Biso   1.000  C
  H173     1.0000 0.87610  0.63810  0.64370  Biso   1.000  H
  H174     1.0000 0.76670  0.48800  0.61040  Biso   1.000  H
  H175     1.0000 0.70320  0.45170  0.51190  Biso   1.000  H
  O51      1.0000 0.63734  0.85776  0.90484  Biso   1.000  O
  O52      1.0000 0.61095  0.84449  0.80439  Biso   1.000  O
  C226     1.0000 0.61190  0.85637  0.86106  Biso   1.000  C
  C227     1.0000 0.57994  0.87139  0.87994  Biso   1.000  C
  C228     1.0000 0.55105  0.87154  0.83484  Biso   1.000  C
  H176     1.0000 0.55107  0.86203  0.79263  Biso   1.000  H
  C229     1.0000 0.52208  0.88591  0.85246  Biso   1.000  C
  H177     1.0000 0.50197  0.88553  0.82203  Biso   1.000  H
  C230     1.0000 0.52222  0.90049  0.91286  Biso   1.000  C
  C231     1.0000 0.55114  0.90004  0.95738  Biso   1.000  C
  H178     1.0000 0.55127  0.90973  0.99953  Biso   1.000  H
  C232     1.0000 0.57984  0.88544  0.94060  Biso   1.000  C
  H179     1.0000 0.59947  0.88523  0.97133  Biso   1.000  H
  C233     1.0000 0.49426  0.91960  0.93132  Biso   1.000  C
  C234     1.0000 0.51281  0.95842  0.96540  Biso   1.000  C
  H180     1.0000 0.54277  0.97143  0.97703  Biso   1.000  H
  H181     1.0000 0.43337  0.82133  0.94373  Biso   1.000  H
  H182     1.0000 0.36987  0.78503  0.84523  Biso   1.000  H
  O53      1.0000 0.30400  0.19110  0.23818  Biso   1.000  O
  O54      1.0000 0.27761  0.17783  0.13773  Biso   1.000  O
  C235     1.0000 0.27856  0.18971  0.19440  Biso   1.000  C
  C236     1.0000 0.24660  0.20473  0.21328  Biso   1.000  C
  C237     1.0000 0.21771  0.20488  0.16818  Biso   1.000  C
  H183     1.0000 0.21773  0.19537  0.12597  Biso   1.000  H
  C238     1.0000 0.18874  0.21925  0.18580  Biso   1.000  C
  H184     1.0000 0.16863  0.21887  0.15537  Biso   1.000  H
  C239     1.0000 0.18888  0.23383  0.24620  Biso   1.000  C
  C240     1.0000 0.21780  0.23338  0.29072  Biso   1.000  C
  H185     1.0000 0.21793  0.24307  0.33287  Biso   1.000  H
  C241     1.0000 0.24650  0.21878  0.27394  Biso   1.000  C
  H186     1.0000 0.26613  0.21857  0.30467  Biso   1.000  H
  C242     1.0000 0.16092  0.25294  0.26466  Biso   1.000  C
  C243     1.0000 0.17947  0.29176  0.29874  Biso   1.000  C
  H187     1.0000 0.20943  0.30477  0.31037  Biso   1.000  H
  H188     1.0000 0.10003  0.15467  0.27707  Biso   1.000  H
  H189     1.0000 0.03653  0.11837  0.17857  Biso   1.000  H
  O55      1.0000 0.44624  0.47557  0.42849  Biso   1.000  O
  O56      1.0000 0.43312  0.48884  0.52894  Biso   1.000  O
  C244     1.0000 0.42219  0.47696  0.47227  Biso   1.000  C
  C245     1.0000 0.37521  0.46194  0.45339  Biso   1.000  C
  C246     1.0000 0.34617  0.46179  0.49849  Biso   1.000  C
  H190     1.0000 0.35570  0.47130  0.54070  Biso   1.000  H
  C247     1.0000 0.30283  0.44742  0.48087  Biso   1.000  C
  H191     1.0000 0.28310  0.44780  0.51130  Biso   1.000  H
  C248     1.0000 0.28839  0.43284  0.42047  Biso   1.000  C
  C249     1.0000 0.31776  0.43329  0.37595  Biso   1.000  C
  H192     1.0000 0.30820  0.42360  0.33380  Biso   1.000  H
  C250     1.0000 0.36106  0.44789  0.39273  Biso   1.000  C
  H193     1.0000 0.38090  0.44810  0.36200  Biso   1.000  H
  C251     1.0000 0.24132  0.41373  0.40201  Biso   1.000  C
  C252     1.0000 0.22105  0.37491  0.36793  Biso   1.000  C
  H194     1.0000 0.23800  0.36190  0.35630  Biso   1.000  H
  H195     1.0000 0.27870  0.51200  0.38960  Biso   1.000  H
  H196     1.0000 0.25150  0.54830  0.48810  Biso   1.000  H
  O57      1.0000 0.11291  0.80890  0.76182  Biso   1.000  O
  O58      1.0000 0.09979  0.82217  0.86227  Biso   1.000  O
  C253     1.0000 0.08886  0.81029  0.80560  Biso   1.000  C
  C254     1.0000 0.04188  0.79527  0.78672  Biso   1.000  C
  C255     1.0000 0.01284  0.79512  0.83182  Biso   1.000  C
  H197     1.0000 0.02237  0.80463  0.87403  Biso   1.000  H
  C256     1.0000 0.96950  0.78075  0.81420  Biso   1.000  C
  H198     1.0000 0.94977  0.78113  0.84463  Biso   1.000  H
  C257     1.0000 0.95506  0.76617  0.75380  Biso   1.000  C
  C258     1.0000 0.98443  0.76662  0.70928  Biso   1.000  C
  H199     1.0000 0.97487  0.75693  0.66713  Biso   1.000  H
  C259     1.0000 0.02773  0.78122  0.72606  Biso   1.000  C
  H200     1.0000 0.04757  0.78143  0.69533  Biso   1.000  H
  C260     1.0000 0.90799  0.74706  0.73534  Biso   1.000  C
  C261     1.0000 0.88772  0.70824  0.70126  Biso   1.000  C
  H201     1.0000 0.90467  0.69523  0.68963  Biso   1.000  H
  H202     1.0000 0.94537  0.84533  0.72293  Biso   1.000  H
  H203     1.0000 0.91817  0.88163  0.82143  Biso   1.000  H
  O59      1.0000 0.77957  0.14224  0.09516  Biso   1.000  O
  O60      1.0000 0.76645  0.15551  0.19561  Biso   1.000  O
  C262     1.0000 0.75552  0.14363  0.13894  Biso   1.000  C
  C263     1.0000 0.70854  0.12861  0.12006  Biso   1.000  C
  C264     1.0000 0.67950  0.12846  0.16516  Biso   1.000  C
  H204     1.0000 0.68903  0.13797  0.20737  Biso   1.000  H
  C265     1.0000 0.63616  0.11409  0.14754  Biso   1.000  C
  H205     1.0000 0.61643  0.11447  0.17797  Biso   1.000  H
  C266     1.0000 0.62172  0.09951  0.08714  Biso   1.000  C
  C267     1.0000 0.65109  0.09996  0.04262  Biso   1.000  C
  H206     1.0000 0.64153  0.09027  0.00047  Biso   1.000  H
  C268     1.0000 0.69439  0.11456  0.05940  Biso   1.000  C
  H207     1.0000 0.71423  0.11477  0.02867  Biso   1.000  H
  C269     1.0000 0.57465  0.08040  0.06868  Biso   1.000  C
  C270     1.0000 0.55438  0.04158  0.03460  Biso   1.000  C
  H208     1.0000 0.57133  0.02857  0.02297  Biso   1.000  H
  H209     1.0000 0.61203  0.17867  0.05627  Biso   1.000  H
  H210     1.0000 0.58483  0.21497  0.15477  Biso   1.000  H
  O61      1.0000 0.02933  0.55376  0.42849  Biso   1.000  O
  O62      1.0000 0.05572  0.56688  0.52894  Biso   1.000  O
  C271     1.0000 0.05477  0.57781  0.47227  Biso   1.000  C
  C272     1.0000 0.08673  0.62479  0.45339  Biso   1.000  C
  C273     1.0000 0.11562  0.65383  0.49849  Biso   1.000  C
  H211     1.0000 0.11560  0.64430  0.54070  Biso   1.000  H
  C274     1.0000 0.14459  0.69717  0.48087  Biso   1.000  C
  H212     1.0000 0.16470  0.71690  0.51130  Biso   1.000  H
  C275     1.0000 0.14445  0.71161  0.42047  Biso   1.000  C
  C276     1.0000 0.11553  0.68224  0.37595  Biso   1.000  C
  H213     1.0000 0.11540  0.69180  0.33380  Biso   1.000  H
  C277     1.0000 0.08683  0.63894  0.39273  Biso   1.000  C
  H214     1.0000 0.06720  0.61910  0.36200  Biso   1.000  H
  C278     1.0000 0.17241  0.75868  0.40201  Biso   1.000  C
  C279     1.0000 0.15386  0.77895  0.36793  Biso   1.000  C
  H215     1.0000 0.12390  0.76200  0.35630  Biso   1.000  H
  H216     1.0000 0.23330  0.72130  0.38960  Biso   1.000  H
  H217     1.0000 0.29680  0.74850  0.48810  Biso   1.000  H
  O63      1.0000 0.69600  0.88709  0.76182  Biso   1.000  O
  O64      1.0000 0.72239  0.90021  0.86227  Biso   1.000  O
  C280     1.0000 0.72144  0.91114  0.80560  Biso   1.000  C
  C281     1.0000 0.75340  0.95812  0.78672  Biso   1.000  C
  C282     1.0000 0.78229  0.98716  0.83182  Biso   1.000  C
  H218     1.0000 0.78227  0.97763  0.87403  Biso   1.000  H
  C283     1.0000 0.81126  0.03050  0.81420  Biso   1.000  C
  H219     1.0000 0.83137  0.05023  0.84463  Biso   1.000  H
  C284     1.0000 0.81112  0.04494  0.75380  Biso   1.000  C
  C285     1.0000 0.78220  0.01557  0.70928  Biso   1.000  C
  H220     1.0000 0.78207  0.02513  0.66713  Biso   1.000  H
  C286     1.0000 0.75350  0.97227  0.72606  Biso   1.000  C
  H221     1.0000 0.73387  0.95243  0.69533  Biso   1.000  H
  C287     1.0000 0.83908  0.09201  0.73534  Biso   1.000  C
  C288     1.0000 0.82053  0.11228  0.70126  Biso   1.000  C
  H222     1.0000 0.79057  0.09533  0.68963  Biso   1.000  H
  H223     1.0000 0.89997  0.05463  0.72293  Biso   1.000  H
  H224     1.0000 0.96347  0.08183  0.82143  Biso   1.000  H
  O65      1.0000 0.36266  0.22043  0.09516  Biso   1.000  O
  O66      1.0000 0.38905  0.23355  0.19561  Biso   1.000  O
  C289     1.0000 0.38810  0.24448  0.13894  Biso   1.000  C
  C290     1.0000 0.42006  0.29146  0.12006  Biso   1.000  C
  C291     1.0000 0.44895  0.32050  0.16516  Biso   1.000  C
  H225     1.0000 0.44893  0.31097  0.20737  Biso   1.000  H
  C292     1.0000 0.47792  0.36384  0.14754  Biso   1.000  C
  H226     1.0000 0.49803  0.38357  0.17797  Biso   1.000  H
  C293     1.0000 0.47778  0.37828  0.08714  Biso   1.000  C
  C294     1.0000 0.44886  0.34891  0.04262  Biso   1.000  C
  H227     1.0000 0.44873  0.35847  0.00047  Biso   1.000  H
  C295     1.0000 0.42016  0.30561  0.05940  Biso   1.000  C
  H228     1.0000 0.40053  0.28577  0.02867  Biso   1.000  H
  C296     1.0000 0.50574  0.42535  0.06868  Biso   1.000  C
  C297     1.0000 0.48719  0.44562  0.03460  Biso   1.000  C
  H229     1.0000 0.45723  0.42867  0.02297  Biso   1.000  H
  H230     1.0000 0.56663  0.38797  0.05627  Biso   1.000  H
  H231     1.0000 0.63013  0.41517  0.15477  Biso   1.000  H
  O67      1.0000 0.52443  0.97067  0.42849  Biso   1.000  O
  O68      1.0000 0.51116  0.94428  0.52894  Biso   1.000  O
  C298     1.0000 0.52304  0.94523  0.47227  Biso   1.000  C
  C299     1.0000 0.53806  0.91327  0.45339  Biso   1.000  C
  C300     1.0000 0.53821  0.88438  0.49849  Biso   1.000  C
  H232     1.0000 0.52870  0.88440  0.54070  Biso   1.000  H
  C301     1.0000 0.55258  0.85541  0.48087  Biso   1.000  C
  H233     1.0000 0.55220  0.83530  0.51130  Biso   1.000  H
  C302     1.0000 0.56716  0.85555  0.42047  Biso   1.000  C
  C303     1.0000 0.56671  0.88447  0.37595  Biso   1.000  C
  H234     1.0000 0.57640  0.88460  0.33380  Biso   1.000  H
  C304     1.0000 0.55211  0.91317  0.39273  Biso   1.000  C
  H235     1.0000 0.55190  0.93280  0.36200  Biso   1.000  H
  C305     1.0000 0.58627  0.82759  0.40201  Biso   1.000  C
  C306     1.0000 0.62509  0.84614  0.36793  Biso   1.000  C
  H236     1.0000 0.63810  0.87610  0.35630  Biso   1.000  H
  H237     1.0000 0.48800  0.76670  0.38960  Biso   1.000  H
  H238     1.0000 0.45170  0.70320  0.48810  Biso   1.000  H
  O69      1.0000 0.19110  0.30400  0.76182  Biso   1.000  O
  O70      1.0000 0.17783  0.27761  0.86227  Biso   1.000  O
  C307     1.0000 0.18971  0.27856  0.80560  Biso   1.000  C
  C308     1.0000 0.20473  0.24660  0.78672  Biso   1.000  C
  C309     1.0000 0.20488  0.21771  0.83182  Biso   1.000  C
  H239     1.0000 0.19537  0.21773  0.87403  Biso   1.000  H
  C310     1.0000 0.21925  0.18874  0.81420  Biso   1.000  C
  H240     1.0000 0.21887  0.16863  0.84463  Biso   1.000  H
  C311     1.0000 0.23383  0.18888  0.75380  Biso   1.000  C
  C312     1.0000 0.23338  0.21780  0.70928  Biso   1.000  C
  H241     1.0000 0.24307  0.21793  0.66713  Biso   1.000  H
  C313     1.0000 0.21878  0.24650  0.72606  Biso   1.000  C
  H242     1.0000 0.21857  0.26613  0.69533  Biso   1.000  H
  C314     1.0000 0.25294  0.16092  0.73534  Biso   1.000  C
  C315     1.0000 0.29176  0.17947  0.70126  Biso   1.000  C
  H243     1.0000 0.30477  0.20943  0.68963  Biso   1.000  H
  H244     1.0000 0.15467  0.10003  0.72293  Biso   1.000  H
  H245     1.0000 0.11837  0.03653  0.82143  Biso   1.000  H
  O71      1.0000 0.85776  0.63734  0.09516  Biso   1.000  O
  O72      1.0000 0.84449  0.61095  0.19561  Biso   1.000  O
  C316     1.0000 0.85637  0.61190  0.13894  Biso   1.000  C
  C317     1.0000 0.87139  0.57994  0.12006  Biso   1.000  C
  C318     1.0000 0.87154  0.55105  0.16516  Biso   1.000  C
  H246     1.0000 0.86203  0.55107  0.20737  Biso   1.000  H
  C319     1.0000 0.88591  0.52208  0.14754  Biso   1.000  C
  H247     1.0000 0.88553  0.50197  0.17797  Biso   1.000  H
  C320     1.0000 0.90049  0.52222  0.08714  Biso   1.000  C
  C321     1.0000 0.90004  0.55114  0.04262  Biso   1.000  C
  H248     1.0000 0.90973  0.55127  0.00047  Biso   1.000  H
  C322     1.0000 0.88544  0.57984  0.05940  Biso   1.000  C
  H249     1.0000 0.88523  0.59947  0.02867  Biso   1.000  H
  C323     1.0000 0.91960  0.49426  0.06868  Biso   1.000  C
  C324     1.0000 0.95842  0.51281  0.03460  Biso   1.000  C
  H250     1.0000 0.97143  0.54277  0.02297  Biso   1.000  H
  H251     1.0000 0.82133  0.43337  0.05627  Biso   1.000  H
  H252     1.0000 0.78503  0.36987  0.15477  Biso   1.000  H
  Cu1      1.0000 0.50764  0.49236  0.44182  Biso   1.000  Cu
  Cu2      1.0000 0.17431  0.82569  0.77515  Biso   1.000  Cu
  Cu3      1.0000 0.84097  0.15903  0.10849  Biso   1.000  Cu
  Cu4      1.0000 0.50764  0.01528  0.44182  Biso   1.000  Cu
  Cu5      1.0000 0.17431  0.34861  0.77515  Biso   1.000  Cu
  Cu6      1.0000 0.84097  0.68195  0.10849  Biso   1.000  Cu
  Cu7      1.0000 0.98472  0.49236  0.44182  Biso   1.000  Cu
  Cu8      1.0000 0.65139  0.82569  0.77515  Biso   1.000  Cu
  Cu9      1.0000 0.31805  0.15903  0.10849  Biso   1.000  Cu
  Cu10     1.0000 0.49236  0.50764  0.55818  Biso   1.000  Cu
  Cu11     1.0000 0.15903  0.84097  0.89151  Biso   1.000  Cu
  Cu12     1.0000 0.82569  0.17431  0.22485  Biso   1.000  Cu
  Cu13     1.0000 0.01528  0.50764  0.55818  Biso   1.000  Cu
  Cu14     1.0000 0.68195  0.84097  0.89151  Biso   1.000  Cu
  Cu15     1.0000 0.34861  0.17431  0.22485  Biso   1.000  Cu
  Cu16     1.0000 0.49236  0.98472  0.55818  Biso   1.000  Cu
  Cu17     1.0000 0.15903  0.31805  0.89151  Biso   1.000  Cu
  Cu18     1.0000 0.82569  0.65139  0.22485  Biso   1.000  Cu
  O73      1.0000 0.52768  0.76384  0.45365  Biso   1.000  O
  C325     1.0000 0.64628  0.82314  0.34950  Biso   1.000  C
  C326     1.0000 0.56671  0.78336  0.41840  Biso   1.000  C
  C327     1.0000 0.48895  0.74448  0.41710  Biso   1.000  C
  C328     1.0000 0.45070  0.72535  0.46120  Biso   1.000  C
  H253     1.0000 0.42350  0.71175  0.43640  Biso   1.000  H
  O74      1.0000 0.19435  0.09717  0.78698  Biso   1.000  O
  C329     1.0000 0.31295  0.15647  0.68283  Biso   1.000  C
  C330     1.0000 0.23338  0.11669  0.75173  Biso   1.000  C
  C331     1.0000 0.15562  0.07781  0.75043  Biso   1.000  C
  C332     1.0000 0.11737  0.05868  0.79453  Biso   1.000  C
  H254     1.0000 0.09017  0.04508  0.76973  Biso   1.000  H
  O75      1.0000 0.86101  0.43051  0.12032  Biso   1.000  O
  C333     1.0000 0.97961  0.48981  0.01617  Biso   1.000  C
  C334     1.0000 0.90004  0.45002  0.08507  Biso   1.000  C
  C335     1.0000 0.82228  0.41114  0.08377  Biso   1.000  C
  C336     1.0000 0.78403  0.39202  0.12787  Biso   1.000  C
  H255     1.0000 0.75683  0.37842  0.10307  Biso   1.000  H
  O76      1.0000 0.23616  0.76384  0.45365  Biso   1.000  O
  C337     1.0000 0.17686  0.82314  0.34950  Biso   1.000  C
  C338     1.0000 0.21664  0.78336  0.41840  Biso   1.000  C
  C339     1.0000 0.25552  0.74447  0.41710  Biso   1.000  C
  C340     1.0000 0.27465  0.72535  0.46120  Biso   1.000  C
  H256     1.0000 0.28825  0.71175  0.43640  Biso   1.000  H
  O77      1.0000 0.90283  0.09717  0.78698  Biso   1.000  O
  C341     1.0000 0.84353  0.15647  0.68283  Biso   1.000  C
  C342     1.0000 0.88331  0.11669  0.75173  Biso   1.000  C
  C343     1.0000 0.92219  0.07781  0.75043  Biso   1.000  C
  C344     1.0000 0.94132  0.05868  0.79453  Biso   1.000  C
  H257     1.0000 0.95492  0.04508  0.76973  Biso   1.000  H
  O78      1.0000 0.56949  0.43051  0.12032  Biso   1.000  O
  C345     1.0000 0.51019  0.48981  0.01617  Biso   1.000  C
  C346     1.0000 0.54998  0.45002  0.08507  Biso   1.000  C
  C347     1.0000 0.58886  0.41114  0.08377  Biso   1.000  C
  C348     1.0000 0.60798  0.39202  0.12787  Biso   1.000  C
  H258     1.0000 0.62158  0.37842  0.10307  Biso   1.000  H
  O79      1.0000 0.23616  0.47232  0.45365  Biso   1.000  O
  C349     1.0000 0.17686  0.35372  0.34950  Biso   1.000  C
  C350     1.0000 0.21664  0.43329  0.41840  Biso   1.000  C
  C351     1.0000 0.25553  0.51105  0.41710  Biso   1.000  C
  C352     1.0000 0.27465  0.54930  0.46120  Biso   1.000  C
  H259     1.0000 0.28825  0.57650  0.43640  Biso   1.000  H
  O80      1.0000 0.90283  0.80565  0.78698  Biso   1.000  O
  C353     1.0000 0.84353  0.68705  0.68283  Biso   1.000  C
  C354     1.0000 0.88331  0.76662  0.75173  Biso   1.000  C
  C355     1.0000 0.92219  0.84438  0.75043  Biso   1.000  C
  C356     1.0000 0.94132  0.88263  0.79453  Biso   1.000  C
  H260     1.0000 0.95492  0.90983  0.76973  Biso   1.000  H
  O81      1.0000 0.56949  0.13899  0.12032  Biso   1.000  O
  C357     1.0000 0.51019  0.02039  0.01617  Biso   1.000  C
  C358     1.0000 0.54998  0.09996  0.08507  Biso   1.000  C
  C359     1.0000 0.58886  0.17772  0.08377  Biso   1.000  C
  C360     1.0000 0.60798  0.21597  0.12787  Biso   1.000  C
  H261     1.0000 0.62158  0.24317  0.10307  Biso   1.000  H
  O82      1.0000 0.76384  0.52768  0.54635  Biso   1.000  O
  C361     1.0000 0.82314  0.64628  0.65050  Biso   1.000  C
  C362     1.0000 0.78336  0.56671  0.58160  Biso   1.000  C
  C363     1.0000 0.74447  0.48895  0.58290  Biso   1.000  C
  C364     1.0000 0.72535  0.45070  0.53880  Biso   1.000  C
  H262     1.0000 0.71175  0.42350  0.56360  Biso   1.000  H
  O83      1.0000 0.43051  0.86101  0.87968  Biso   1.000  O
  C365     1.0000 0.48981  0.97961  0.98383  Biso   1.000  C
  C366     1.0000 0.45002  0.90004  0.91493  Biso   1.000  C
  C367     1.0000 0.41114  0.82228  0.91623  Biso   1.000  C
  C368     1.0000 0.39202  0.78403  0.87213  Biso   1.000  C
  H263     1.0000 0.37842  0.75683  0.89693  Biso   1.000  H
  O84      1.0000 0.09717  0.19435  0.21302  Biso   1.000  O
  C369     1.0000 0.15647  0.31295  0.31717  Biso   1.000  C
  C370     1.0000 0.11669  0.23338  0.24827  Biso   1.000  C
  C371     1.0000 0.07781  0.15562  0.24957  Biso   1.000  C
  C372     1.0000 0.05868  0.11737  0.20547  Biso   1.000  C
  H264     1.0000 0.04508  0.09017  0.23027  Biso   1.000  H
  O85      1.0000 0.76384  0.23616  0.54635  Biso   1.000  O
  C373     1.0000 0.82314  0.17686  0.65050  Biso   1.000  C
  C374     1.0000 0.78336  0.21664  0.58160  Biso   1.000  C
  C375     1.0000 0.74447  0.25553  0.58290  Biso   1.000  C
  C376     1.0000 0.72535  0.27465  0.53880  Biso   1.000  C
  H265     1.0000 0.71175  0.28825  0.56360  Biso   1.000  H
  O86      1.0000 0.43051  0.56949  0.87968  Biso   1.000  O
  C377     1.0000 0.48981  0.51019  0.98383  Biso   1.000  C
  C378     1.0000 0.45002  0.54998  0.91493  Biso   1.000  C
  C379     1.0000 0.41114  0.58886  0.91623  Biso   1.000  C
  C380     1.0000 0.39202  0.60798  0.87213  Biso   1.000  C
  H266     1.0000 0.37842  0.62158  0.89693  Biso   1.000  H
  O87      1.0000 0.09717  0.90283  0.21302  Biso   1.000  O
  C381     1.0000 0.15647  0.84353  0.31717  Biso   1.000  C
  C382     1.0000 0.11669  0.88331  0.24827  Biso   1.000  C
  C383     1.0000 0.07781  0.92219  0.24957  Biso   1.000  C
  C384     1.0000 0.05868  0.94132  0.20547  Biso   1.000  C
  H267     1.0000 0.04508  0.95492  0.23027  Biso   1.000  H
  O88      1.0000 0.47232  0.23616  0.54635  Biso   1.000  O
  C385     1.0000 0.35372  0.17686  0.65050  Biso   1.000  C
  C386     1.0000 0.43329  0.21664  0.58160  Biso   1.000  C
  C387     1.0000 0.51105  0.25552  0.58290  Biso   1.000  C
  C388     1.0000 0.54930  0.27465  0.53880  Biso   1.000  C
  H268     1.0000 0.57650  0.28825  0.56360  Biso   1.000  H
  O89      1.0000 0.13899  0.56949  0.87968  Biso   1.000  O
  C389     1.0000 0.02039  0.51019  0.98383  Biso   1.000  C
  C390     1.0000 0.09996  0.54998  0.91493  Biso   1.000  C
  C391     1.0000 0.17772  0.58886  0.91623  Biso   1.000  C
  C392     1.0000 0.21597  0.60798  0.87213  Biso   1.000  C
  H269     1.0000 0.24317  0.62158  0.89693  Biso   1.000  H
  O90      1.0000 0.80565  0.90283  0.21302  Biso   1.000  O
  C393     1.0000 0.68705  0.84353  0.31717  Biso   1.000  C
  C394     1.0000 0.76662  0.88331  0.24827  Biso   1.000  C
  C395     1.0000 0.84438  0.92219  0.24957  Biso   1.000  C
  C396     1.0000 0.88263  0.94132  0.20547  Biso   1.000  C
  H270     1.0000 0.90983  0.95492  0.23027  Biso   1.000  H
