data_image0
_cell_length_a       35.1314
_cell_length_b       35.1314
_cell_length_c       22.4116
_cell_angle_alpha    90
_cell_angle_beta     90
_cell_angle_gamma    120

_symmetry_space_group_name_H-M    "P 1"
_symmetry_int_tables_number       1

loop_
  _symmetry_equiv_pos_as_xyz
  'x, y, z'

loop_
  _atom_site_label
  _atom_site_occupancy
  _atom_site_fract_x
  _atom_site_fract_y
  _atom_site_fract_z
  _atom_site_thermal_displace_type
  _atom_site_B_iso_or_equiv
  _atom_site_type_symbol
  O1       1.0000 0.36251  0.22025  0.09819  Biso   1.000  O
  O2       1.0000 0.38855  0.23351  0.19243  Biso   1.000  O
  C1       1.0000 0.38781  0.24463  0.13968  Biso   1.000  C
  C2       1.0000 0.41860  0.29203  0.12297  Biso   1.000  C
  C3       1.0000 0.44598  0.32211  0.16524  Biso   1.000  C
  H1       1.0000 0.44570  0.31270  0.20410  Biso   1.000  H
  C4       1.0000 0.47336  0.36536  0.15110  Biso   1.000  C
  H2       1.0000 0.49070  0.38490  0.18070  Biso   1.000  H
  C5       1.0000 0.47560  0.38049  0.09340  Biso   1.000  C
  C6       1.0000 0.44858  0.34970  0.04850  Biso   1.000  C
  H3       1.0000 0.44990  0.35850  0.00910  Biso   1.000  H
  C7       1.0000 0.42036  0.30641  0.06510  Biso   1.000  C
  H4       1.0000 0.40210  0.28650  0.03650  Biso   1.000  H
  C8       1.0000 0.50337  0.42761  0.07451  Biso   1.000  C
  C9       1.0000 0.48615  0.44667  0.03880  Biso   1.000  C
  H5       1.0000 0.45710  0.42960  0.02660  Biso   1.000  H
  H6       1.0000 0.60940  0.43550  0.07420  Biso   1.000  H
  H7       1.0000 0.58030  0.37510  0.16980  Biso   1.000  H
  O3       1.0000 0.02918  0.55358  0.43152  Biso   1.000  O
  O4       1.0000 0.05522  0.56684  0.52576  Biso   1.000  O
  C10      1.0000 0.05448  0.57796  0.47301  Biso   1.000  C
  C11      1.0000 0.08527  0.62536  0.45630  Biso   1.000  C
  C12      1.0000 0.11265  0.65544  0.49857  Biso   1.000  C
  H8       1.0000 0.11237  0.64603  0.53743  Biso   1.000  H
  C13      1.0000 0.14003  0.69869  0.48443  Biso   1.000  C
  H9       1.0000 0.15737  0.71823  0.51403  Biso   1.000  H
  C14      1.0000 0.14227  0.71382  0.42673  Biso   1.000  C
  C15      1.0000 0.11525  0.68303  0.38183  Biso   1.000  C
  H10      1.0000 0.11657  0.69183  0.34243  Biso   1.000  H
  C16      1.0000 0.08703  0.63974  0.39843  Biso   1.000  C
  H11      1.0000 0.06877  0.61983  0.36983  Biso   1.000  H
  C17      1.0000 0.17004  0.76094  0.40784  Biso   1.000  C
  C18      1.0000 0.15282  0.78000  0.37213  Biso   1.000  C
  H12      1.0000 0.12377  0.76293  0.35993  Biso   1.000  H
  H13      1.0000 0.27607  0.76883  0.40753  Biso   1.000  H
  H14      1.0000 0.24697  0.70843  0.50313  Biso   1.000  H
  O5       1.0000 0.69584  0.88692  0.76486  Biso   1.000  O
  O6       1.0000 0.72188  0.90018  0.85910  Biso   1.000  O
  C19      1.0000 0.72114  0.91130  0.80635  Biso   1.000  C
  C20      1.0000 0.75193  0.95870  0.78964  Biso   1.000  C
  C21      1.0000 0.77931  0.98878  0.83191  Biso   1.000  C
  H15      1.0000 0.77903  0.97937  0.87077  Biso   1.000  H
  C22      1.0000 0.80669  0.03203  0.81777  Biso   1.000  C
  H16      1.0000 0.82403  0.05157  0.84737  Biso   1.000  H
  C23      1.0000 0.80893  0.04716  0.76007  Biso   1.000  C
  C24      1.0000 0.78191  0.01637  0.71517  Biso   1.000  C
  H17      1.0000 0.78323  0.02517  0.67577  Biso   1.000  H
  C25      1.0000 0.75369  0.97308  0.73177  Biso   1.000  C
  H18      1.0000 0.73543  0.95317  0.70317  Biso   1.000  H
  C26      1.0000 0.83670  0.09428  0.74118  Biso   1.000  C
  C27      1.0000 0.81948  0.11334  0.70547  Biso   1.000  C
  H19      1.0000 0.79043  0.09627  0.69327  Biso   1.000  H
  H20      1.0000 0.94273  0.10217  0.74087  Biso   1.000  H
  H21      1.0000 0.91363  0.04177  0.83647  Biso   1.000  H
  O7       1.0000 0.77975  0.14226  0.09819  Biso   1.000  O
  O8       1.0000 0.76649  0.15504  0.19243  Biso   1.000  O
  C28      1.0000 0.75537  0.14318  0.13968  Biso   1.000  C
  C29      1.0000 0.70797  0.12657  0.12297  Biso   1.000  C
  C30      1.0000 0.67789  0.12387  0.16524  Biso   1.000  C
  H22      1.0000 0.68730  0.13300  0.20410  Biso   1.000  H
  C31      1.0000 0.63464  0.10800  0.15110  Biso   1.000  C
  H23      1.0000 0.61510  0.10580  0.18070  Biso   1.000  H
  C32      1.0000 0.61951  0.09511  0.09340  Biso   1.000  C
  C33      1.0000 0.65030  0.09888  0.04850  Biso   1.000  C
  H24      1.0000 0.64150  0.09140  0.00910  Biso   1.000  H
  C34      1.0000 0.69359  0.11395  0.06510  Biso   1.000  C
  H25      1.0000 0.71350  0.11560  0.03650  Biso   1.000  H
  C35      1.0000 0.57239  0.07576  0.07451  Biso   1.000  C
  C36      1.0000 0.55333  0.03948  0.03880  Biso   1.000  C
  H26      1.0000 0.57040  0.02750  0.02660  Biso   1.000  H
  H27      1.0000 0.56450  0.17390  0.07420  Biso   1.000  H
  H28      1.0000 0.62490  0.20520  0.16980  Biso   1.000  H
  O9       1.0000 0.44642  0.47559  0.43152  Biso   1.000  O
  O10      1.0000 0.43316  0.48837  0.52576  Biso   1.000  O
  C37      1.0000 0.42204  0.47651  0.47301  Biso   1.000  C
  C38      1.0000 0.37464  0.45990  0.45630  Biso   1.000  C
  C39      1.0000 0.34456  0.45720  0.49857  Biso   1.000  C
  H29      1.0000 0.35397  0.46633  0.53743  Biso   1.000  H
  C40      1.0000 0.30131  0.44133  0.48443  Biso   1.000  C
  H30      1.0000 0.28177  0.43913  0.51403  Biso   1.000  H
  C41      1.0000 0.28618  0.42844  0.42673  Biso   1.000  C
  C42      1.0000 0.31697  0.43221  0.38183  Biso   1.000  C
  H31      1.0000 0.30817  0.42473  0.34243  Biso   1.000  H
  C43      1.0000 0.36026  0.44728  0.39843  Biso   1.000  C
  H32      1.0000 0.38017  0.44893  0.36983  Biso   1.000  H
  C44      1.0000 0.23906  0.40909  0.40784  Biso   1.000  C
  C45      1.0000 0.22000  0.37281  0.37213  Biso   1.000  C
  H33      1.0000 0.23707  0.36083  0.35993  Biso   1.000  H
  H34      1.0000 0.23117  0.50723  0.40753  Biso   1.000  H
  H35      1.0000 0.29157  0.53853  0.50313  Biso   1.000  H
  O11      1.0000 0.11308  0.80893  0.76486  Biso   1.000  O
  O12      1.0000 0.09982  0.82171  0.85910  Biso   1.000  O
  C46      1.0000 0.08870  0.80985  0.80635  Biso   1.000  C
  C47      1.0000 0.04130  0.79324  0.78964  Biso   1.000  C
  C48      1.0000 0.01122  0.79054  0.83191  Biso   1.000  C
  H36      1.0000 0.02063  0.79967  0.87077  Biso   1.000  H
  C49      1.0000 0.96797  0.77467  0.81777  Biso   1.000  C
  H37      1.0000 0.94843  0.77247  0.84737  Biso   1.000  H
  C50      1.0000 0.95284  0.76178  0.76007  Biso   1.000  C
  C51      1.0000 0.98363  0.76555  0.71517  Biso   1.000  C
  H38      1.0000 0.97483  0.75807  0.67577  Biso   1.000  H
  C52      1.0000 0.02692  0.78062  0.73177  Biso   1.000  C
  H39      1.0000 0.04683  0.78227  0.70317  Biso   1.000  H
  C53      1.0000 0.90572  0.74243  0.74118  Biso   1.000  C
  C54      1.0000 0.88666  0.70615  0.70547  Biso   1.000  C
  H40      1.0000 0.90373  0.69417  0.69327  Biso   1.000  H
  H41      1.0000 0.89783  0.84057  0.74087  Biso   1.000  H
  H42      1.0000 0.95823  0.87187  0.83647  Biso   1.000  H
  O13      1.0000 0.85774  0.63749  0.09819  Biso   1.000  O
  O14      1.0000 0.84496  0.61145  0.19243  Biso   1.000  O
  C55      1.0000 0.85682  0.61219  0.13968  Biso   1.000  C
  C56      1.0000 0.87343  0.58140  0.12297  Biso   1.000  C
  C57      1.0000 0.87613  0.55402  0.16524  Biso   1.000  C
  H43      1.0000 0.86700  0.55430  0.20410  Biso   1.000  H
  C58      1.0000 0.89200  0.52664  0.15110  Biso   1.000  C
  H44      1.0000 0.89420  0.50930  0.18070  Biso   1.000  H
  C59      1.0000 0.90489  0.52440  0.09340  Biso   1.000  C
  C60      1.0000 0.90112  0.55142  0.04850  Biso   1.000  C
  H45      1.0000 0.90860  0.55010  0.00910  Biso   1.000  H
  C61      1.0000 0.88605  0.57964  0.06510  Biso   1.000  C
  H46      1.0000 0.88440  0.59790  0.03650  Biso   1.000  H
  C62      1.0000 0.92424  0.49663  0.07451  Biso   1.000  C
  C63      1.0000 0.96052  0.51385  0.03880  Biso   1.000  C
  H47      1.0000 0.97250  0.54290  0.02660  Biso   1.000  H
  H48      1.0000 0.82610  0.39060  0.07420  Biso   1.000  H
  H49      1.0000 0.79480  0.41970  0.16980  Biso   1.000  H
  O15      1.0000 0.52441  0.97082  0.43152  Biso   1.000  O
  O16      1.0000 0.51163  0.94478  0.52576  Biso   1.000  O
  C64      1.0000 0.52349  0.94552  0.47301  Biso   1.000  C
  C65      1.0000 0.54010  0.91473  0.45630  Biso   1.000  C
  C66      1.0000 0.54280  0.88735  0.49857  Biso   1.000  C
  H50      1.0000 0.53367  0.88763  0.53743  Biso   1.000  H
  C67      1.0000 0.55867  0.85997  0.48443  Biso   1.000  C
  H51      1.0000 0.56087  0.84263  0.51403  Biso   1.000  H
  C68      1.0000 0.57156  0.85773  0.42673  Biso   1.000  C
  C69      1.0000 0.56779  0.88475  0.38183  Biso   1.000  C
  H52      1.0000 0.57527  0.88343  0.34243  Biso   1.000  H
  C70      1.0000 0.55272  0.91297  0.39843  Biso   1.000  C
  H53      1.0000 0.55107  0.93123  0.36983  Biso   1.000  H
  C71      1.0000 0.59091  0.82996  0.40784  Biso   1.000  C
  C72      1.0000 0.62719  0.84718  0.37213  Biso   1.000  C
  H54      1.0000 0.63917  0.87623  0.35993  Biso   1.000  H
  H55      1.0000 0.49277  0.72393  0.40753  Biso   1.000  H
  H56      1.0000 0.46147  0.75303  0.50313  Biso   1.000  H
  O17      1.0000 0.19107  0.30416  0.76486  Biso   1.000  O
  O18      1.0000 0.17829  0.27812  0.85910  Biso   1.000  O
  C73      1.0000 0.19015  0.27886  0.80635  Biso   1.000  C
  C74      1.0000 0.20676  0.24807  0.78964  Biso   1.000  C
  C75      1.0000 0.20946  0.22069  0.83191  Biso   1.000  C
  H57      1.0000 0.20033  0.22097  0.87077  Biso   1.000  H
  C76      1.0000 0.22533  0.19331  0.81777  Biso   1.000  C
  H58      1.0000 0.22753  0.17597  0.84737  Biso   1.000  H
  C77      1.0000 0.23822  0.19107  0.76007  Biso   1.000  C
  C78      1.0000 0.23445  0.21809  0.71517  Biso   1.000  C
  H59      1.0000 0.24193  0.21677  0.67577  Biso   1.000  H
  C79      1.0000 0.21938  0.24631  0.73177  Biso   1.000  C
  H60      1.0000 0.21773  0.26457  0.70317  Biso   1.000  H
  C80      1.0000 0.25757  0.16330  0.74118  Biso   1.000  C
  C81      1.0000 0.29385  0.18052  0.70547  Biso   1.000  C
  H61      1.0000 0.30583  0.20957  0.69327  Biso   1.000  H
  H62      1.0000 0.15943  0.05727  0.74087  Biso   1.000  H
  H63      1.0000 0.12813  0.08637  0.83647  Biso   1.000  H
  O19      1.0000 0.22025  0.36251  0.90181  Biso   1.000  O
  O20      1.0000 0.23351  0.38855  0.80757  Biso   1.000  O
  C82      1.0000 0.24463  0.38781  0.86032  Biso   1.000  C
  C83      1.0000 0.29203  0.41860  0.87703  Biso   1.000  C
  C84      1.0000 0.32211  0.44598  0.83476  Biso   1.000  C
  H64      1.0000 0.31270  0.44570  0.79590  Biso   1.000  H
  C85      1.0000 0.36536  0.47336  0.84890  Biso   1.000  C
  H65      1.0000 0.38490  0.49070  0.81930  Biso   1.000  H
  C86      1.0000 0.38049  0.47560  0.90660  Biso   1.000  C
  C87      1.0000 0.34970  0.44858  0.95150  Biso   1.000  C
  H66      1.0000 0.35850  0.44990  0.99090  Biso   1.000  H
  C88      1.0000 0.30641  0.42036  0.93490  Biso   1.000  C
  H67      1.0000 0.28650  0.40210  0.96350  Biso   1.000  H
  C89      1.0000 0.42761  0.50337  0.92549  Biso   1.000  C
  C90      1.0000 0.44667  0.48615  0.96120  Biso   1.000  C
  H68      1.0000 0.42960  0.45710  0.97340  Biso   1.000  H
  H69      1.0000 0.43550  0.60940  0.92580  Biso   1.000  H
  H70      1.0000 0.37510  0.58030  0.83020  Biso   1.000  H
  O21      1.0000 0.88692  0.69584  0.23514  Biso   1.000  O
  O22      1.0000 0.90018  0.72188  0.14090  Biso   1.000  O
  C91      1.0000 0.91130  0.72114  0.19365  Biso   1.000  C
  C92      1.0000 0.95870  0.75193  0.21036  Biso   1.000  C
  C93      1.0000 0.98878  0.77931  0.16809  Biso   1.000  C
  H71      1.0000 0.97937  0.77903  0.12923  Biso   1.000  H
  C94      1.0000 0.03203  0.80669  0.18223  Biso   1.000  C
  H72      1.0000 0.05157  0.82403  0.15263  Biso   1.000  H
  C95      1.0000 0.04716  0.80893  0.23993  Biso   1.000  C
  C96      1.0000 0.01637  0.78191  0.28483  Biso   1.000  C
  H73      1.0000 0.02517  0.78323  0.32423  Biso   1.000  H
  C97      1.0000 0.97308  0.75369  0.26823  Biso   1.000  C
  H74      1.0000 0.95317  0.73543  0.29683  Biso   1.000  H
  C98      1.0000 0.09428  0.83670  0.25882  Biso   1.000  C
  C99      1.0000 0.11334  0.81948  0.29453  Biso   1.000  C
  H75      1.0000 0.09627  0.79043  0.30673  Biso   1.000  H
  H76      1.0000 0.10217  0.94273  0.25913  Biso   1.000  H
  H77      1.0000 0.04177  0.91363  0.16353  Biso   1.000  H
  O23      1.0000 0.55358  0.02918  0.56848  Biso   1.000  O
  O24      1.0000 0.56684  0.05522  0.47424  Biso   1.000  O
  C100     1.0000 0.57796  0.05448  0.52699  Biso   1.000  C
  C101     1.0000 0.62536  0.08527  0.54370  Biso   1.000  C
  C102     1.0000 0.65544  0.11265  0.50143  Biso   1.000  C
  H78      1.0000 0.64603  0.11237  0.46257  Biso   1.000  H
  C103     1.0000 0.69869  0.14003  0.51557  Biso   1.000  C
  H79      1.0000 0.71823  0.15737  0.48597  Biso   1.000  H
  C104     1.0000 0.71382  0.14227  0.57327  Biso   1.000  C
  C105     1.0000 0.68303  0.11525  0.61817  Biso   1.000  C
  H80      1.0000 0.69183  0.11657  0.65757  Biso   1.000  H
  C106     1.0000 0.63974  0.08703  0.60157  Biso   1.000  C
  H81      1.0000 0.61983  0.06877  0.63017  Biso   1.000  H
  C107     1.0000 0.76094  0.17004  0.59216  Biso   1.000  C
  C108     1.0000 0.78000  0.15282  0.62787  Biso   1.000  C
  H82      1.0000 0.76293  0.12377  0.64007  Biso   1.000  H
  H83      1.0000 0.76883  0.27607  0.59247  Biso   1.000  H
  H84      1.0000 0.70843  0.24697  0.49687  Biso   1.000  H
  O25      1.0000 0.14226  0.77975  0.90181  Biso   1.000  O
  O26      1.0000 0.15504  0.76649  0.80757  Biso   1.000  O
  C109     1.0000 0.14318  0.75537  0.86032  Biso   1.000  C
  C110     1.0000 0.12657  0.70797  0.87703  Biso   1.000  C
  C111     1.0000 0.12387  0.67789  0.83476  Biso   1.000  C
  H85      1.0000 0.13300  0.68730  0.79590  Biso   1.000  H
  C112     1.0000 0.10800  0.63464  0.84890  Biso   1.000  C
  H86      1.0000 0.10580  0.61510  0.81930  Biso   1.000  H
  C113     1.0000 0.09511  0.61951  0.90660  Biso   1.000  C
  C114     1.0000 0.09888  0.65030  0.95150  Biso   1.000  C
  H87      1.0000 0.09140  0.64150  0.99090  Biso   1.000  H
  C115     1.0000 0.11395  0.69359  0.93490  Biso   1.000  C
  H88      1.0000 0.11560  0.71350  0.96350  Biso   1.000  H
  C116     1.0000 0.07576  0.57239  0.92549  Biso   1.000  C
  C117     1.0000 0.03948  0.55333  0.96120  Biso   1.000  C
  H89      1.0000 0.02750  0.57040  0.97340  Biso   1.000  H
  H90      1.0000 0.17390  0.56450  0.92580  Biso   1.000  H
  H91      1.0000 0.20520  0.62490  0.83020  Biso   1.000  H
  O27      1.0000 0.80893  0.11308  0.23514  Biso   1.000  O
  O28      1.0000 0.82171  0.09982  0.14090  Biso   1.000  O
  C118     1.0000 0.80985  0.08870  0.19365  Biso   1.000  C
  C119     1.0000 0.79324  0.04130  0.21036  Biso   1.000  C
  C120     1.0000 0.79054  0.01122  0.16809  Biso   1.000  C
  H92      1.0000 0.79967  0.02063  0.12923  Biso   1.000  H
  C121     1.0000 0.77467  0.96797  0.18223  Biso   1.000  C
  H93      1.0000 0.77247  0.94843  0.15263  Biso   1.000  H
  C122     1.0000 0.76178  0.95284  0.23993  Biso   1.000  C
  C123     1.0000 0.76555  0.98363  0.28483  Biso   1.000  C
  H94      1.0000 0.75807  0.97483  0.32423  Biso   1.000  H
  C124     1.0000 0.78062  0.02692  0.26823  Biso   1.000  C
  H95      1.0000 0.78227  0.04683  0.29683  Biso   1.000  H
  C125     1.0000 0.74243  0.90572  0.25882  Biso   1.000  C
  C126     1.0000 0.70615  0.88666  0.29453  Biso   1.000  C
  H96      1.0000 0.69417  0.90373  0.30673  Biso   1.000  H
  H97      1.0000 0.84057  0.89783  0.25913  Biso   1.000  H
  H98      1.0000 0.87187  0.95823  0.16353  Biso   1.000  H
  O29      1.0000 0.47559  0.44642  0.56848  Biso   1.000  O
  O30      1.0000 0.48837  0.43316  0.47424  Biso   1.000  O
  C127     1.0000 0.47651  0.42204  0.52699  Biso   1.000  C
  C128     1.0000 0.45990  0.37464  0.54370  Biso   1.000  C
  C129     1.0000 0.45720  0.34456  0.50143  Biso   1.000  C
  H99      1.0000 0.46633  0.35397  0.46257  Biso   1.000  H
  C130     1.0000 0.44133  0.30131  0.51557  Biso   1.000  C
  H100     1.0000 0.43913  0.28177  0.48597  Biso   1.000  H
  C131     1.0000 0.42844  0.28618  0.57327  Biso   1.000  C
  C132     1.0000 0.43221  0.31697  0.61817  Biso   1.000  C
  H101     1.0000 0.42473  0.30817  0.65757  Biso   1.000  H
  C133     1.0000 0.44728  0.36026  0.60157  Biso   1.000  C
  H102     1.0000 0.44893  0.38017  0.63017  Biso   1.000  H
  C134     1.0000 0.40909  0.23906  0.59216  Biso   1.000  C
  C135     1.0000 0.37281  0.22000  0.62787  Biso   1.000  C
  H103     1.0000 0.36083  0.23707  0.64007  Biso   1.000  H
  H104     1.0000 0.50723  0.23117  0.59247  Biso   1.000  H
  H105     1.0000 0.53853  0.29157  0.49687  Biso   1.000  H
  O31      1.0000 0.63749  0.85774  0.90181  Biso   1.000  O
  O32      1.0000 0.61145  0.84496  0.80757  Biso   1.000  O
  C136     1.0000 0.61219  0.85682  0.86032  Biso   1.000  C
  C137     1.0000 0.58140  0.87343  0.87703  Biso   1.000  C
  C138     1.0000 0.55402  0.87613  0.83476  Biso   1.000  C
  H106     1.0000 0.55430  0.86700  0.79590  Biso   1.000  H
  C139     1.0000 0.52664  0.89200  0.84890  Biso   1.000  C
  H107     1.0000 0.50930  0.89420  0.81930  Biso   1.000  H
  C140     1.0000 0.52440  0.90489  0.90660  Biso   1.000  C
  C141     1.0000 0.55142  0.90112  0.95150  Biso   1.000  C
  H108     1.0000 0.55010  0.90860  0.99090  Biso   1.000  H
  C142     1.0000 0.57964  0.88605  0.93490  Biso   1.000  C
  H109     1.0000 0.59790  0.88440  0.96350  Biso   1.000  H
  C143     1.0000 0.49663  0.92424  0.92549  Biso   1.000  C
  C144     1.0000 0.51385  0.96052  0.96120  Biso   1.000  C
  H110     1.0000 0.54290  0.97250  0.97340  Biso   1.000  H
  H111     1.0000 0.39060  0.82610  0.92580  Biso   1.000  H
  H112     1.0000 0.41970  0.79480  0.83020  Biso   1.000  H
  O33      1.0000 0.30416  0.19107  0.23514  Biso   1.000  O
  O34      1.0000 0.27812  0.17829  0.14090  Biso   1.000  O
  C145     1.0000 0.27886  0.19015  0.19365  Biso   1.000  C
  C146     1.0000 0.24807  0.20676  0.21036  Biso   1.000  C
  C147     1.0000 0.22069  0.20946  0.16809  Biso   1.000  C
  H113     1.0000 0.22097  0.20033  0.12923  Biso   1.000  H
  C148     1.0000 0.19331  0.22533  0.18223  Biso   1.000  C
  H114     1.0000 0.17597  0.22753  0.15263  Biso   1.000  H
  C149     1.0000 0.19107  0.23822  0.23993  Biso   1.000  C
  C150     1.0000 0.21809  0.23445  0.28483  Biso   1.000  C
  H115     1.0000 0.21677  0.24193  0.32423  Biso   1.000  H
  C151     1.0000 0.24631  0.21938  0.26823  Biso   1.000  C
  H116     1.0000 0.26457  0.21773  0.29683  Biso   1.000  H
  C152     1.0000 0.16330  0.25757  0.25882  Biso   1.000  C
  C153     1.0000 0.18052  0.29385  0.29453  Biso   1.000  C
  H117     1.0000 0.20957  0.30583  0.30673  Biso   1.000  H
  H118     1.0000 0.05727  0.15943  0.25913  Biso   1.000  H
  H119     1.0000 0.08637  0.12813  0.16353  Biso   1.000  H
  O35      1.0000 0.97082  0.52441  0.56848  Biso   1.000  O
  O36      1.0000 0.94478  0.51163  0.47424  Biso   1.000  O
  C154     1.0000 0.94552  0.52349  0.52699  Biso   1.000  C
  C155     1.0000 0.91473  0.54010  0.54370  Biso   1.000  C
  C156     1.0000 0.88735  0.54280  0.50143  Biso   1.000  C
  H120     1.0000 0.88763  0.53367  0.46257  Biso   1.000  H
  C157     1.0000 0.85997  0.55867  0.51557  Biso   1.000  C
  H121     1.0000 0.84263  0.56087  0.48597  Biso   1.000  H
  C158     1.0000 0.85773  0.57156  0.57327  Biso   1.000  C
  C159     1.0000 0.88475  0.56779  0.61817  Biso   1.000  C
  H122     1.0000 0.88343  0.57527  0.65757  Biso   1.000  H
  C160     1.0000 0.91297  0.55272  0.60157  Biso   1.000  C
  H123     1.0000 0.93123  0.55107  0.63017  Biso   1.000  H
  C161     1.0000 0.82996  0.59091  0.59216  Biso   1.000  C
  C162     1.0000 0.84718  0.62719  0.62787  Biso   1.000  C
  H124     1.0000 0.87623  0.63917  0.64007  Biso   1.000  H
  H125     1.0000 0.72393  0.49277  0.59247  Biso   1.000  H
  H126     1.0000 0.75303  0.46147  0.49687  Biso   1.000  H
  O37      1.0000 0.63749  0.77975  0.90181  Biso   1.000  O
  O38      1.0000 0.61145  0.76649  0.80757  Biso   1.000  O
  C163     1.0000 0.61219  0.75537  0.86032  Biso   1.000  C
  C164     1.0000 0.58140  0.70797  0.87703  Biso   1.000  C
  C165     1.0000 0.55402  0.67789  0.83476  Biso   1.000  C
  H127     1.0000 0.55430  0.68730  0.79590  Biso   1.000  H
  C166     1.0000 0.52664  0.63464  0.84890  Biso   1.000  C
  H128     1.0000 0.50930  0.61510  0.81930  Biso   1.000  H
  C167     1.0000 0.52440  0.61951  0.90660  Biso   1.000  C
  C168     1.0000 0.55142  0.65030  0.95150  Biso   1.000  C
  H129     1.0000 0.55010  0.64150  0.99090  Biso   1.000  H
  C169     1.0000 0.57964  0.69359  0.93490  Biso   1.000  C
  H130     1.0000 0.59790  0.71350  0.96350  Biso   1.000  H
  C170     1.0000 0.49663  0.57239  0.92549  Biso   1.000  C
  C171     1.0000 0.51385  0.55333  0.96120  Biso   1.000  C
  H131     1.0000 0.54290  0.57040  0.97340  Biso   1.000  H
  H132     1.0000 0.39060  0.56450  0.92580  Biso   1.000  H
  H133     1.0000 0.41970  0.62490  0.83020  Biso   1.000  H
  O39      1.0000 0.30416  0.11308  0.23514  Biso   1.000  O
  O40      1.0000 0.27812  0.09982  0.14090  Biso   1.000  O
  C172     1.0000 0.27886  0.08870  0.19365  Biso   1.000  C
  C173     1.0000 0.24807  0.04130  0.21036  Biso   1.000  C
  C174     1.0000 0.22069  0.01122  0.16809  Biso   1.000  C
  H134     1.0000 0.22097  0.02063  0.12923  Biso   1.000  H
  C175     1.0000 0.19331  0.96797  0.18223  Biso   1.000  C
  H135     1.0000 0.17597  0.94843  0.15263  Biso   1.000  H
  C176     1.0000 0.19107  0.95284  0.23993  Biso   1.000  C
  C177     1.0000 0.21809  0.98363  0.28483  Biso   1.000  C
  H136     1.0000 0.21677  0.97483  0.32423  Biso   1.000  H
  C178     1.0000 0.24631  0.02692  0.26823  Biso   1.000  C
  H137     1.0000 0.26457  0.04683  0.29683  Biso   1.000  H
  C179     1.0000 0.16330  0.90572  0.25882  Biso   1.000  C
  C180     1.0000 0.18052  0.88666  0.29453  Biso   1.000  C
  H138     1.0000 0.20957  0.90373  0.30673  Biso   1.000  H
  H139     1.0000 0.05727  0.89783  0.25913  Biso   1.000  H
  H140     1.0000 0.08637  0.95823  0.16353  Biso   1.000  H
  O41      1.0000 0.97082  0.44642  0.56848  Biso   1.000  O
  O42      1.0000 0.94478  0.43316  0.47424  Biso   1.000  O
  C181     1.0000 0.94552  0.42204  0.52699  Biso   1.000  C
  C182     1.0000 0.91473  0.37464  0.54370  Biso   1.000  C
  C183     1.0000 0.88735  0.34456  0.50143  Biso   1.000  C
  H141     1.0000 0.88763  0.35397  0.46257  Biso   1.000  H
  C184     1.0000 0.85997  0.30131  0.51557  Biso   1.000  C
  H142     1.0000 0.84263  0.28177  0.48597  Biso   1.000  H
  C185     1.0000 0.85773  0.28618  0.57327  Biso   1.000  C
  C186     1.0000 0.88475  0.31697  0.61817  Biso   1.000  C
  H143     1.0000 0.88343  0.30817  0.65757  Biso   1.000  H
  C187     1.0000 0.91297  0.36026  0.60157  Biso   1.000  C
  H144     1.0000 0.93123  0.38017  0.63017  Biso   1.000  H
  C188     1.0000 0.82996  0.23906  0.59216  Biso   1.000  C
  C189     1.0000 0.84718  0.22000  0.62787  Biso   1.000  C
  H145     1.0000 0.87623  0.23707  0.64007  Biso   1.000  H
  H146     1.0000 0.72393  0.23117  0.59247  Biso   1.000  H
  H147     1.0000 0.75303  0.29157  0.49687  Biso   1.000  H
  O43      1.0000 0.22025  0.85774  0.90181  Biso   1.000  O
  O44      1.0000 0.23351  0.84496  0.80757  Biso   1.000  O
  C190     1.0000 0.24463  0.85682  0.86032  Biso   1.000  C
  C191     1.0000 0.29203  0.87343  0.87703  Biso   1.000  C
  C192     1.0000 0.32211  0.87613  0.83476  Biso   1.000  C
  H148     1.0000 0.31270  0.86700  0.79590  Biso   1.000  H
  C193     1.0000 0.36536  0.89200  0.84890  Biso   1.000  C
  H149     1.0000 0.38490  0.89420  0.81930  Biso   1.000  H
  C194     1.0000 0.38049  0.90489  0.90660  Biso   1.000  C
  C195     1.0000 0.34970  0.90112  0.95150  Biso   1.000  C
  H150     1.0000 0.35850  0.90860  0.99090  Biso   1.000  H
  C196     1.0000 0.30641  0.88605  0.93490  Biso   1.000  C
  H151     1.0000 0.28650  0.88440  0.96350  Biso   1.000  H
  C197     1.0000 0.42761  0.92424  0.92549  Biso   1.000  C
  C198     1.0000 0.44667  0.96052  0.96120  Biso   1.000  C
  H152     1.0000 0.42960  0.97250  0.97340  Biso   1.000  H
  H153     1.0000 0.43550  0.82610  0.92580  Biso   1.000  H
  H154     1.0000 0.37510  0.79480  0.83020  Biso   1.000  H
  O45      1.0000 0.88692  0.19107  0.23514  Biso   1.000  O
  O46      1.0000 0.90018  0.17829  0.14090  Biso   1.000  O
  C199     1.0000 0.91130  0.19015  0.19365  Biso   1.000  C
  C200     1.0000 0.95870  0.20676  0.21036  Biso   1.000  C
  C201     1.0000 0.98878  0.20946  0.16809  Biso   1.000  C
  H155     1.0000 0.97937  0.20033  0.12923  Biso   1.000  H
  C202     1.0000 0.03203  0.22533  0.18223  Biso   1.000  C
  H156     1.0000 0.05157  0.22753  0.15263  Biso   1.000  H
  C203     1.0000 0.04716  0.23822  0.23993  Biso   1.000  C
  C204     1.0000 0.01637  0.23445  0.28483  Biso   1.000  C
  H157     1.0000 0.02517  0.24193  0.32423  Biso   1.000  H
  C205     1.0000 0.97308  0.21938  0.26823  Biso   1.000  C
  H158     1.0000 0.95317  0.21773  0.29683  Biso   1.000  H
  C206     1.0000 0.09428  0.25757  0.25882  Biso   1.000  C
  C207     1.0000 0.11334  0.29385  0.29453  Biso   1.000  C
  H159     1.0000 0.09627  0.30583  0.30673  Biso   1.000  H
  H160     1.0000 0.10217  0.15943  0.25913  Biso   1.000  H
  H161     1.0000 0.04177  0.12813  0.16353  Biso   1.000  H
  O47      1.0000 0.55358  0.52441  0.56848  Biso   1.000  O
  O48      1.0000 0.56684  0.51163  0.47424  Biso   1.000  O
  C208     1.0000 0.57796  0.52349  0.52699  Biso   1.000  C
  C209     1.0000 0.62536  0.54010  0.54370  Biso   1.000  C
  C210     1.0000 0.65544  0.54280  0.50143  Biso   1.000  C
  H162     1.0000 0.64603  0.53367  0.46257  Biso   1.000  H
  C211     1.0000 0.69869  0.55867  0.51557  Biso   1.000  C
  H163     1.0000 0.71823  0.56087  0.48597  Biso   1.000  H
  C212     1.0000 0.71382  0.57156  0.57327  Biso   1.000  C
  C213     1.0000 0.68303  0.56779  0.61817  Biso   1.000  C
  H164     1.0000 0.69183  0.57527  0.65757  Biso   1.000  H
  C214     1.0000 0.63974  0.55272  0.60157  Biso   1.000  C
  H165     1.0000 0.61983  0.55107  0.63017  Biso   1.000  H
  C215     1.0000 0.76094  0.59091  0.59216  Biso   1.000  C
  C216     1.0000 0.78000  0.62719  0.62787  Biso   1.000  C
  H166     1.0000 0.76293  0.63917  0.64007  Biso   1.000  H
  H167     1.0000 0.76883  0.49277  0.59247  Biso   1.000  H
  H168     1.0000 0.70843  0.46147  0.49687  Biso   1.000  H
  O49      1.0000 0.14226  0.36251  0.90181  Biso   1.000  O
  O50      1.0000 0.15504  0.38855  0.80757  Biso   1.000  O
  C217     1.0000 0.14318  0.38781  0.86032  Biso   1.000  C
  C218     1.0000 0.12657  0.41860  0.87703  Biso   1.000  C
  C219     1.0000 0.12387  0.44598  0.83476  Biso   1.000  C
  H169     1.0000 0.13300  0.44570  0.79590  Biso   1.000  H
  C220     1.0000 0.10800  0.47336  0.84890  Biso   1.000  C
  H170     1.0000 0.10580  0.49070  0.81930  Biso   1.000  H
  C221     1.0000 0.09511  0.47560  0.90660  Biso   1.000  C
  C222     1.0000 0.09888  0.44858  0.95150  Biso   1.000  C
  H171     1.0000 0.09140  0.44990  0.99090  Biso   1.000  H
  C223     1.0000 0.11395  0.42036  0.93490  Biso   1.000  C
  H172     1.0000 0.11560  0.40210  0.96350  Biso   1.000  H
  C224     1.0000 0.07576  0.50337  0.92549  Biso   1.000  C
  C225     1.0000 0.03948  0.48615  0.96120  Biso   1.000  C
  H173     1.0000 0.02750  0.45710  0.97340  Biso   1.000  H
  H174     1.0000 0.17390  0.60940  0.92580  Biso   1.000  H
  H175     1.0000 0.20520  0.58030  0.83020  Biso   1.000  H
  O51      1.0000 0.80893  0.69584  0.23514  Biso   1.000  O
  O52      1.0000 0.82171  0.72188  0.14090  Biso   1.000  O
  C226     1.0000 0.80985  0.72114  0.19365  Biso   1.000  C
  C227     1.0000 0.79324  0.75193  0.21036  Biso   1.000  C
  C228     1.0000 0.79054  0.77931  0.16809  Biso   1.000  C
  H176     1.0000 0.79967  0.77903  0.12923  Biso   1.000  H
  C229     1.0000 0.77467  0.80669  0.18223  Biso   1.000  C
  H177     1.0000 0.77247  0.82403  0.15263  Biso   1.000  H
  C230     1.0000 0.76178  0.80893  0.23993  Biso   1.000  C
  C231     1.0000 0.76555  0.78191  0.28483  Biso   1.000  C
  H178     1.0000 0.75807  0.78323  0.32423  Biso   1.000  H
  C232     1.0000 0.78062  0.75369  0.26823  Biso   1.000  C
  H179     1.0000 0.78227  0.73543  0.29683  Biso   1.000  H
  C233     1.0000 0.74243  0.83670  0.25882  Biso   1.000  C
  C234     1.0000 0.70615  0.81948  0.29453  Biso   1.000  C
  H180     1.0000 0.69417  0.79043  0.30673  Biso   1.000  H
  H181     1.0000 0.84057  0.94273  0.25913  Biso   1.000  H
  H182     1.0000 0.87187  0.91363  0.16353  Biso   1.000  H
  O53      1.0000 0.47559  0.02918  0.56848  Biso   1.000  O
  O54      1.0000 0.48837  0.05522  0.47424  Biso   1.000  O
  C235     1.0000 0.47651  0.05448  0.52699  Biso   1.000  C
  C236     1.0000 0.45990  0.08527  0.54370  Biso   1.000  C
  C237     1.0000 0.45720  0.11265  0.50143  Biso   1.000  C
  H183     1.0000 0.46633  0.11237  0.46257  Biso   1.000  H
  C238     1.0000 0.44133  0.14003  0.51557  Biso   1.000  C
  H184     1.0000 0.43913  0.15737  0.48597  Biso   1.000  H
  C239     1.0000 0.42844  0.14227  0.57327  Biso   1.000  C
  C240     1.0000 0.43221  0.11525  0.61817  Biso   1.000  C
  H185     1.0000 0.42473  0.11657  0.65757  Biso   1.000  H
  C241     1.0000 0.44728  0.08703  0.60157  Biso   1.000  C
  H186     1.0000 0.44893  0.06877  0.63017  Biso   1.000  H
  C242     1.0000 0.40909  0.17004  0.59216  Biso   1.000  C
  C243     1.0000 0.37281  0.15282  0.62787  Biso   1.000  C
  H187     1.0000 0.36083  0.12377  0.64007  Biso   1.000  H
  H188     1.0000 0.50723  0.27607  0.59247  Biso   1.000  H
  H189     1.0000 0.53853  0.24697  0.49687  Biso   1.000  H
  O55      1.0000 0.77975  0.63749  0.09819  Biso   1.000  O
  O56      1.0000 0.76649  0.61145  0.19243  Biso   1.000  O
  C244     1.0000 0.75537  0.61219  0.13968  Biso   1.000  C
  C245     1.0000 0.70797  0.58140  0.12297  Biso   1.000  C
  C246     1.0000 0.67789  0.55402  0.16524  Biso   1.000  C
  H190     1.0000 0.68730  0.55430  0.20410  Biso   1.000  H
  C247     1.0000 0.63464  0.52664  0.15110  Biso   1.000  C
  H191     1.0000 0.61510  0.50930  0.18070  Biso   1.000  H
  C248     1.0000 0.61951  0.52440  0.09340  Biso   1.000  C
  C249     1.0000 0.65030  0.55142  0.04850  Biso   1.000  C
  H192     1.0000 0.64150  0.55010  0.00910  Biso   1.000  H
  C250     1.0000 0.69359  0.57964  0.06510  Biso   1.000  C
  H193     1.0000 0.71350  0.59790  0.03650  Biso   1.000  H
  C251     1.0000 0.57239  0.49663  0.07451  Biso   1.000  C
  C252     1.0000 0.55333  0.51385  0.03880  Biso   1.000  C
  H194     1.0000 0.57040  0.54290  0.02660  Biso   1.000  H
  H195     1.0000 0.56450  0.39060  0.07420  Biso   1.000  H
  H196     1.0000 0.62490  0.41970  0.16980  Biso   1.000  H
  O57      1.0000 0.44642  0.97082  0.43152  Biso   1.000  O
  O58      1.0000 0.43316  0.94478  0.52576  Biso   1.000  O
  C253     1.0000 0.42204  0.94552  0.47301  Biso   1.000  C
  C254     1.0000 0.37464  0.91473  0.45630  Biso   1.000  C
  C255     1.0000 0.34456  0.88735  0.49857  Biso   1.000  C
  H197     1.0000 0.35397  0.88763  0.53743  Biso   1.000  H
  C256     1.0000 0.30131  0.85997  0.48443  Biso   1.000  C
  H198     1.0000 0.28177  0.84263  0.51403  Biso   1.000  H
  C257     1.0000 0.28618  0.85773  0.42673  Biso   1.000  C
  C258     1.0000 0.31697  0.88475  0.38183  Biso   1.000  C
  H199     1.0000 0.30817  0.88343  0.34243  Biso   1.000  H
  C259     1.0000 0.36026  0.91297  0.39843  Biso   1.000  C
  H200     1.0000 0.38017  0.93123  0.36983  Biso   1.000  H
  C260     1.0000 0.23906  0.82996  0.40784  Biso   1.000  C
  C261     1.0000 0.22000  0.84718  0.37213  Biso   1.000  C
  H201     1.0000 0.23707  0.87623  0.35993  Biso   1.000  H
  H202     1.0000 0.23117  0.72393  0.40753  Biso   1.000  H
  H203     1.0000 0.29157  0.75303  0.50313  Biso   1.000  H
  O59      1.0000 0.11308  0.30416  0.76486  Biso   1.000  O
  O60      1.0000 0.09982  0.27812  0.85910  Biso   1.000  O
  C262     1.0000 0.08870  0.27886  0.80635  Biso   1.000  C
  C263     1.0000 0.04130  0.24807  0.78964  Biso   1.000  C
  C264     1.0000 0.01122  0.22069  0.83191  Biso   1.000  C
  H204     1.0000 0.02063  0.22097  0.87077  Biso   1.000  H
  C265     1.0000 0.96797  0.19331  0.81777  Biso   1.000  C
  H205     1.0000 0.94843  0.17597  0.84737  Biso   1.000  H
  C266     1.0000 0.95284  0.19107  0.76007  Biso   1.000  C
  C267     1.0000 0.98363  0.21809  0.71517  Biso   1.000  C
  H206     1.0000 0.97483  0.21677  0.67577  Biso   1.000  H
  C268     1.0000 0.02692  0.24631  0.73177  Biso   1.000  C
  H207     1.0000 0.04683  0.26457  0.70317  Biso   1.000  H
  C269     1.0000 0.90572  0.16330  0.74118  Biso   1.000  C
  C270     1.0000 0.88666  0.18052  0.70547  Biso   1.000  C
  H208     1.0000 0.90373  0.20957  0.69327  Biso   1.000  H
  H209     1.0000 0.89783  0.05727  0.74087  Biso   1.000  H
  H210     1.0000 0.95823  0.08637  0.83647  Biso   1.000  H
  O61      1.0000 0.85774  0.22025  0.09819  Biso   1.000  O
  O62      1.0000 0.84496  0.23351  0.19243  Biso   1.000  O
  C271     1.0000 0.85682  0.24463  0.13968  Biso   1.000  C
  C272     1.0000 0.87343  0.29203  0.12297  Biso   1.000  C
  C273     1.0000 0.87613  0.32211  0.16524  Biso   1.000  C
  H211     1.0000 0.86700  0.31270  0.20410  Biso   1.000  H
  C274     1.0000 0.89200  0.36536  0.15110  Biso   1.000  C
  H212     1.0000 0.89420  0.38490  0.18070  Biso   1.000  H
  C275     1.0000 0.90489  0.38049  0.09340  Biso   1.000  C
  C276     1.0000 0.90112  0.34970  0.04850  Biso   1.000  C
  H213     1.0000 0.90860  0.35850  0.00910  Biso   1.000  H
  C277     1.0000 0.88605  0.30641  0.06510  Biso   1.000  C
  H214     1.0000 0.88440  0.28650  0.03650  Biso   1.000  H
  C278     1.0000 0.92424  0.42761  0.07451  Biso   1.000  C
  C279     1.0000 0.96052  0.44667  0.03880  Biso   1.000  C
  H215     1.0000 0.97250  0.42960  0.02660  Biso   1.000  H
  H216     1.0000 0.82610  0.43550  0.07420  Biso   1.000  H
  H217     1.0000 0.79480  0.37510  0.16980  Biso   1.000  H
  O63      1.0000 0.52441  0.55358  0.43152  Biso   1.000  O
  O64      1.0000 0.51163  0.56684  0.52576  Biso   1.000  O
  C280     1.0000 0.52349  0.57796  0.47301  Biso   1.000  C
  C281     1.0000 0.54010  0.62536  0.45630  Biso   1.000  C
  C282     1.0000 0.54280  0.65544  0.49857  Biso   1.000  C
  H218     1.0000 0.53367  0.64603  0.53743  Biso   1.000  H
  C283     1.0000 0.55867  0.69869  0.48443  Biso   1.000  C
  H219     1.0000 0.56087  0.71823  0.51403  Biso   1.000  H
  C284     1.0000 0.57156  0.71382  0.42673  Biso   1.000  C
  C285     1.0000 0.56779  0.68303  0.38183  Biso   1.000  C
  H220     1.0000 0.57527  0.69183  0.34243  Biso   1.000  H
  C286     1.0000 0.55272  0.63974  0.39843  Biso   1.000  C
  H221     1.0000 0.55107  0.61983  0.36983  Biso   1.000  H
  C287     1.0000 0.59091  0.76094  0.40784  Biso   1.000  C
  C288     1.0000 0.62719  0.78000  0.37213  Biso   1.000  C
  H222     1.0000 0.63917  0.76293  0.35993  Biso   1.000  H
  H223     1.0000 0.49277  0.76883  0.40753  Biso   1.000  H
  H224     1.0000 0.46147  0.70843  0.50313  Biso   1.000  H
  O65      1.0000 0.19107  0.88692  0.76486  Biso   1.000  O
  O66      1.0000 0.17829  0.90018  0.85910  Biso   1.000  O
  C289     1.0000 0.19015  0.91130  0.80635  Biso   1.000  C
  C290     1.0000 0.20676  0.95870  0.78964  Biso   1.000  C
  C291     1.0000 0.20946  0.98878  0.83191  Biso   1.000  C
  H225     1.0000 0.20033  0.97937  0.87077  Biso   1.000  H
  C292     1.0000 0.22533  0.03203  0.81777  Biso   1.000  C
  H226     1.0000 0.22753  0.05157  0.84737  Biso   1.000  H
  C293     1.0000 0.23822  0.04716  0.76007  Biso   1.000  C
  C294     1.0000 0.23445  0.01637  0.71517  Biso   1.000  C
  H227     1.0000 0.24193  0.02517  0.67577  Biso   1.000  H
  C295     1.0000 0.21938  0.97308  0.73177  Biso   1.000  C
  H228     1.0000 0.21773  0.95317  0.70317  Biso   1.000  H
  C296     1.0000 0.25757  0.09428  0.74118  Biso   1.000  C
  C297     1.0000 0.29385  0.11334  0.70547  Biso   1.000  C
  H229     1.0000 0.30583  0.09627  0.69327  Biso   1.000  H
  H230     1.0000 0.15943  0.10217  0.74087  Biso   1.000  H
  H231     1.0000 0.12813  0.04177  0.83647  Biso   1.000  H
  O67      1.0000 0.36251  0.14226  0.09819  Biso   1.000  O
  O68      1.0000 0.38855  0.15504  0.19243  Biso   1.000  O
  C298     1.0000 0.38781  0.14318  0.13968  Biso   1.000  C
  C299     1.0000 0.41860  0.12657  0.12297  Biso   1.000  C
  C300     1.0000 0.44598  0.12387  0.16524  Biso   1.000  C
  H232     1.0000 0.44570  0.13300  0.20410  Biso   1.000  H
  C301     1.0000 0.47336  0.10800  0.15110  Biso   1.000  C
  H233     1.0000 0.49070  0.10580  0.18070  Biso   1.000  H
  C302     1.0000 0.47560  0.09511  0.09340  Biso   1.000  C
  C303     1.0000 0.44858  0.09888  0.04850  Biso   1.000  C
  H234     1.0000 0.44990  0.09140  0.00910  Biso   1.000  H
  C304     1.0000 0.42036  0.11395  0.06510  Biso   1.000  C
  H235     1.0000 0.40210  0.11560  0.03650  Biso   1.000  H
  C305     1.0000 0.50337  0.07576  0.07451  Biso   1.000  C
  C306     1.0000 0.48615  0.03948  0.03880  Biso   1.000  C
  H236     1.0000 0.45710  0.02750  0.02660  Biso   1.000  H
  H237     1.0000 0.60940  0.17390  0.07420  Biso   1.000  H
  H238     1.0000 0.58030  0.20520  0.16980  Biso   1.000  H
  O69      1.0000 0.02918  0.47559  0.43152  Biso   1.000  O
  O70      1.0000 0.05522  0.48837  0.52576  Biso   1.000  O
  C307     1.0000 0.05448  0.47651  0.47301  Biso   1.000  C
  C308     1.0000 0.08527  0.45990  0.45630  Biso   1.000  C
  C309     1.0000 0.11265  0.45720  0.49857  Biso   1.000  C
  H239     1.0000 0.11237  0.46633  0.53743  Biso   1.000  H
  C310     1.0000 0.14003  0.44133  0.48443  Biso   1.000  C
  H240     1.0000 0.15737  0.43913  0.51403  Biso   1.000  H
  C311     1.0000 0.14227  0.42844  0.42673  Biso   1.000  C
  C312     1.0000 0.11525  0.43221  0.38183  Biso   1.000  C
  H241     1.0000 0.11657  0.42473  0.34243  Biso   1.000  H
  C313     1.0000 0.08703  0.44728  0.39843  Biso   1.000  C
  H242     1.0000 0.06877  0.44893  0.36983  Biso   1.000  H
  C314     1.0000 0.17004  0.40909  0.40784  Biso   1.000  C
  C315     1.0000 0.15282  0.37281  0.37213  Biso   1.000  C
  H243     1.0000 0.12377  0.36083  0.35993  Biso   1.000  H
  H244     1.0000 0.27607  0.50723  0.40753  Biso   1.000  H
  H245     1.0000 0.24697  0.53853  0.50313  Biso   1.000  H
  O71      1.0000 0.69584  0.80893  0.76486  Biso   1.000  O
  O72      1.0000 0.72188  0.82171  0.85910  Biso   1.000  O
  C316     1.0000 0.72114  0.80985  0.80635  Biso   1.000  C
  C317     1.0000 0.75193  0.79324  0.78964  Biso   1.000  C
  C318     1.0000 0.77931  0.79054  0.83191  Biso   1.000  C
  H246     1.0000 0.77903  0.79967  0.87077  Biso   1.000  H
  C319     1.0000 0.80669  0.77467  0.81777  Biso   1.000  C
  H247     1.0000 0.82403  0.77247  0.84737  Biso   1.000  H
  C320     1.0000 0.80893  0.76178  0.76007  Biso   1.000  C
  C321     1.0000 0.78191  0.76555  0.71517  Biso   1.000  C
  H248     1.0000 0.78323  0.75807  0.67577  Biso   1.000  H
  C322     1.0000 0.75369  0.78062  0.73177  Biso   1.000  C
  H249     1.0000 0.73543  0.78227  0.70317  Biso   1.000  H
  C323     1.0000 0.83670  0.74243  0.74118  Biso   1.000  C
  C324     1.0000 0.81948  0.70615  0.70547  Biso   1.000  C
  H250     1.0000 0.79043  0.69417  0.69327  Biso   1.000  H
  H251     1.0000 0.94273  0.84057  0.74087  Biso   1.000  H
  H252     1.0000 0.91363  0.87187  0.83647  Biso   1.000  H
  Cu1      1.0000 0.31816  0.15908  0.11261  Biso   1.000  Cu
  Cu2      1.0000 0.98483  0.49241  0.44594  Biso   1.000  Cu
  Cu3      1.0000 0.65149  0.82575  0.77928  Biso   1.000  Cu
  Cu4      1.0000 0.84092  0.15908  0.11261  Biso   1.000  Cu
  Cu5      1.0000 0.50759  0.49241  0.44594  Biso   1.000  Cu
  Cu6      1.0000 0.17425  0.82575  0.77928  Biso   1.000  Cu
  Cu7      1.0000 0.84092  0.68184  0.11261  Biso   1.000  Cu
  Cu8      1.0000 0.50759  0.01517  0.44594  Biso   1.000  Cu
  Cu9      1.0000 0.17425  0.34851  0.77928  Biso   1.000  Cu
  Cu10     1.0000 0.15908  0.31816  0.88739  Biso   1.000  Cu
  Cu11     1.0000 0.82575  0.65149  0.22072  Biso   1.000  Cu
  Cu12     1.0000 0.49241  0.98483  0.55406  Biso   1.000  Cu
  Cu13     1.0000 0.15908  0.84092  0.88739  Biso   1.000  Cu
  Cu14     1.0000 0.82575  0.17425  0.22072  Biso   1.000  Cu
  Cu15     1.0000 0.49241  0.50759  0.55406  Biso   1.000  Cu
  Cu16     1.0000 0.68184  0.84092  0.88739  Biso   1.000  Cu
  Cu17     1.0000 0.34851  0.17425  0.22072  Biso   1.000  Cu
  Cu18     1.0000 0.01517  0.50759  0.55406  Biso   1.000  Cu
  O73      1.0000 0.56496  0.43504  0.13260  Biso   1.000  O
  C325     1.0000 0.50960  0.49040  0.01940  Biso   1.000  C
  C326     1.0000 0.54712  0.45288  0.09470  Biso   1.000  C
  C327     1.0000 0.58589  0.41411  0.09930  Biso   1.000  C
  C328     1.0000 0.60385  0.39615  0.14540  Biso   1.000  C
  H253     1.0000 0.61790  0.38210  0.12580  Biso   1.000  H
  O74      1.0000 0.23163  0.76837  0.46593  Biso   1.000  O
  C329     1.0000 0.17627  0.82373  0.35273  Biso   1.000  C
  C330     1.0000 0.21379  0.78621  0.42803  Biso   1.000  C
  C331     1.0000 0.25256  0.74744  0.43263  Biso   1.000  C
  C332     1.0000 0.27052  0.72948  0.47873  Biso   1.000  C
  H254     1.0000 0.28457  0.71543  0.45913  Biso   1.000  H
  O75      1.0000 0.89829  0.10171  0.79927  Biso   1.000  O
  C333     1.0000 0.84293  0.15707  0.68607  Biso   1.000  C
  C334     1.0000 0.88045  0.11955  0.76137  Biso   1.000  C
  C335     1.0000 0.91922  0.08078  0.76597  Biso   1.000  C
  C336     1.0000 0.93718  0.06282  0.81207  Biso   1.000  C
  H255     1.0000 0.95123  0.04877  0.79247  Biso   1.000  H
  O76      1.0000 0.56496  0.12992  0.13260  Biso   1.000  O
  C337     1.0000 0.50960  0.01920  0.01940  Biso   1.000  C
  C338     1.0000 0.54712  0.09424  0.09470  Biso   1.000  C
  C339     1.0000 0.58589  0.17178  0.09930  Biso   1.000  C
  C340     1.0000 0.60385  0.20770  0.14540  Biso   1.000  C
  H256     1.0000 0.61790  0.23580  0.12580  Biso   1.000  H
  O77      1.0000 0.23163  0.46325  0.46593  Biso   1.000  O
  C341     1.0000 0.17627  0.35253  0.35273  Biso   1.000  C
  C342     1.0000 0.21379  0.42757  0.42803  Biso   1.000  C
  C343     1.0000 0.25256  0.50511  0.43263  Biso   1.000  C
  C344     1.0000 0.27052  0.54103  0.47873  Biso   1.000  C
  H257     1.0000 0.28457  0.56913  0.45913  Biso   1.000  H
  O78      1.0000 0.89829  0.79659  0.79927  Biso   1.000  O
  C345     1.0000 0.84293  0.68587  0.68607  Biso   1.000  C
  C346     1.0000 0.88045  0.76091  0.76137  Biso   1.000  C
  C347     1.0000 0.91922  0.83845  0.76597  Biso   1.000  C
  C348     1.0000 0.93718  0.87437  0.81207  Biso   1.000  C
  H258     1.0000 0.95123  0.90247  0.79247  Biso   1.000  H
  O79      1.0000 0.87008  0.43504  0.13260  Biso   1.000  O
  C349     1.0000 0.98080  0.49040  0.01940  Biso   1.000  C
  C350     1.0000 0.90576  0.45288  0.09470  Biso   1.000  C
  C351     1.0000 0.82822  0.41411  0.09930  Biso   1.000  C
  C352     1.0000 0.79230  0.39615  0.14540  Biso   1.000  C
  H259     1.0000 0.76420  0.38210  0.12580  Biso   1.000  H
  O80      1.0000 0.53675  0.76837  0.46593  Biso   1.000  O
  C353     1.0000 0.64747  0.82373  0.35273  Biso   1.000  C
  C354     1.0000 0.57243  0.78621  0.42803  Biso   1.000  C
  C355     1.0000 0.49489  0.74744  0.43263  Biso   1.000  C
  C356     1.0000 0.45897  0.72948  0.47873  Biso   1.000  C
  H260     1.0000 0.43087  0.71543  0.45913  Biso   1.000  H
  O81      1.0000 0.20341  0.10171  0.79927  Biso   1.000  O
  C357     1.0000 0.31413  0.15707  0.68607  Biso   1.000  C
  C358     1.0000 0.23909  0.11955  0.76137  Biso   1.000  C
  C359     1.0000 0.16155  0.08078  0.76597  Biso   1.000  C
  C360     1.0000 0.12563  0.06282  0.81207  Biso   1.000  C
  H261     1.0000 0.09753  0.04877  0.79247  Biso   1.000  H
  O82      1.0000 0.43504  0.56496  0.86740  Biso   1.000  O
  C361     1.0000 0.49040  0.50960  0.98060  Biso   1.000  C
  C362     1.0000 0.45288  0.54712  0.90530  Biso   1.000  C
  C363     1.0000 0.41411  0.58589  0.90070  Biso   1.000  C
  C364     1.0000 0.39615  0.60385  0.85460  Biso   1.000  C
  H262     1.0000 0.38210  0.61790  0.87420  Biso   1.000  H
  O83      1.0000 0.10171  0.89829  0.20073  Biso   1.000  O
  C365     1.0000 0.15707  0.84293  0.31393  Biso   1.000  C
  C366     1.0000 0.11955  0.88045  0.23863  Biso   1.000  C
  C367     1.0000 0.08078  0.91922  0.23403  Biso   1.000  C
  C368     1.0000 0.06282  0.93718  0.18793  Biso   1.000  C
  H263     1.0000 0.04877  0.95123  0.20753  Biso   1.000  H
  O84      1.0000 0.76837  0.23163  0.53407  Biso   1.000  O
  C369     1.0000 0.82373  0.17627  0.64727  Biso   1.000  C
  C370     1.0000 0.78621  0.21379  0.57197  Biso   1.000  C
  C371     1.0000 0.74744  0.25256  0.56737  Biso   1.000  C
  C372     1.0000 0.72948  0.27052  0.52127  Biso   1.000  C
  H264     1.0000 0.71543  0.28457  0.54087  Biso   1.000  H
  O85      1.0000 0.12992  0.56496  0.86740  Biso   1.000  O
  C373     1.0000 0.01920  0.50960  0.98060  Biso   1.000  C
  C374     1.0000 0.09424  0.54712  0.90530  Biso   1.000  C
  C375     1.0000 0.17178  0.58589  0.90070  Biso   1.000  C
  C376     1.0000 0.20770  0.60385  0.85460  Biso   1.000  C
  H265     1.0000 0.23580  0.61790  0.87420  Biso   1.000  H
  O86      1.0000 0.79659  0.89829  0.20073  Biso   1.000  O
  C377     1.0000 0.68587  0.84293  0.31393  Biso   1.000  C
  C378     1.0000 0.76091  0.88045  0.23863  Biso   1.000  C
  C379     1.0000 0.83845  0.91922  0.23403  Biso   1.000  C
  C380     1.0000 0.87437  0.93718  0.18793  Biso   1.000  C
  H266     1.0000 0.90247  0.95123  0.20753  Biso   1.000  H
  O87      1.0000 0.46325  0.23163  0.53407  Biso   1.000  O
  C381     1.0000 0.35253  0.17627  0.64727  Biso   1.000  C
  C382     1.0000 0.42757  0.21379  0.57197  Biso   1.000  C
  C383     1.0000 0.50511  0.25256  0.56737  Biso   1.000  C
  C384     1.0000 0.54103  0.27052  0.52127  Biso   1.000  C
  H267     1.0000 0.56913  0.28457  0.54087  Biso   1.000  H
  O88      1.0000 0.43504  0.87008  0.86740  Biso   1.000  O
  C385     1.0000 0.49040  0.98080  0.98060  Biso   1.000  C
  C386     1.0000 0.45288  0.90576  0.90530  Biso   1.000  C
  C387     1.0000 0.41411  0.82822  0.90070  Biso   1.000  C
  C388     1.0000 0.39615  0.79230  0.85460  Biso   1.000  C
  H268     1.0000 0.38210  0.76420  0.87420  Biso   1.000  H
  O89      1.0000 0.10171  0.20341  0.20073  Biso   1.000  O
  C389     1.0000 0.15707  0.31413  0.31393  Biso   1.000  C
  C390     1.0000 0.11955  0.23909  0.23863  Biso   1.000  C
  C391     1.0000 0.08078  0.16155  0.23403  Biso   1.000  C
  C392     1.0000 0.06282  0.12563  0.18793  Biso   1.000  C
  H269     1.0000 0.04877  0.09753  0.20753  Biso   1.000  H
  O90      1.0000 0.76837  0.53675  0.53407  Biso   1.000  O
  C393     1.0000 0.82373  0.64747  0.64727  Biso   1.000  C
  C394     1.0000 0.78621  0.57243  0.57197  Biso   1.000  C
  C395     1.0000 0.74744  0.49489  0.56737  Biso   1.000  C
  C396     1.0000 0.72948  0.45897  0.52127  Biso   1.000  C
  H270     1.0000 0.71543  0.43087  0.54087  Biso   1.000  H
