data_image0
_cell_length_a       34.893
_cell_length_b       34.893
_cell_length_c       23.892
_cell_angle_alpha    90
_cell_angle_beta     90
_cell_angle_gamma    120

_symmetry_space_group_name_H-M    "P 1"
_symmetry_int_tables_number       1

loop_
  _symmetry_equiv_pos_as_xyz
  'x, y, z'

loop_
  _atom_site_label
  _atom_site_occupancy
  _atom_site_fract_x
  _atom_site_fract_y
  _atom_site_fract_z
  _atom_site_thermal_displace_type
  _atom_site_B_iso_or_equiv
  _atom_site_type_symbol
  O1       1.0000 0.55312  0.02699  0.06595  Biso   1.000  O
  O2       1.0000 0.56806  0.05661  0.97946  Biso   1.000  O
  C1       1.0000 0.57821  0.05406  0.02860  Biso   1.000  C
  C2       1.0000 0.62510  0.08490  0.04650  Biso   1.000  C
  C3       1.0000 0.65670  0.11351  0.00760  Biso   1.000  C
  H1       1.0000 0.64840  0.11310  0.97050  Biso   1.000  H
  C4       1.0000 0.69892  0.14160  0.02320  Biso   1.000  C
  H2       1.0000 0.71890  0.16130  0.99720  Biso   1.000  H
  C5       1.0000 0.71316  0.14128  0.07890  Biso   1.000  C
  C6       1.0000 0.68172  0.11308  0.11660  Biso   1.000  C
  H3       1.0000 0.69010  0.11320  0.15360  Biso   1.000  H
  C7       1.0000 0.63839  0.08473  0.10150  Biso   1.000  C
  H4       1.0000 0.61820  0.06560  0.12780  Biso   1.000  H
  C8       1.0000 0.75962  0.16999  0.09770  Biso   1.000  C
  C9       1.0000 0.77978  0.15236  0.13070  Biso   1.000  C
  H5       1.0000 0.76330  0.12280  0.14130  Biso   1.000  H
  H6       1.0000 0.72200  0.23240  0.10930  Biso   1.000  H
  H7       1.0000 0.75430  0.29060  0.01690  Biso   1.000  H
  O3       1.0000 0.21979  0.36032  0.39928  Biso   1.000  O
  O4       1.0000 0.23473  0.38994  0.31279  Biso   1.000  O
  C10      1.0000 0.24488  0.38739  0.36193  Biso   1.000  C
  C11      1.0000 0.29177  0.41823  0.37983  Biso   1.000  C
  C12      1.0000 0.32337  0.44684  0.34093  Biso   1.000  C
  H8       1.0000 0.31507  0.44643  0.30383  Biso   1.000  H
  C13      1.0000 0.36559  0.47493  0.35653  Biso   1.000  C
  H9       1.0000 0.38557  0.49463  0.33053  Biso   1.000  H
  C14      1.0000 0.37983  0.47461  0.41223  Biso   1.000  C
  C15      1.0000 0.34839  0.44641  0.44993  Biso   1.000  C
  H10      1.0000 0.35677  0.44653  0.48693  Biso   1.000  H
  C16      1.0000 0.30506  0.41806  0.43483  Biso   1.000  C
  H11      1.0000 0.28487  0.39893  0.46113  Biso   1.000  H
  C17      1.0000 0.42629  0.50332  0.43103  Biso   1.000  C
  C18      1.0000 0.44645  0.48569  0.46403  Biso   1.000  C
  H12      1.0000 0.42997  0.45613  0.47463  Biso   1.000  H
  H13      1.0000 0.38867  0.56573  0.44263  Biso   1.000  H
  H14      1.0000 0.42097  0.62393  0.35023  Biso   1.000  H
  O5       1.0000 0.88645  0.69366  0.73262  Biso   1.000  O
  O6       1.0000 0.90139  0.72328  0.64613  Biso   1.000  O
  C19      1.0000 0.91154  0.72073  0.69527  Biso   1.000  C
  C20      1.0000 0.95843  0.75157  0.71317  Biso   1.000  C
  C21      1.0000 0.99003  0.78018  0.67427  Biso   1.000  C
  H15      1.0000 0.98173  0.77977  0.63717  Biso   1.000  H
  C22      1.0000 0.03225  0.80827  0.68987  Biso   1.000  C
  H16      1.0000 0.05223  0.82797  0.66387  Biso   1.000  H
  C23      1.0000 0.04649  0.80795  0.74557  Biso   1.000  C
  C24      1.0000 0.01505  0.77975  0.78327  Biso   1.000  C
  H17      1.0000 0.02343  0.77987  0.82027  Biso   1.000  H
  C25      1.0000 0.97172  0.75140  0.76817  Biso   1.000  C
  H18      1.0000 0.95153  0.73227  0.79447  Biso   1.000  H
  C26      1.0000 0.09295  0.83666  0.76437  Biso   1.000  C
  C27      1.0000 0.11311  0.81903  0.79737  Biso   1.000  C
  H19      1.0000 0.09663  0.78947  0.80797  Biso   1.000  H
  H20      1.0000 0.05533  0.89907  0.77597  Biso   1.000  H
  H21      1.0000 0.08763  0.95727  0.68357  Biso   1.000  H
  O7       1.0000 0.97301  0.52613  0.06595  Biso   1.000  O
  O8       1.0000 0.94339  0.51145  0.97946  Biso   1.000  O
  C28      1.0000 0.94594  0.52415  0.02860  Biso   1.000  C
  C29      1.0000 0.91510  0.54020  0.04650  Biso   1.000  C
  C30      1.0000 0.88649  0.54319  0.00760  Biso   1.000  C
  H22      1.0000 0.88690  0.53530  0.97050  Biso   1.000  H
  C31      1.0000 0.85840  0.55732  0.02320  Biso   1.000  C
  H23      1.0000 0.83870  0.55760  0.99720  Biso   1.000  H
  C32      1.0000 0.85872  0.57188  0.07890  Biso   1.000  C
  C33      1.0000 0.88692  0.56864  0.11660  Biso   1.000  C
  H24      1.0000 0.88680  0.57690  0.15360  Biso   1.000  H
  C34      1.0000 0.91527  0.55366  0.10150  Biso   1.000  C
  H25      1.0000 0.93440  0.55260  0.12780  Biso   1.000  H
  C35      1.0000 0.83001  0.58963  0.09770  Biso   1.000  C
  C36      1.0000 0.84764  0.62742  0.13070  Biso   1.000  C
  H26      1.0000 0.87720  0.64050  0.14130  Biso   1.000  H
  H27      1.0000 0.76760  0.48960  0.10930  Biso   1.000  H
  H28      1.0000 0.70940  0.46370  0.01690  Biso   1.000  H
  O9       1.0000 0.63968  0.85946  0.39928  Biso   1.000  O
  O10      1.0000 0.61006  0.84478  0.31279  Biso   1.000  O
  C37      1.0000 0.61261  0.85748  0.36193  Biso   1.000  C
  C38      1.0000 0.58177  0.87353  0.37983  Biso   1.000  C
  C39      1.0000 0.55316  0.87652  0.34093  Biso   1.000  C
  H29      1.0000 0.55357  0.86863  0.30383  Biso   1.000  H
  C40      1.0000 0.52507  0.89065  0.35653  Biso   1.000  C
  H30      1.0000 0.50537  0.89093  0.33053  Biso   1.000  H
  C41      1.0000 0.52539  0.90521  0.41223  Biso   1.000  C
  C42      1.0000 0.55359  0.90197  0.44993  Biso   1.000  C
  H31      1.0000 0.55347  0.91023  0.48693  Biso   1.000  H
  C43      1.0000 0.58194  0.88699  0.43483  Biso   1.000  C
  H32      1.0000 0.60107  0.88593  0.46113  Biso   1.000  H
  C44      1.0000 0.49668  0.92296  0.43103  Biso   1.000  C
  C45      1.0000 0.51431  0.96075  0.46403  Biso   1.000  C
  H33      1.0000 0.54387  0.97383  0.47463  Biso   1.000  H
  H34      1.0000 0.43427  0.82293  0.44263  Biso   1.000  H
  H35      1.0000 0.37607  0.79703  0.35023  Biso   1.000  H
  O11      1.0000 0.30634  0.19280  0.73262  Biso   1.000  O
  O12      1.0000 0.27672  0.17812  0.64613  Biso   1.000  O
  C46      1.0000 0.27927  0.19082  0.69527  Biso   1.000  C
  C47      1.0000 0.24843  0.20687  0.71317  Biso   1.000  C
  C48      1.0000 0.21982  0.20986  0.67427  Biso   1.000  C
  H36      1.0000 0.22023  0.20197  0.63717  Biso   1.000  H
  C49      1.0000 0.19173  0.22399  0.68987  Biso   1.000  C
  H37      1.0000 0.17203  0.22427  0.66387  Biso   1.000  H
  C50      1.0000 0.19205  0.23855  0.74557  Biso   1.000  C
  C51      1.0000 0.22025  0.23531  0.78327  Biso   1.000  C
  H38      1.0000 0.22013  0.24357  0.82027  Biso   1.000  H
  C52      1.0000 0.24860  0.22033  0.76817  Biso   1.000  C
  H39      1.0000 0.26773  0.21927  0.79447  Biso   1.000  H
  C53      1.0000 0.16334  0.25630  0.76437  Biso   1.000  C
  C54      1.0000 0.18097  0.29409  0.79737  Biso   1.000  C
  H40      1.0000 0.21053  0.30717  0.80797  Biso   1.000  H
  H41      1.0000 0.10093  0.15627  0.77597  Biso   1.000  H
  H42      1.0000 0.04273  0.13037  0.68357  Biso   1.000  H
  O13      1.0000 0.47387  0.44688  0.06595  Biso   1.000  O
  O14      1.0000 0.48855  0.43194  0.97946  Biso   1.000  O
  C55      1.0000 0.47585  0.42179  0.02860  Biso   1.000  C
  C56      1.0000 0.45980  0.37490  0.04650  Biso   1.000  C
  C57      1.0000 0.45681  0.34330  0.00760  Biso   1.000  C
  H43      1.0000 0.46470  0.35160  0.97050  Biso   1.000  H
  C58      1.0000 0.44268  0.30108  0.02320  Biso   1.000  C
  H44      1.0000 0.44240  0.28110  0.99720  Biso   1.000  H
  C59      1.0000 0.42812  0.28684  0.07890  Biso   1.000  C
  C60      1.0000 0.43136  0.31828  0.11660  Biso   1.000  C
  H45      1.0000 0.42310  0.30990  0.15360  Biso   1.000  H
  C61      1.0000 0.44634  0.36161  0.10150  Biso   1.000  C
  H46      1.0000 0.44740  0.38180  0.12780  Biso   1.000  H
  C62      1.0000 0.41037  0.24038  0.09770  Biso   1.000  C
  C63      1.0000 0.37258  0.22022  0.13070  Biso   1.000  C
  H47      1.0000 0.35950  0.23670  0.14130  Biso   1.000  H
  H48      1.0000 0.51040  0.27800  0.10930  Biso   1.000  H
  H49      1.0000 0.53630  0.24570  0.01690  Biso   1.000  H
  O15      1.0000 0.14054  0.78021  0.39928  Biso   1.000  O
  O16      1.0000 0.15522  0.76527  0.31279  Biso   1.000  O
  C64      1.0000 0.14252  0.75512  0.36193  Biso   1.000  C
  C65      1.0000 0.12647  0.70823  0.37983  Biso   1.000  C
  C66      1.0000 0.12348  0.67663  0.34093  Biso   1.000  C
  H50      1.0000 0.13137  0.68493  0.30383  Biso   1.000  H
  C67      1.0000 0.10935  0.63441  0.35653  Biso   1.000  C
  H51      1.0000 0.10907  0.61443  0.33053  Biso   1.000  H
  C68      1.0000 0.09479  0.62017  0.41223  Biso   1.000  C
  C69      1.0000 0.09803  0.65161  0.44993  Biso   1.000  C
  H52      1.0000 0.08977  0.64323  0.48693  Biso   1.000  H
  C70      1.0000 0.11301  0.69494  0.43483  Biso   1.000  C
  H53      1.0000 0.11407  0.71513  0.46113  Biso   1.000  H
  C71      1.0000 0.07704  0.57371  0.43103  Biso   1.000  C
  C72      1.0000 0.03925  0.55355  0.46403  Biso   1.000  C
  H54      1.0000 0.02617  0.57003  0.47463  Biso   1.000  H
  H55      1.0000 0.17707  0.61133  0.44263  Biso   1.000  H
  H56      1.0000 0.20297  0.57903  0.35023  Biso   1.000  H
  O17      1.0000 0.80720  0.11355  0.73262  Biso   1.000  O
  O18      1.0000 0.82188  0.09861  0.64613  Biso   1.000  O
  C73      1.0000 0.80918  0.08846  0.69527  Biso   1.000  C
  C74      1.0000 0.79313  0.04157  0.71317  Biso   1.000  C
  C75      1.0000 0.79014  0.00997  0.67427  Biso   1.000  C
  H57      1.0000 0.79803  0.01827  0.63717  Biso   1.000  H
  C76      1.0000 0.77601  0.96775  0.68987  Biso   1.000  C
  H58      1.0000 0.77573  0.94777  0.66387  Biso   1.000  H
  C77      1.0000 0.76145  0.95351  0.74557  Biso   1.000  C
  C78      1.0000 0.76469  0.98495  0.78327  Biso   1.000  C
  H59      1.0000 0.75643  0.97657  0.82027  Biso   1.000  H
  C79      1.0000 0.77967  0.02828  0.76817  Biso   1.000  C
  H60      1.0000 0.78073  0.04847  0.79447  Biso   1.000  H
  C80      1.0000 0.74370  0.90705  0.76437  Biso   1.000  C
  C81      1.0000 0.70591  0.88689  0.79737  Biso   1.000  C
  H61      1.0000 0.69283  0.90337  0.80797  Biso   1.000  H
  H62      1.0000 0.84373  0.94467  0.77597  Biso   1.000  H
  H63      1.0000 0.86963  0.91237  0.68357  Biso   1.000  H
  O19      1.0000 0.02699  0.55312  0.93405  Biso   1.000  O
  O20      1.0000 0.05661  0.56806  0.02054  Biso   1.000  O
  C82      1.0000 0.05406  0.57821  0.97140  Biso   1.000  C
  C83      1.0000 0.08490  0.62510  0.95350  Biso   1.000  C
  C84      1.0000 0.11351  0.65670  0.99240  Biso   1.000  C
  H64      1.0000 0.11310  0.64840  0.02950  Biso   1.000  H
  C85      1.0000 0.14160  0.69892  0.97680  Biso   1.000  C
  H65      1.0000 0.16130  0.71890  0.00280  Biso   1.000  H
  C86      1.0000 0.14128  0.71316  0.92110  Biso   1.000  C
  C87      1.0000 0.11308  0.68172  0.88340  Biso   1.000  C
  H66      1.0000 0.11320  0.69010  0.84640  Biso   1.000  H
  C88      1.0000 0.08473  0.63839  0.89850  Biso   1.000  C
  H67      1.0000 0.06560  0.61820  0.87220  Biso   1.000  H
  C89      1.0000 0.16999  0.75962  0.90230  Biso   1.000  C
  C90      1.0000 0.15236  0.77978  0.86930  Biso   1.000  C
  H68      1.0000 0.12280  0.76330  0.85870  Biso   1.000  H
  H69      1.0000 0.23240  0.72200  0.89070  Biso   1.000  H
  H70      1.0000 0.29060  0.75430  0.98310  Biso   1.000  H
  O21      1.0000 0.69366  0.88645  0.26738  Biso   1.000  O
  O22      1.0000 0.72328  0.90139  0.35387  Biso   1.000  O
  C91      1.0000 0.72073  0.91154  0.30473  Biso   1.000  C
  C92      1.0000 0.75157  0.95843  0.28683  Biso   1.000  C
  C93      1.0000 0.78018  0.99003  0.32573  Biso   1.000  C
  H71      1.0000 0.77977  0.98173  0.36283  Biso   1.000  H
  C94      1.0000 0.80827  0.03225  0.31013  Biso   1.000  C
  H72      1.0000 0.82797  0.05223  0.33613  Biso   1.000  H
  C95      1.0000 0.80795  0.04649  0.25443  Biso   1.000  C
  C96      1.0000 0.77975  0.01505  0.21673  Biso   1.000  C
  H73      1.0000 0.77987  0.02343  0.17973  Biso   1.000  H
  C97      1.0000 0.75140  0.97172  0.23183  Biso   1.000  C
  H74      1.0000 0.73227  0.95153  0.20553  Biso   1.000  H
  C98      1.0000 0.83666  0.09295  0.23563  Biso   1.000  C
  C99      1.0000 0.81903  0.11311  0.20263  Biso   1.000  C
  H75      1.0000 0.78947  0.09663  0.19203  Biso   1.000  H
  H76      1.0000 0.89907  0.05533  0.22403  Biso   1.000  H
  H77      1.0000 0.95727  0.08763  0.31643  Biso   1.000  H
  O23      1.0000 0.36032  0.21979  0.60072  Biso   1.000  O
  O24      1.0000 0.38994  0.23473  0.68721  Biso   1.000  O
  C100     1.0000 0.38739  0.24488  0.63807  Biso   1.000  C
  C101     1.0000 0.41823  0.29177  0.62017  Biso   1.000  C
  C102     1.0000 0.44684  0.32337  0.65907  Biso   1.000  C
  H78      1.0000 0.44643  0.31507  0.69617  Biso   1.000  H
  C103     1.0000 0.47493  0.36559  0.64347  Biso   1.000  C
  H79      1.0000 0.49463  0.38557  0.66947  Biso   1.000  H
  C104     1.0000 0.47461  0.37983  0.58777  Biso   1.000  C
  C105     1.0000 0.44641  0.34839  0.55007  Biso   1.000  C
  H80      1.0000 0.44653  0.35677  0.51307  Biso   1.000  H
  C106     1.0000 0.41806  0.30506  0.56517  Biso   1.000  C
  H81      1.0000 0.39893  0.28487  0.53887  Biso   1.000  H
  C107     1.0000 0.50332  0.42629  0.56897  Biso   1.000  C
  C108     1.0000 0.48569  0.44645  0.53597  Biso   1.000  C
  H82      1.0000 0.45613  0.42997  0.52537  Biso   1.000  H
  H83      1.0000 0.56573  0.38867  0.55737  Biso   1.000  H
  H84      1.0000 0.62393  0.42097  0.64977  Biso   1.000  H
  O25      1.0000 0.52613  0.97301  0.93405  Biso   1.000  O
  O26      1.0000 0.51145  0.94339  0.02054  Biso   1.000  O
  C109     1.0000 0.52415  0.94594  0.97140  Biso   1.000  C
  C110     1.0000 0.54020  0.91510  0.95350  Biso   1.000  C
  C111     1.0000 0.54319  0.88649  0.99240  Biso   1.000  C
  H85      1.0000 0.53530  0.88690  0.02950  Biso   1.000  H
  C112     1.0000 0.55732  0.85840  0.97680  Biso   1.000  C
  H86      1.0000 0.55760  0.83870  0.00280  Biso   1.000  H
  C113     1.0000 0.57188  0.85872  0.92110  Biso   1.000  C
  C114     1.0000 0.56864  0.88692  0.88340  Biso   1.000  C
  H87      1.0000 0.57690  0.88680  0.84640  Biso   1.000  H
  C115     1.0000 0.55366  0.91527  0.89850  Biso   1.000  C
  H88      1.0000 0.55260  0.93440  0.87220  Biso   1.000  H
  C116     1.0000 0.58963  0.83001  0.90230  Biso   1.000  C
  C117     1.0000 0.62742  0.84764  0.86930  Biso   1.000  C
  H89      1.0000 0.64050  0.87720  0.85870  Biso   1.000  H
  H90      1.0000 0.48960  0.76760  0.89070  Biso   1.000  H
  H91      1.0000 0.46370  0.70940  0.98310  Biso   1.000  H
  O27      1.0000 0.19280  0.30634  0.26738  Biso   1.000  O
  O28      1.0000 0.17812  0.27672  0.35387  Biso   1.000  O
  C118     1.0000 0.19082  0.27927  0.30473  Biso   1.000  C
  C119     1.0000 0.20687  0.24843  0.28683  Biso   1.000  C
  C120     1.0000 0.20986  0.21982  0.32573  Biso   1.000  C
  H92      1.0000 0.20197  0.22023  0.36283  Biso   1.000  H
  C121     1.0000 0.22399  0.19173  0.31013  Biso   1.000  C
  H93      1.0000 0.22427  0.17203  0.33613  Biso   1.000  H
  C122     1.0000 0.23855  0.19205  0.25443  Biso   1.000  C
  C123     1.0000 0.23531  0.22025  0.21673  Biso   1.000  C
  H94      1.0000 0.24357  0.22013  0.17973  Biso   1.000  H
  C124     1.0000 0.22033  0.24860  0.23183  Biso   1.000  C
  H95      1.0000 0.21927  0.26773  0.20553  Biso   1.000  H
  C125     1.0000 0.25630  0.16334  0.23563  Biso   1.000  C
  C126     1.0000 0.29409  0.18097  0.20263  Biso   1.000  C
  H96      1.0000 0.30717  0.21053  0.19203  Biso   1.000  H
  H97      1.0000 0.15627  0.10093  0.22403  Biso   1.000  H
  H98      1.0000 0.13037  0.04273  0.31643  Biso   1.000  H
  O29      1.0000 0.85946  0.63968  0.60072  Biso   1.000  O
  O30      1.0000 0.84478  0.61006  0.68721  Biso   1.000  O
  C127     1.0000 0.85748  0.61261  0.63807  Biso   1.000  C
  C128     1.0000 0.87353  0.58177  0.62017  Biso   1.000  C
  C129     1.0000 0.87652  0.55316  0.65907  Biso   1.000  C
  H99      1.0000 0.86863  0.55357  0.69617  Biso   1.000  H
  C130     1.0000 0.89065  0.52507  0.64347  Biso   1.000  C
  H100     1.0000 0.89093  0.50537  0.66947  Biso   1.000  H
  C131     1.0000 0.90521  0.52539  0.58777  Biso   1.000  C
  C132     1.0000 0.90197  0.55359  0.55007  Biso   1.000  C
  H101     1.0000 0.91023  0.55347  0.51307  Biso   1.000  H
  C133     1.0000 0.88699  0.58194  0.56517  Biso   1.000  C
  H102     1.0000 0.88593  0.60107  0.53887  Biso   1.000  H
  C134     1.0000 0.92296  0.49668  0.56897  Biso   1.000  C
  C135     1.0000 0.96075  0.51431  0.53597  Biso   1.000  C
  H103     1.0000 0.97383  0.54387  0.52537  Biso   1.000  H
  H104     1.0000 0.82293  0.43427  0.55737  Biso   1.000  H
  H105     1.0000 0.79703  0.37607  0.64977  Biso   1.000  H
  O31      1.0000 0.44688  0.47387  0.93405  Biso   1.000  O
  O32      1.0000 0.43194  0.48855  0.02054  Biso   1.000  O
  C136     1.0000 0.42179  0.47585  0.97140  Biso   1.000  C
  C137     1.0000 0.37490  0.45980  0.95350  Biso   1.000  C
  C138     1.0000 0.34330  0.45681  0.99240  Biso   1.000  C
  H106     1.0000 0.35160  0.46470  0.02950  Biso   1.000  H
  C139     1.0000 0.30108  0.44268  0.97680  Biso   1.000  C
  H107     1.0000 0.28110  0.44240  0.00280  Biso   1.000  H
  C140     1.0000 0.28684  0.42812  0.92110  Biso   1.000  C
  C141     1.0000 0.31828  0.43136  0.88340  Biso   1.000  C
  H108     1.0000 0.30990  0.42310  0.84640  Biso   1.000  H
  C142     1.0000 0.36161  0.44634  0.89850  Biso   1.000  C
  H109     1.0000 0.38180  0.44740  0.87220  Biso   1.000  H
  C143     1.0000 0.24038  0.41037  0.90230  Biso   1.000  C
  C144     1.0000 0.22022  0.37258  0.86930  Biso   1.000  C
  H110     1.0000 0.23670  0.35950  0.85870  Biso   1.000  H
  H111     1.0000 0.27800  0.51040  0.89070  Biso   1.000  H
  H112     1.0000 0.24570  0.53630  0.98310  Biso   1.000  H
  O33      1.0000 0.11355  0.80720  0.26738  Biso   1.000  O
  O34      1.0000 0.09861  0.82188  0.35387  Biso   1.000  O
  C145     1.0000 0.08846  0.80918  0.30473  Biso   1.000  C
  C146     1.0000 0.04157  0.79313  0.28683  Biso   1.000  C
  C147     1.0000 0.00997  0.79014  0.32573  Biso   1.000  C
  H113     1.0000 0.01827  0.79803  0.36283  Biso   1.000  H
  C148     1.0000 0.96775  0.77601  0.31013  Biso   1.000  C
  H114     1.0000 0.94777  0.77573  0.33613  Biso   1.000  H
  C149     1.0000 0.95351  0.76145  0.25443  Biso   1.000  C
  C150     1.0000 0.98495  0.76469  0.21673  Biso   1.000  C
  H115     1.0000 0.97657  0.75643  0.17973  Biso   1.000  H
  C151     1.0000 0.02828  0.77967  0.23183  Biso   1.000  C
  H116     1.0000 0.04847  0.78073  0.20553  Biso   1.000  H
  C152     1.0000 0.90705  0.74370  0.23563  Biso   1.000  C
  C153     1.0000 0.88689  0.70591  0.20263  Biso   1.000  C
  H117     1.0000 0.90337  0.69283  0.19203  Biso   1.000  H
  H118     1.0000 0.94467  0.84373  0.22403  Biso   1.000  H
  H119     1.0000 0.91237  0.86963  0.31643  Biso   1.000  H
  O35      1.0000 0.78021  0.14054  0.60072  Biso   1.000  O
  O36      1.0000 0.76527  0.15522  0.68721  Biso   1.000  O
  C154     1.0000 0.75512  0.14252  0.63807  Biso   1.000  C
  C155     1.0000 0.70823  0.12647  0.62017  Biso   1.000  C
  C156     1.0000 0.67663  0.12348  0.65907  Biso   1.000  C
  H120     1.0000 0.68493  0.13137  0.69617  Biso   1.000  H
  C157     1.0000 0.63441  0.10935  0.64347  Biso   1.000  C
  H121     1.0000 0.61443  0.10907  0.66947  Biso   1.000  H
  C158     1.0000 0.62017  0.09479  0.58777  Biso   1.000  C
  C159     1.0000 0.65161  0.09803  0.55007  Biso   1.000  C
  H122     1.0000 0.64323  0.08977  0.51307  Biso   1.000  H
  C160     1.0000 0.69494  0.11301  0.56517  Biso   1.000  C
  H123     1.0000 0.71513  0.11407  0.53887  Biso   1.000  H
  C161     1.0000 0.57371  0.07704  0.56897  Biso   1.000  C
  C162     1.0000 0.55355  0.03925  0.53597  Biso   1.000  C
  H124     1.0000 0.57003  0.02617  0.52537  Biso   1.000  H
  H125     1.0000 0.61133  0.17707  0.55737  Biso   1.000  H
  H126     1.0000 0.57903  0.20297  0.64977  Biso   1.000  H
  O37      1.0000 0.44688  0.97301  0.93405  Biso   1.000  O
  O38      1.0000 0.43194  0.94339  0.02054  Biso   1.000  O
  C163     1.0000 0.42179  0.94594  0.97140  Biso   1.000  C
  C164     1.0000 0.37490  0.91510  0.95350  Biso   1.000  C
  C165     1.0000 0.34330  0.88649  0.99240  Biso   1.000  C
  H127     1.0000 0.35160  0.88690  0.02950  Biso   1.000  H
  C166     1.0000 0.30108  0.85840  0.97680  Biso   1.000  C
  H128     1.0000 0.28110  0.83870  0.00280  Biso   1.000  H
  C167     1.0000 0.28684  0.85872  0.92110  Biso   1.000  C
  C168     1.0000 0.31828  0.88692  0.88340  Biso   1.000  C
  H129     1.0000 0.30990  0.88680  0.84640  Biso   1.000  H
  C169     1.0000 0.36161  0.91527  0.89850  Biso   1.000  C
  H130     1.0000 0.38180  0.93440  0.87220  Biso   1.000  H
  C170     1.0000 0.24038  0.83001  0.90230  Biso   1.000  C
  C171     1.0000 0.22022  0.84764  0.86930  Biso   1.000  C
  H131     1.0000 0.23670  0.87720  0.85870  Biso   1.000  H
  H132     1.0000 0.27800  0.76760  0.89070  Biso   1.000  H
  H133     1.0000 0.24570  0.70940  0.98310  Biso   1.000  H
  O39      1.0000 0.11355  0.30634  0.26738  Biso   1.000  O
  O40      1.0000 0.09861  0.27672  0.35387  Biso   1.000  O
  C172     1.0000 0.08846  0.27927  0.30473  Biso   1.000  C
  C173     1.0000 0.04157  0.24843  0.28683  Biso   1.000  C
  C174     1.0000 0.00997  0.21982  0.32573  Biso   1.000  C
  H134     1.0000 0.01827  0.22023  0.36283  Biso   1.000  H
  C175     1.0000 0.96775  0.19173  0.31013  Biso   1.000  C
  H135     1.0000 0.94777  0.17203  0.33613  Biso   1.000  H
  C176     1.0000 0.95351  0.19205  0.25443  Biso   1.000  C
  C177     1.0000 0.98495  0.22025  0.21673  Biso   1.000  C
  H136     1.0000 0.97657  0.22013  0.17973  Biso   1.000  H
  C178     1.0000 0.02828  0.24860  0.23183  Biso   1.000  C
  H137     1.0000 0.04847  0.26773  0.20553  Biso   1.000  H
  C179     1.0000 0.90705  0.16334  0.23563  Biso   1.000  C
  C180     1.0000 0.88689  0.18097  0.20263  Biso   1.000  C
  H138     1.0000 0.90337  0.21053  0.19203  Biso   1.000  H
  H139     1.0000 0.94467  0.10093  0.22403  Biso   1.000  H
  H140     1.0000 0.91237  0.04273  0.31643  Biso   1.000  H
  O41      1.0000 0.78021  0.63968  0.60072  Biso   1.000  O
  O42      1.0000 0.76527  0.61006  0.68721  Biso   1.000  O
  C181     1.0000 0.75512  0.61261  0.63807  Biso   1.000  C
  C182     1.0000 0.70823  0.58177  0.62017  Biso   1.000  C
  C183     1.0000 0.67663  0.55316  0.65907  Biso   1.000  C
  H141     1.0000 0.68493  0.55357  0.69617  Biso   1.000  H
  C184     1.0000 0.63441  0.52507  0.64347  Biso   1.000  C
  H142     1.0000 0.61443  0.50537  0.66947  Biso   1.000  H
  C185     1.0000 0.62017  0.52539  0.58777  Biso   1.000  C
  C186     1.0000 0.65161  0.55359  0.55007  Biso   1.000  C
  H143     1.0000 0.64323  0.55347  0.51307  Biso   1.000  H
  C187     1.0000 0.69494  0.58194  0.56517  Biso   1.000  C
  H144     1.0000 0.71513  0.60107  0.53887  Biso   1.000  H
  C188     1.0000 0.57371  0.49668  0.56897  Biso   1.000  C
  C189     1.0000 0.55355  0.51431  0.53597  Biso   1.000  C
  H145     1.0000 0.57003  0.54387  0.52537  Biso   1.000  H
  H146     1.0000 0.61133  0.43427  0.55737  Biso   1.000  H
  H147     1.0000 0.57903  0.37607  0.64977  Biso   1.000  H
  O43      1.0000 0.02699  0.47387  0.93405  Biso   1.000  O
  O44      1.0000 0.05661  0.48855  0.02054  Biso   1.000  O
  C190     1.0000 0.05406  0.47585  0.97140  Biso   1.000  C
  C191     1.0000 0.08490  0.45980  0.95350  Biso   1.000  C
  C192     1.0000 0.11351  0.45681  0.99240  Biso   1.000  C
  H148     1.0000 0.11310  0.46470  0.02950  Biso   1.000  H
  C193     1.0000 0.14160  0.44268  0.97680  Biso   1.000  C
  H149     1.0000 0.16130  0.44240  0.00280  Biso   1.000  H
  C194     1.0000 0.14128  0.42812  0.92110  Biso   1.000  C
  C195     1.0000 0.11308  0.43136  0.88340  Biso   1.000  C
  H150     1.0000 0.11320  0.42310  0.84640  Biso   1.000  H
  C196     1.0000 0.08473  0.44634  0.89850  Biso   1.000  C
  H151     1.0000 0.06560  0.44740  0.87220  Biso   1.000  H
  C197     1.0000 0.16999  0.41037  0.90230  Biso   1.000  C
  C198     1.0000 0.15236  0.37258  0.86930  Biso   1.000  C
  H152     1.0000 0.12280  0.35950  0.85870  Biso   1.000  H
  H153     1.0000 0.23240  0.51040  0.89070  Biso   1.000  H
  H154     1.0000 0.29060  0.53630  0.98310  Biso   1.000  H
  O45      1.0000 0.69366  0.80720  0.26738  Biso   1.000  O
  O46      1.0000 0.72328  0.82188  0.35387  Biso   1.000  O
  C199     1.0000 0.72073  0.80918  0.30473  Biso   1.000  C
  C200     1.0000 0.75157  0.79313  0.28683  Biso   1.000  C
  C201     1.0000 0.78018  0.79014  0.32573  Biso   1.000  C
  H155     1.0000 0.77977  0.79803  0.36283  Biso   1.000  H
  C202     1.0000 0.80827  0.77601  0.31013  Biso   1.000  C
  H156     1.0000 0.82797  0.77573  0.33613  Biso   1.000  H
  C203     1.0000 0.80795  0.76145  0.25443  Biso   1.000  C
  C204     1.0000 0.77975  0.76469  0.21673  Biso   1.000  C
  H157     1.0000 0.77987  0.75643  0.17973  Biso   1.000  H
  C205     1.0000 0.75140  0.77967  0.23183  Biso   1.000  C
  H158     1.0000 0.73227  0.78073  0.20553  Biso   1.000  H
  C206     1.0000 0.83666  0.74370  0.23563  Biso   1.000  C
  C207     1.0000 0.81903  0.70591  0.20263  Biso   1.000  C
  H159     1.0000 0.78947  0.69283  0.19203  Biso   1.000  H
  H160     1.0000 0.89907  0.84373  0.22403  Biso   1.000  H
  H161     1.0000 0.95727  0.86963  0.31643  Biso   1.000  H
  O47      1.0000 0.36032  0.14054  0.60072  Biso   1.000  O
  O48      1.0000 0.38994  0.15522  0.68721  Biso   1.000  O
  C208     1.0000 0.38739  0.14252  0.63807  Biso   1.000  C
  C209     1.0000 0.41823  0.12647  0.62017  Biso   1.000  C
  C210     1.0000 0.44684  0.12348  0.65907  Biso   1.000  C
  H162     1.0000 0.44643  0.13137  0.69617  Biso   1.000  H
  C211     1.0000 0.47493  0.10935  0.64347  Biso   1.000  C
  H163     1.0000 0.49463  0.10907  0.66947  Biso   1.000  H
  C212     1.0000 0.47461  0.09479  0.58777  Biso   1.000  C
  C213     1.0000 0.44641  0.09803  0.55007  Biso   1.000  C
  H164     1.0000 0.44653  0.08977  0.51307  Biso   1.000  H
  C214     1.0000 0.41806  0.11301  0.56517  Biso   1.000  C
  H165     1.0000 0.39893  0.11407  0.53887  Biso   1.000  H
  C215     1.0000 0.50332  0.07704  0.56897  Biso   1.000  C
  C216     1.0000 0.48569  0.03925  0.53597  Biso   1.000  C
  H166     1.0000 0.45613  0.02617  0.52537  Biso   1.000  H
  H167     1.0000 0.56573  0.17707  0.55737  Biso   1.000  H
  H168     1.0000 0.62393  0.20297  0.64977  Biso   1.000  H
  O49      1.0000 0.52613  0.55312  0.93405  Biso   1.000  O
  O50      1.0000 0.51145  0.56806  0.02054  Biso   1.000  O
  C217     1.0000 0.52415  0.57821  0.97140  Biso   1.000  C
  C218     1.0000 0.54020  0.62510  0.95350  Biso   1.000  C
  C219     1.0000 0.54319  0.65670  0.99240  Biso   1.000  C
  H169     1.0000 0.53530  0.64840  0.02950  Biso   1.000  H
  C220     1.0000 0.55732  0.69892  0.97680  Biso   1.000  C
  H170     1.0000 0.55760  0.71890  0.00280  Biso   1.000  H
  C221     1.0000 0.57188  0.71316  0.92110  Biso   1.000  C
  C222     1.0000 0.56864  0.68172  0.88340  Biso   1.000  C
  H171     1.0000 0.57690  0.69010  0.84640  Biso   1.000  H
  C223     1.0000 0.55366  0.63839  0.89850  Biso   1.000  C
  H172     1.0000 0.55260  0.61820  0.87220  Biso   1.000  H
  C224     1.0000 0.58963  0.75962  0.90230  Biso   1.000  C
  C225     1.0000 0.62742  0.77978  0.86930  Biso   1.000  C
  H173     1.0000 0.64050  0.76330  0.85870  Biso   1.000  H
  H174     1.0000 0.48960  0.72200  0.89070  Biso   1.000  H
  H175     1.0000 0.46370  0.75430  0.98310  Biso   1.000  H
  O51      1.0000 0.19280  0.88645  0.26738  Biso   1.000  O
  O52      1.0000 0.17812  0.90139  0.35387  Biso   1.000  O
  C226     1.0000 0.19082  0.91154  0.30473  Biso   1.000  C
  C227     1.0000 0.20687  0.95843  0.28683  Biso   1.000  C
  C228     1.0000 0.20986  0.99003  0.32573  Biso   1.000  C
  H176     1.0000 0.20197  0.98173  0.36283  Biso   1.000  H
  C229     1.0000 0.22399  0.03225  0.31013  Biso   1.000  C
  H177     1.0000 0.22427  0.05223  0.33613  Biso   1.000  H
  C230     1.0000 0.23855  0.04649  0.25443  Biso   1.000  C
  C231     1.0000 0.23531  0.01505  0.21673  Biso   1.000  C
  H178     1.0000 0.24357  0.02343  0.17973  Biso   1.000  H
  C232     1.0000 0.22033  0.97172  0.23183  Biso   1.000  C
  H179     1.0000 0.21927  0.95153  0.20553  Biso   1.000  H
  C233     1.0000 0.25630  0.09295  0.23563  Biso   1.000  C
  C234     1.0000 0.29409  0.11311  0.20263  Biso   1.000  C
  H180     1.0000 0.30717  0.09663  0.19203  Biso   1.000  H
  H181     1.0000 0.15627  0.05533  0.22403  Biso   1.000  H
  H182     1.0000 0.13037  0.08763  0.31643  Biso   1.000  H
  O53      1.0000 0.85946  0.21979  0.60072  Biso   1.000  O
  O54      1.0000 0.84478  0.23473  0.68721  Biso   1.000  O
  C235     1.0000 0.85748  0.24488  0.63807  Biso   1.000  C
  C236     1.0000 0.87353  0.29177  0.62017  Biso   1.000  C
  C237     1.0000 0.87652  0.32337  0.65907  Biso   1.000  C
  H183     1.0000 0.86863  0.31507  0.69617  Biso   1.000  H
  C238     1.0000 0.89065  0.36559  0.64347  Biso   1.000  C
  H184     1.0000 0.89093  0.38557  0.66947  Biso   1.000  H
  C239     1.0000 0.90521  0.37983  0.58777  Biso   1.000  C
  C240     1.0000 0.90197  0.34839  0.55007  Biso   1.000  C
  H185     1.0000 0.91023  0.35677  0.51307  Biso   1.000  H
  C241     1.0000 0.88699  0.30506  0.56517  Biso   1.000  C
  H186     1.0000 0.88593  0.28487  0.53887  Biso   1.000  H
  C242     1.0000 0.92296  0.42629  0.56897  Biso   1.000  C
  C243     1.0000 0.96075  0.44645  0.53597  Biso   1.000  C
  H187     1.0000 0.97383  0.42997  0.52537  Biso   1.000  H
  H188     1.0000 0.82293  0.38867  0.55737  Biso   1.000  H
  H189     1.0000 0.79703  0.42097  0.64977  Biso   1.000  H
  O55      1.0000 0.97301  0.44688  0.06595  Biso   1.000  O
  O56      1.0000 0.94339  0.43194  0.97946  Biso   1.000  O
  C244     1.0000 0.94594  0.42179  0.02860  Biso   1.000  C
  C245     1.0000 0.91510  0.37490  0.04650  Biso   1.000  C
  C246     1.0000 0.88649  0.34330  0.00760  Biso   1.000  C
  H190     1.0000 0.88690  0.35160  0.97050  Biso   1.000  H
  C247     1.0000 0.85840  0.30108  0.02320  Biso   1.000  C
  H191     1.0000 0.83870  0.28110  0.99720  Biso   1.000  H
  C248     1.0000 0.85872  0.28684  0.07890  Biso   1.000  C
  C249     1.0000 0.88692  0.31828  0.11660  Biso   1.000  C
  H192     1.0000 0.88680  0.30990  0.15360  Biso   1.000  H
  C250     1.0000 0.91527  0.36161  0.10150  Biso   1.000  C
  H193     1.0000 0.93440  0.38180  0.12780  Biso   1.000  H
  C251     1.0000 0.83001  0.24038  0.09770  Biso   1.000  C
  C252     1.0000 0.84764  0.22022  0.13070  Biso   1.000  C
  H194     1.0000 0.87720  0.23670  0.14130  Biso   1.000  H
  H195     1.0000 0.76760  0.27800  0.10930  Biso   1.000  H
  H196     1.0000 0.70940  0.24570  0.01690  Biso   1.000  H
  O57      1.0000 0.63968  0.78021  0.39928  Biso   1.000  O
  O58      1.0000 0.61006  0.76527  0.31279  Biso   1.000  O
  C253     1.0000 0.61261  0.75512  0.36193  Biso   1.000  C
  C254     1.0000 0.58177  0.70823  0.37983  Biso   1.000  C
  C255     1.0000 0.55316  0.67663  0.34093  Biso   1.000  C
  H197     1.0000 0.55357  0.68493  0.30383  Biso   1.000  H
  C256     1.0000 0.52507  0.63441  0.35653  Biso   1.000  C
  H198     1.0000 0.50537  0.61443  0.33053  Biso   1.000  H
  C257     1.0000 0.52539  0.62017  0.41223  Biso   1.000  C
  C258     1.0000 0.55359  0.65161  0.44993  Biso   1.000  C
  H199     1.0000 0.55347  0.64323  0.48693  Biso   1.000  H
  C259     1.0000 0.58194  0.69494  0.43483  Biso   1.000  C
  H200     1.0000 0.60107  0.71513  0.46113  Biso   1.000  H
  C260     1.0000 0.49668  0.57371  0.43103  Biso   1.000  C
  C261     1.0000 0.51431  0.55355  0.46403  Biso   1.000  C
  H201     1.0000 0.54387  0.57003  0.47463  Biso   1.000  H
  H202     1.0000 0.43427  0.61133  0.44263  Biso   1.000  H
  H203     1.0000 0.37607  0.57903  0.35023  Biso   1.000  H
  O59      1.0000 0.30634  0.11355  0.73262  Biso   1.000  O
  O60      1.0000 0.27672  0.09861  0.64613  Biso   1.000  O
  C262     1.0000 0.27927  0.08846  0.69527  Biso   1.000  C
  C263     1.0000 0.24843  0.04157  0.71317  Biso   1.000  C
  C264     1.0000 0.21982  0.00997  0.67427  Biso   1.000  C
  H204     1.0000 0.22023  0.01827  0.63717  Biso   1.000  H
  C265     1.0000 0.19173  0.96775  0.68987  Biso   1.000  C
  H205     1.0000 0.17203  0.94777  0.66387  Biso   1.000  H
  C266     1.0000 0.19205  0.95351  0.74557  Biso   1.000  C
  C267     1.0000 0.22025  0.98495  0.78327  Biso   1.000  C
  H206     1.0000 0.22013  0.97657  0.82027  Biso   1.000  H
  C268     1.0000 0.24860  0.02828  0.76817  Biso   1.000  C
  H207     1.0000 0.26773  0.04847  0.79447  Biso   1.000  H
  C269     1.0000 0.16334  0.90705  0.76437  Biso   1.000  C
  C270     1.0000 0.18097  0.88689  0.79737  Biso   1.000  C
  H208     1.0000 0.21053  0.90337  0.80797  Biso   1.000  H
  H209     1.0000 0.10093  0.94467  0.77597  Biso   1.000  H
  H210     1.0000 0.04273  0.91237  0.68357  Biso   1.000  H
  O61      1.0000 0.47387  0.02699  0.06595  Biso   1.000  O
  O62      1.0000 0.48855  0.05661  0.97946  Biso   1.000  O
  C271     1.0000 0.47585  0.05406  0.02860  Biso   1.000  C
  C272     1.0000 0.45980  0.08490  0.04650  Biso   1.000  C
  C273     1.0000 0.45681  0.11351  0.00760  Biso   1.000  C
  H211     1.0000 0.46470  0.11310  0.97050  Biso   1.000  H
  C274     1.0000 0.44268  0.14160  0.02320  Biso   1.000  C
  H212     1.0000 0.44240  0.16130  0.99720  Biso   1.000  H
  C275     1.0000 0.42812  0.14128  0.07890  Biso   1.000  C
  C276     1.0000 0.43136  0.11308  0.11660  Biso   1.000  C
  H213     1.0000 0.42310  0.11320  0.15360  Biso   1.000  H
  C277     1.0000 0.44634  0.08473  0.10150  Biso   1.000  C
  H214     1.0000 0.44740  0.06560  0.12780  Biso   1.000  H
  C278     1.0000 0.41037  0.16999  0.09770  Biso   1.000  C
  C279     1.0000 0.37258  0.15236  0.13070  Biso   1.000  C
  H215     1.0000 0.35950  0.12280  0.14130  Biso   1.000  H
  H216     1.0000 0.51040  0.23240  0.10930  Biso   1.000  H
  H217     1.0000 0.53630  0.29060  0.01690  Biso   1.000  H
  O63      1.0000 0.14054  0.36032  0.39928  Biso   1.000  O
  O64      1.0000 0.15522  0.38994  0.31279  Biso   1.000  O
  C280     1.0000 0.14252  0.38739  0.36193  Biso   1.000  C
  C281     1.0000 0.12647  0.41823  0.37983  Biso   1.000  C
  C282     1.0000 0.12348  0.44684  0.34093  Biso   1.000  C
  H218     1.0000 0.13137  0.44643  0.30383  Biso   1.000  H
  C283     1.0000 0.10935  0.47493  0.35653  Biso   1.000  C
  H219     1.0000 0.10907  0.49463  0.33053  Biso   1.000  H
  C284     1.0000 0.09479  0.47461  0.41223  Biso   1.000  C
  C285     1.0000 0.09803  0.44641  0.44993  Biso   1.000  C
  H220     1.0000 0.08977  0.44653  0.48693  Biso   1.000  H
  C286     1.0000 0.11301  0.41806  0.43483  Biso   1.000  C
  H221     1.0000 0.11407  0.39893  0.46113  Biso   1.000  H
  C287     1.0000 0.07704  0.50332  0.43103  Biso   1.000  C
  C288     1.0000 0.03925  0.48569  0.46403  Biso   1.000  C
  H222     1.0000 0.02617  0.45613  0.47463  Biso   1.000  H
  H223     1.0000 0.17707  0.56573  0.44263  Biso   1.000  H
  H224     1.0000 0.20297  0.62393  0.35023  Biso   1.000  H
  O65      1.0000 0.80720  0.69366  0.73262  Biso   1.000  O
  O66      1.0000 0.82188  0.72328  0.64613  Biso   1.000  O
  C289     1.0000 0.80918  0.72073  0.69527  Biso   1.000  C
  C290     1.0000 0.79313  0.75157  0.71317  Biso   1.000  C
  C291     1.0000 0.79014  0.78018  0.67427  Biso   1.000  C
  H225     1.0000 0.79803  0.77977  0.63717  Biso   1.000  H
  C292     1.0000 0.77601  0.80827  0.68987  Biso   1.000  C
  H226     1.0000 0.77573  0.82797  0.66387  Biso   1.000  H
  C293     1.0000 0.76145  0.80795  0.74557  Biso   1.000  C
  C294     1.0000 0.76469  0.77975  0.78327  Biso   1.000  C
  H227     1.0000 0.75643  0.77987  0.82027  Biso   1.000  H
  C295     1.0000 0.77967  0.75140  0.76817  Biso   1.000  C
  H228     1.0000 0.78073  0.73227  0.79447  Biso   1.000  H
  C296     1.0000 0.74370  0.83666  0.76437  Biso   1.000  C
  C297     1.0000 0.70591  0.81903  0.79737  Biso   1.000  C
  H229     1.0000 0.69283  0.78947  0.80797  Biso   1.000  H
  H230     1.0000 0.84373  0.89907  0.77597  Biso   1.000  H
  H231     1.0000 0.86963  0.95727  0.68357  Biso   1.000  H
  O67      1.0000 0.55312  0.52613  0.06595  Biso   1.000  O
  O68      1.0000 0.56806  0.51145  0.97946  Biso   1.000  O
  C298     1.0000 0.57821  0.52415  0.02860  Biso   1.000  C
  C299     1.0000 0.62510  0.54020  0.04650  Biso   1.000  C
  C300     1.0000 0.65670  0.54319  0.00760  Biso   1.000  C
  H232     1.0000 0.64840  0.53530  0.97050  Biso   1.000  H
  C301     1.0000 0.69892  0.55732  0.02320  Biso   1.000  C
  H233     1.0000 0.71890  0.55760  0.99720  Biso   1.000  H
  C302     1.0000 0.71316  0.57188  0.07890  Biso   1.000  C
  C303     1.0000 0.68172  0.56864  0.11660  Biso   1.000  C
  H234     1.0000 0.69010  0.57690  0.15360  Biso   1.000  H
  C304     1.0000 0.63839  0.55366  0.10150  Biso   1.000  C
  H235     1.0000 0.61820  0.55260  0.12780  Biso   1.000  H
  C305     1.0000 0.75962  0.58963  0.09770  Biso   1.000  C
  C306     1.0000 0.77978  0.62742  0.13070  Biso   1.000  C
  H236     1.0000 0.76330  0.64050  0.14130  Biso   1.000  H
  H237     1.0000 0.72200  0.48960  0.10930  Biso   1.000  H
  H238     1.0000 0.75430  0.46370  0.01690  Biso   1.000  H
  O69      1.0000 0.21979  0.85946  0.39928  Biso   1.000  O
  O70      1.0000 0.23473  0.84478  0.31279  Biso   1.000  O
  C307     1.0000 0.24488  0.85748  0.36193  Biso   1.000  C
  C308     1.0000 0.29177  0.87353  0.37983  Biso   1.000  C
  C309     1.0000 0.32337  0.87652  0.34093  Biso   1.000  C
  H239     1.0000 0.31507  0.86863  0.30383  Biso   1.000  H
  C310     1.0000 0.36559  0.89065  0.35653  Biso   1.000  C
  H240     1.0000 0.38557  0.89093  0.33053  Biso   1.000  H
  C311     1.0000 0.37983  0.90521  0.41223  Biso   1.000  C
  C312     1.0000 0.34839  0.90197  0.44993  Biso   1.000  C
  H241     1.0000 0.35677  0.91023  0.48693  Biso   1.000  H
  C313     1.0000 0.30506  0.88699  0.43483  Biso   1.000  C
  H242     1.0000 0.28487  0.88593  0.46113  Biso   1.000  H
  C314     1.0000 0.42629  0.92296  0.43103  Biso   1.000  C
  C315     1.0000 0.44645  0.96075  0.46403  Biso   1.000  C
  H243     1.0000 0.42997  0.97383  0.47463  Biso   1.000  H
  H244     1.0000 0.38867  0.82293  0.44263  Biso   1.000  H
  H245     1.0000 0.42097  0.79703  0.35023  Biso   1.000  H
  O71      1.0000 0.88645  0.19280  0.73262  Biso   1.000  O
  O72      1.0000 0.90139  0.17812  0.64613  Biso   1.000  O
  C316     1.0000 0.91154  0.19082  0.69527  Biso   1.000  C
  C317     1.0000 0.95843  0.20687  0.71317  Biso   1.000  C
  C318     1.0000 0.99003  0.20986  0.67427  Biso   1.000  C
  H246     1.0000 0.98173  0.20197  0.63717  Biso   1.000  H
  C319     1.0000 0.03225  0.22399  0.68987  Biso   1.000  C
  H247     1.0000 0.05223  0.22427  0.66387  Biso   1.000  H
  C320     1.0000 0.04649  0.23855  0.74557  Biso   1.000  C
  C321     1.0000 0.01505  0.23531  0.78327  Biso   1.000  C
  H248     1.0000 0.02343  0.24357  0.82027  Biso   1.000  H
  C322     1.0000 0.97172  0.22033  0.76817  Biso   1.000  C
  H249     1.0000 0.95153  0.21927  0.79447  Biso   1.000  H
  C323     1.0000 0.09295  0.25630  0.76437  Biso   1.000  C
  C324     1.0000 0.11311  0.29409  0.79737  Biso   1.000  C
  H250     1.0000 0.09663  0.30717  0.80797  Biso   1.000  H
  H251     1.0000 0.05533  0.15627  0.77597  Biso   1.000  H
  H252     1.0000 0.08763  0.13037  0.68357  Biso   1.000  H
  Cu1      1.0000 0.50866  0.01731  0.94927  Biso   1.000  Cu
  Cu2      1.0000 0.17532  0.35064  0.28260  Biso   1.000  Cu
  Cu3      1.0000 0.84199  0.68398  0.61594  Biso   1.000  Cu
  Cu4      1.0000 0.98269  0.49134  0.94927  Biso   1.000  Cu
  Cu5      1.0000 0.64936  0.82468  0.28260  Biso   1.000  Cu
  Cu6      1.0000 0.31602  0.15801  0.61594  Biso   1.000  Cu
  Cu7      1.0000 0.50866  0.49134  0.94927  Biso   1.000  Cu
  Cu8      1.0000 0.17532  0.82468  0.28260  Biso   1.000  Cu
  Cu9      1.0000 0.84199  0.15801  0.61594  Biso   1.000  Cu
  Cu10     1.0000 0.01731  0.50866  0.05073  Biso   1.000  Cu
  Cu11     1.0000 0.68398  0.84199  0.38406  Biso   1.000  Cu
  Cu12     1.0000 0.35064  0.17532  0.71740  Biso   1.000  Cu
  Cu13     1.0000 0.49134  0.98269  0.05073  Biso   1.000  Cu
  Cu14     1.0000 0.15801  0.31602  0.38406  Biso   1.000  Cu
  Cu15     1.0000 0.82468  0.64936  0.71740  Biso   1.000  Cu
  Cu16     1.0000 0.49134  0.50866  0.05073  Biso   1.000  Cu
  Cu17     1.0000 0.15801  0.84199  0.38406  Biso   1.000  Cu
  Cu18     1.0000 0.82468  0.17532  0.71740  Biso   1.000  Cu
  O73      1.0000 0.76652  0.23348  0.04530  Biso   1.000  O
  C325     1.0000 0.82336  0.17664  0.14870  Biso   1.000  C
  C326     1.0000 0.78590  0.21410  0.08070  Biso   1.000  C
  C327     1.0000 0.74571  0.25429  0.08620  Biso   1.000  C
  C328     1.0000 0.72970  0.27030  0.03940  Biso   1.000  C
  H253     1.0000 0.71490  0.28510  0.05410  Biso   1.000  H
  O74      1.0000 0.43319  0.56681  0.37863  Biso   1.000  O
  C329     1.0000 0.49003  0.50997  0.48203  Biso   1.000  C
  C330     1.0000 0.45257  0.54743  0.41403  Biso   1.000  C
  C331     1.0000 0.41238  0.58762  0.41953  Biso   1.000  C
  C332     1.0000 0.39637  0.60363  0.37273  Biso   1.000  C
  H254     1.0000 0.38157  0.61843  0.38743  Biso   1.000  H
  O75      1.0000 0.09985  0.90015  0.71197  Biso   1.000  O
  C333     1.0000 0.15669  0.84331  0.81537  Biso   1.000  C
  C334     1.0000 0.11923  0.88077  0.74737  Biso   1.000  C
  C335     1.0000 0.07904  0.92096  0.75287  Biso   1.000  C
  C336     1.0000 0.06303  0.93697  0.70607  Biso   1.000  C
  H255     1.0000 0.04823  0.95177  0.72077  Biso   1.000  H
  O76      1.0000 0.76652  0.53304  0.04530  Biso   1.000  O
  C337     1.0000 0.82336  0.64672  0.14870  Biso   1.000  C
  C338     1.0000 0.78590  0.57180  0.08070  Biso   1.000  C
  C339     1.0000 0.74571  0.49142  0.08620  Biso   1.000  C
  C340     1.0000 0.72970  0.45940  0.03940  Biso   1.000  C
  H256     1.0000 0.71490  0.42980  0.05410  Biso   1.000  H
  O77      1.0000 0.43319  0.86637  0.37863  Biso   1.000  O
  C341     1.0000 0.49003  0.98005  0.48203  Biso   1.000  C
  C342     1.0000 0.45257  0.90513  0.41403  Biso   1.000  C
  C343     1.0000 0.41238  0.82475  0.41953  Biso   1.000  C
  C344     1.0000 0.39637  0.79273  0.37273  Biso   1.000  C
  H257     1.0000 0.38157  0.76313  0.38743  Biso   1.000  H
  O78      1.0000 0.09985  0.19971  0.71197  Biso   1.000  O
  C345     1.0000 0.15669  0.31339  0.81537  Biso   1.000  C
  C346     1.0000 0.11923  0.23847  0.74737  Biso   1.000  C
  C347     1.0000 0.07904  0.15809  0.75287  Biso   1.000  C
  C348     1.0000 0.06303  0.12607  0.70607  Biso   1.000  C
  H258     1.0000 0.04823  0.09647  0.72077  Biso   1.000  H
  O79      1.0000 0.46696  0.23348  0.04530  Biso   1.000  O
  C349     1.0000 0.35328  0.17664  0.14870  Biso   1.000  C
  C350     1.0000 0.42820  0.21410  0.08070  Biso   1.000  C
  C351     1.0000 0.50858  0.25429  0.08620  Biso   1.000  C
  C352     1.0000 0.54060  0.27030  0.03940  Biso   1.000  C
  H259     1.0000 0.57020  0.28510  0.05410  Biso   1.000  H
  O80      1.0000 0.13363  0.56681  0.37863  Biso   1.000  O
  C353     1.0000 0.01995  0.50997  0.48203  Biso   1.000  C
  C354     1.0000 0.09487  0.54743  0.41403  Biso   1.000  C
  C355     1.0000 0.17525  0.58762  0.41953  Biso   1.000  C
  C356     1.0000 0.20727  0.60363  0.37273  Biso   1.000  C
  H260     1.0000 0.23687  0.61843  0.38743  Biso   1.000  H
  O81      1.0000 0.80029  0.90015  0.71197  Biso   1.000  O
  C357     1.0000 0.68661  0.84331  0.81537  Biso   1.000  C
  C358     1.0000 0.76153  0.88077  0.74737  Biso   1.000  C
  C359     1.0000 0.84191  0.92096  0.75287  Biso   1.000  C
  C360     1.0000 0.87393  0.93697  0.70607  Biso   1.000  C
  H261     1.0000 0.90353  0.95177  0.72077  Biso   1.000  H
  O82      1.0000 0.23348  0.76652  0.95470  Biso   1.000  O
  C361     1.0000 0.17664  0.82336  0.85130  Biso   1.000  C
  C362     1.0000 0.21410  0.78590  0.91930  Biso   1.000  C
  C363     1.0000 0.25429  0.74571  0.91380  Biso   1.000  C
  C364     1.0000 0.27030  0.72970  0.96060  Biso   1.000  C
  H262     1.0000 0.28510  0.71490  0.94590  Biso   1.000  H
  O83      1.0000 0.90015  0.09985  0.28803  Biso   1.000  O
  C365     1.0000 0.84331  0.15669  0.18463  Biso   1.000  C
  C366     1.0000 0.88077  0.11923  0.25263  Biso   1.000  C
  C367     1.0000 0.92096  0.07904  0.24713  Biso   1.000  C
  C368     1.0000 0.93697  0.06303  0.29393  Biso   1.000  C
  H263     1.0000 0.95177  0.04823  0.27923  Biso   1.000  H
  O84      1.0000 0.56681  0.43319  0.62137  Biso   1.000  O
  C369     1.0000 0.50997  0.49003  0.51797  Biso   1.000  C
  C370     1.0000 0.54743  0.45257  0.58597  Biso   1.000  C
  C371     1.0000 0.58762  0.41238  0.58047  Biso   1.000  C
  C372     1.0000 0.60363  0.39637  0.62727  Biso   1.000  C
  H264     1.0000 0.61843  0.38157  0.61257  Biso   1.000  H
  O85      1.0000 0.53304  0.76652  0.95470  Biso   1.000  O
  C373     1.0000 0.64672  0.82336  0.85130  Biso   1.000  C
  C374     1.0000 0.57180  0.78590  0.91930  Biso   1.000  C
  C375     1.0000 0.49142  0.74571  0.91380  Biso   1.000  C
  C376     1.0000 0.45940  0.72970  0.96060  Biso   1.000  C
  H265     1.0000 0.42980  0.71490  0.94590  Biso   1.000  H
  O86      1.0000 0.19971  0.09985  0.28803  Biso   1.000  O
  C377     1.0000 0.31339  0.15669  0.18463  Biso   1.000  C
  C378     1.0000 0.23847  0.11923  0.25263  Biso   1.000  C
  C379     1.0000 0.15809  0.07904  0.24713  Biso   1.000  C
  C380     1.0000 0.12607  0.06303  0.29393  Biso   1.000  C
  H266     1.0000 0.09647  0.04823  0.27923  Biso   1.000  H
  O87      1.0000 0.86637  0.43319  0.62137  Biso   1.000  O
  C381     1.0000 0.98005  0.49003  0.51797  Biso   1.000  C
  C382     1.0000 0.90513  0.45257  0.58597  Biso   1.000  C
  C383     1.0000 0.82475  0.41238  0.58047  Biso   1.000  C
  C384     1.0000 0.79273  0.39637  0.62727  Biso   1.000  C
  H267     1.0000 0.76313  0.38157  0.61257  Biso   1.000  H
  O88      1.0000 0.23348  0.46696  0.95470  Biso   1.000  O
  C385     1.0000 0.17664  0.35328  0.85130  Biso   1.000  C
  C386     1.0000 0.21410  0.42820  0.91930  Biso   1.000  C
  C387     1.0000 0.25429  0.50858  0.91380  Biso   1.000  C
  C388     1.0000 0.27030  0.54060  0.96060  Biso   1.000  C
  H268     1.0000 0.28510  0.57020  0.94590  Biso   1.000  H
  O89      1.0000 0.90015  0.80029  0.28803  Biso   1.000  O
  C389     1.0000 0.84331  0.68661  0.18463  Biso   1.000  C
  C390     1.0000 0.88077  0.76153  0.25263  Biso   1.000  C
  C391     1.0000 0.92096  0.84191  0.24713  Biso   1.000  C
  C392     1.0000 0.93697  0.87393  0.29393  Biso   1.000  C
  H269     1.0000 0.95177  0.90353  0.27923  Biso   1.000  H
  O90      1.0000 0.56681  0.13363  0.62137  Biso   1.000  O
  C393     1.0000 0.50997  0.01995  0.51797  Biso   1.000  C
  C394     1.0000 0.54743  0.09487  0.58597  Biso   1.000  C
  C395     1.0000 0.58762  0.17525  0.58047  Biso   1.000  C
  C396     1.0000 0.60363  0.20727  0.62727  Biso   1.000  C
  H270     1.0000 0.61843  0.23687  0.61257  Biso   1.000  H
