data_image0
_cell_length_a       35.1677
_cell_length_b       35.1677
_cell_length_c       22.0346
_cell_angle_alpha    90
_cell_angle_beta     90
_cell_angle_gamma    120

_symmetry_space_group_name_H-M    "P 1"
_symmetry_int_tables_number       1

loop_
  _symmetry_equiv_pos_as_xyz
  'x, y, z'

loop_
  _atom_site_label
  _atom_site_occupancy
  _atom_site_fract_x
  _atom_site_fract_y
  _atom_site_fract_z
  _atom_site_thermal_displace_type
  _atom_site_B_iso_or_equiv
  _atom_site_type_symbol
  O1       1.0000 0.52479  0.55368  0.43079  Biso   1.000  O
  O2       1.0000 0.51133  0.56729  0.52554  Biso   1.000  O
  C1       1.0000 0.52392  0.57825  0.47262  Biso   1.000  C
  C2       1.0000 0.53884  0.62493  0.45386  Biso   1.000  C
  C3       1.0000 0.54007  0.65454  0.49644  Biso   1.000  C
  H1       1.0000 0.53100  0.64530  0.53700  Biso   1.000  H
  C4       1.0000 0.55450  0.69772  0.47981  Biso   1.000  C
  H2       1.0000 0.55450  0.71760  0.50910  Biso   1.000  H
  C5       1.0000 0.56889  0.71240  0.42143  Biso   1.000  C
  C6       1.0000 0.56763  0.68247  0.37918  Biso   1.000  C
  H3       1.0000 0.57690  0.69170  0.33870  Biso   1.000  H
  C7       1.0000 0.55288  0.63907  0.39581  Biso   1.000  C
  H4       1.0000 0.55250  0.61900  0.36660  Biso   1.000  H
  C8       1.0000 0.58801  0.75939  0.40428  Biso   1.000  C
  C9       1.0000 0.62582  0.77922  0.36988  Biso   1.000  C
  H5       1.0000 0.63870  0.76220  0.35790  Biso   1.000  H
  H6       1.0000 0.48960  0.72190  0.39370  Biso   1.000  H
  H7       1.0000 0.45680  0.75110  0.48790  Biso   1.000  H
  O3       1.0000 0.19146  0.88701  0.76412  Biso   1.000  O
  O4       1.0000 0.17800  0.90062  0.85887  Biso   1.000  O
  C10      1.0000 0.19059  0.91158  0.80595  Biso   1.000  C
  C11      1.0000 0.20551  0.95826  0.78719  Biso   1.000  C
  C12      1.0000 0.20674  0.98787  0.82977  Biso   1.000  C
  H8       1.0000 0.19767  0.97863  0.87033  Biso   1.000  H
  C13      1.0000 0.22117  0.03105  0.81314  Biso   1.000  C
  H9       1.0000 0.22117  0.05093  0.84243  Biso   1.000  H
  C14      1.0000 0.23556  0.04573  0.75476  Biso   1.000  C
  C15      1.0000 0.23430  0.01580  0.71251  Biso   1.000  C
  H10      1.0000 0.24357  0.02503  0.67203  Biso   1.000  H
  C16      1.0000 0.21955  0.97240  0.72914  Biso   1.000  C
  H11      1.0000 0.21917  0.95233  0.69993  Biso   1.000  H
  C17      1.0000 0.25468  0.09272  0.73761  Biso   1.000  C
  C18      1.0000 0.29249  0.11255  0.70321  Biso   1.000  C
  H12      1.0000 0.30537  0.09553  0.69123  Biso   1.000  H
  H13      1.0000 0.15627  0.05523  0.72703  Biso   1.000  H
  H14      1.0000 0.12347  0.08443  0.82123  Biso   1.000  H
  O5       1.0000 0.85812  0.22035  0.09746  Biso   1.000  O
  O6       1.0000 0.84466  0.23396  0.19221  Biso   1.000  O
  C19      1.0000 0.85725  0.24492  0.13929  Biso   1.000  C
  C20      1.0000 0.87217  0.29160  0.12053  Biso   1.000  C
  C21      1.0000 0.87340  0.32121  0.16311  Biso   1.000  C
  H15      1.0000 0.86433  0.31197  0.20367  Biso   1.000  H
  C22      1.0000 0.88783  0.36439  0.14648  Biso   1.000  C
  H16      1.0000 0.88783  0.38427  0.17577  Biso   1.000  H
  C23      1.0000 0.90222  0.37907  0.08810  Biso   1.000  C
  C24      1.0000 0.90096  0.34914  0.04585  Biso   1.000  C
  H17      1.0000 0.91023  0.35837  0.00537  Biso   1.000  H
  C25      1.0000 0.88621  0.30574  0.06248  Biso   1.000  C
  H18      1.0000 0.88583  0.28567  0.03327  Biso   1.000  H
  C26      1.0000 0.92134  0.42606  0.07095  Biso   1.000  C
  C27      1.0000 0.95915  0.44589  0.03655  Biso   1.000  C
  H19      1.0000 0.97203  0.42887  0.02457  Biso   1.000  H
  H20      1.0000 0.82293  0.38857  0.06037  Biso   1.000  H
  H21      1.0000 0.79013  0.41777  0.15457  Biso   1.000  H
  O7       1.0000 0.44632  0.97111  0.43079  Biso   1.000  O
  O8       1.0000 0.43271  0.94404  0.52554  Biso   1.000  O
  C28      1.0000 0.42175  0.94567  0.47262  Biso   1.000  C
  C29      1.0000 0.37507  0.91391  0.45386  Biso   1.000  C
  C30      1.0000 0.34546  0.88553  0.49644  Biso   1.000  C
  H22      1.0000 0.35470  0.88570  0.53700  Biso   1.000  H
  C31      1.0000 0.30228  0.85678  0.47981  Biso   1.000  C
  H23      1.0000 0.28240  0.83690  0.50910  Biso   1.000  H
  C32      1.0000 0.28760  0.85649  0.42143  Biso   1.000  C
  C33      1.0000 0.31753  0.88516  0.37918  Biso   1.000  C
  H24      1.0000 0.30830  0.88520  0.33870  Biso   1.000  H
  C34      1.0000 0.36093  0.91381  0.39581  Biso   1.000  C
  H25      1.0000 0.38100  0.93350  0.36660  Biso   1.000  H
  C35      1.0000 0.24061  0.82862  0.40428  Biso   1.000  C
  C36      1.0000 0.22078  0.84660  0.36988  Biso   1.000  C
  H26      1.0000 0.23780  0.87650  0.35790  Biso   1.000  H
  H27      1.0000 0.27810  0.76770  0.39370  Biso   1.000  H
  H28      1.0000 0.24890  0.70570  0.48790  Biso   1.000  H
  O9       1.0000 0.11299  0.30444  0.76412  Biso   1.000  O
  O10      1.0000 0.09938  0.27737  0.85887  Biso   1.000  O
  C37      1.0000 0.08842  0.27900  0.80595  Biso   1.000  C
  C38      1.0000 0.04174  0.24724  0.78719  Biso   1.000  C
  C39      1.0000 0.01213  0.21886  0.82977  Biso   1.000  C
  H29      1.0000 0.02137  0.21903  0.87033  Biso   1.000  H
  C40      1.0000 0.96895  0.19011  0.81314  Biso   1.000  C
  H30      1.0000 0.94907  0.17023  0.84243  Biso   1.000  H
  C41      1.0000 0.95427  0.18982  0.75476  Biso   1.000  C
  C42      1.0000 0.98420  0.21849  0.71251  Biso   1.000  C
  H31      1.0000 0.97497  0.21853  0.67203  Biso   1.000  H
  C43      1.0000 0.02760  0.24714  0.72914  Biso   1.000  C
  H32      1.0000 0.04767  0.26683  0.69993  Biso   1.000  H
  C44      1.0000 0.90728  0.16195  0.73761  Biso   1.000  C
  C45      1.0000 0.88745  0.17993  0.70321  Biso   1.000  C
  H33      1.0000 0.90447  0.20983  0.69123  Biso   1.000  H
  H34      1.0000 0.94477  0.10103  0.72703  Biso   1.000  H
  H35      1.0000 0.91557  0.03903  0.82123  Biso   1.000  H
  O11      1.0000 0.77965  0.63778  0.09746  Biso   1.000  O
  O12      1.0000 0.76604  0.61071  0.19221  Biso   1.000  O
  C46      1.0000 0.75508  0.61234  0.13929  Biso   1.000  C
  C47      1.0000 0.70840  0.58058  0.12053  Biso   1.000  C
  C48      1.0000 0.67879  0.55220  0.16311  Biso   1.000  C
  H36      1.0000 0.68803  0.55237  0.20367  Biso   1.000  H
  C49      1.0000 0.63561  0.52345  0.14648  Biso   1.000  C
  H37      1.0000 0.61573  0.50357  0.17577  Biso   1.000  H
  C50      1.0000 0.62093  0.52316  0.08810  Biso   1.000  C
  C51      1.0000 0.65086  0.55183  0.04585  Biso   1.000  C
  H38      1.0000 0.64163  0.55187  0.00537  Biso   1.000  H
  C52      1.0000 0.69426  0.58048  0.06248  Biso   1.000  C
  H39      1.0000 0.71433  0.60017  0.03327  Biso   1.000  H
  C53      1.0000 0.57394  0.49529  0.07095  Biso   1.000  C
  C54      1.0000 0.55411  0.51327  0.03655  Biso   1.000  C
  H40      1.0000 0.57113  0.54317  0.02457  Biso   1.000  H
  H41      1.0000 0.61143  0.43437  0.06037  Biso   1.000  H
  H42      1.0000 0.58223  0.37237  0.15457  Biso   1.000  H
  O13      1.0000 0.02889  0.47521  0.43079  Biso   1.000  O
  O14      1.0000 0.05596  0.48867  0.52554  Biso   1.000  O
  C55      1.0000 0.05433  0.47608  0.47262  Biso   1.000  C
  C56      1.0000 0.08609  0.46116  0.45386  Biso   1.000  C
  C57      1.0000 0.11447  0.45993  0.49644  Biso   1.000  C
  H43      1.0000 0.11430  0.46900  0.53700  Biso   1.000  H
  C58      1.0000 0.14322  0.44550  0.47981  Biso   1.000  C
  H44      1.0000 0.16310  0.44550  0.50910  Biso   1.000  H
  C59      1.0000 0.14351  0.43111  0.42143  Biso   1.000  C
  C60      1.0000 0.11484  0.43237  0.37918  Biso   1.000  C
  H45      1.0000 0.11480  0.42310  0.33870  Biso   1.000  H
  C61      1.0000 0.08619  0.44712  0.39581  Biso   1.000  C
  H46      1.0000 0.06650  0.44750  0.36660  Biso   1.000  H
  C62      1.0000 0.17138  0.41199  0.40428  Biso   1.000  C
  C63      1.0000 0.15340  0.37418  0.36988  Biso   1.000  C
  H47      1.0000 0.12350  0.36130  0.35790  Biso   1.000  H
  H48      1.0000 0.23230  0.51040  0.39370  Biso   1.000  H
  H49      1.0000 0.29430  0.54320  0.48790  Biso   1.000  H
  O15      1.0000 0.69556  0.80854  0.76412  Biso   1.000  O
  O16      1.0000 0.72263  0.82200  0.85887  Biso   1.000  O
  C64      1.0000 0.72100  0.80941  0.80595  Biso   1.000  C
  C65      1.0000 0.75276  0.79449  0.78719  Biso   1.000  C
  C66      1.0000 0.78114  0.79326  0.82977  Biso   1.000  C
  H50      1.0000 0.78097  0.80233  0.87033  Biso   1.000  H
  C67      1.0000 0.80989  0.77883  0.81314  Biso   1.000  C
  H51      1.0000 0.82977  0.77883  0.84243  Biso   1.000  H
  C68      1.0000 0.81018  0.76444  0.75476  Biso   1.000  C
  C69      1.0000 0.78151  0.76570  0.71251  Biso   1.000  C
  H52      1.0000 0.78147  0.75643  0.67203  Biso   1.000  H
  C70      1.0000 0.75286  0.78045  0.72914  Biso   1.000  C
  H53      1.0000 0.73317  0.78083  0.69993  Biso   1.000  H
  C71      1.0000 0.83805  0.74532  0.73761  Biso   1.000  C
  C72      1.0000 0.82007  0.70751  0.70321  Biso   1.000  C
  H54      1.0000 0.79017  0.69463  0.69123  Biso   1.000  H
  H55      1.0000 0.89897  0.84373  0.72703  Biso   1.000  H
  H56      1.0000 0.96097  0.87653  0.82123  Biso   1.000  H
  O17      1.0000 0.36222  0.14188  0.09746  Biso   1.000  O
  O18      1.0000 0.38929  0.15534  0.19221  Biso   1.000  O
  C73      1.0000 0.38766  0.14275  0.13929  Biso   1.000  C
  C74      1.0000 0.41942  0.12783  0.12053  Biso   1.000  C
  C75      1.0000 0.44780  0.12660  0.16311  Biso   1.000  C
  H57      1.0000 0.44763  0.13567  0.20367  Biso   1.000  H
  C76      1.0000 0.47655  0.11217  0.14648  Biso   1.000  C
  H58      1.0000 0.49643  0.11217  0.17577  Biso   1.000  H
  C77      1.0000 0.47684  0.09778  0.08810  Biso   1.000  C
  C78      1.0000 0.44817  0.09904  0.04585  Biso   1.000  C
  H59      1.0000 0.44813  0.08977  0.00537  Biso   1.000  H
  C79      1.0000 0.41952  0.11379  0.06248  Biso   1.000  C
  H60      1.0000 0.39983  0.11417  0.03327  Biso   1.000  H
  C80      1.0000 0.50471  0.07866  0.07095  Biso   1.000  C
  C81      1.0000 0.48673  0.04085  0.03655  Biso   1.000  C
  H61      1.0000 0.45683  0.02797  0.02457  Biso   1.000  H
  H62      1.0000 0.56563  0.17707  0.06037  Biso   1.000  H
  H63      1.0000 0.62763  0.20987  0.15457  Biso   1.000  H
  O19      1.0000 0.55368  0.52479  0.56921  Biso   1.000  O
  O20      1.0000 0.56729  0.51133  0.47446  Biso   1.000  O
  C82      1.0000 0.57825  0.52392  0.52738  Biso   1.000  C
  C83      1.0000 0.62493  0.53884  0.54614  Biso   1.000  C
  C84      1.0000 0.65454  0.54007  0.50356  Biso   1.000  C
  H64      1.0000 0.64530  0.53100  0.46300  Biso   1.000  H
  C85      1.0000 0.69772  0.55450  0.52019  Biso   1.000  C
  H65      1.0000 0.71760  0.55450  0.49090  Biso   1.000  H
  C86      1.0000 0.71240  0.56889  0.57857  Biso   1.000  C
  C87      1.0000 0.68247  0.56763  0.62082  Biso   1.000  C
  H66      1.0000 0.69170  0.57690  0.66130  Biso   1.000  H
  C88      1.0000 0.63907  0.55288  0.60419  Biso   1.000  C
  H67      1.0000 0.61900  0.55250  0.63340  Biso   1.000  H
  C89      1.0000 0.75939  0.58801  0.59572  Biso   1.000  C
  C90      1.0000 0.77922  0.62582  0.63012  Biso   1.000  C
  H68      1.0000 0.76220  0.63870  0.64210  Biso   1.000  H
  H69      1.0000 0.72190  0.48960  0.60630  Biso   1.000  H
  H70      1.0000 0.75110  0.45680  0.51210  Biso   1.000  H
  O21      1.0000 0.22035  0.85812  0.90254  Biso   1.000  O
  O22      1.0000 0.23396  0.84466  0.80779  Biso   1.000  O
  C91      1.0000 0.24492  0.85725  0.86071  Biso   1.000  C
  C92      1.0000 0.29160  0.87217  0.87947  Biso   1.000  C
  C93      1.0000 0.32121  0.87340  0.83689  Biso   1.000  C
  H71      1.0000 0.31197  0.86433  0.79633  Biso   1.000  H
  C94      1.0000 0.36439  0.88783  0.85352  Biso   1.000  C
  H72      1.0000 0.38427  0.88783  0.82423  Biso   1.000  H
  C95      1.0000 0.37907  0.90222  0.91190  Biso   1.000  C
  C96      1.0000 0.34914  0.90096  0.95415  Biso   1.000  C
  H73      1.0000 0.35837  0.91023  0.99463  Biso   1.000  H
  C97      1.0000 0.30574  0.88621  0.93752  Biso   1.000  C
  H74      1.0000 0.28567  0.88583  0.96673  Biso   1.000  H
  C98      1.0000 0.42606  0.92134  0.92905  Biso   1.000  C
  C99      1.0000 0.44589  0.95915  0.96345  Biso   1.000  C
  H75      1.0000 0.42887  0.97203  0.97543  Biso   1.000  H
  H76      1.0000 0.38857  0.82293  0.93963  Biso   1.000  H
  H77      1.0000 0.41777  0.79013  0.84543  Biso   1.000  H
  O23      1.0000 0.88701  0.19146  0.23588  Biso   1.000  O
  O24      1.0000 0.90062  0.17800  0.14113  Biso   1.000  O
  C100     1.0000 0.91158  0.19059  0.19405  Biso   1.000  C
  C101     1.0000 0.95826  0.20551  0.21281  Biso   1.000  C
  C102     1.0000 0.98787  0.20674  0.17023  Biso   1.000  C
  H78      1.0000 0.97863  0.19767  0.12967  Biso   1.000  H
  C103     1.0000 0.03105  0.22117  0.18686  Biso   1.000  C
  H79      1.0000 0.05093  0.22117  0.15757  Biso   1.000  H
  C104     1.0000 0.04573  0.23556  0.24524  Biso   1.000  C
  C105     1.0000 0.01580  0.23430  0.28749  Biso   1.000  C
  H80      1.0000 0.02503  0.24357  0.32797  Biso   1.000  H
  C106     1.0000 0.97240  0.21955  0.27086  Biso   1.000  C
  H81      1.0000 0.95233  0.21917  0.30007  Biso   1.000  H
  C107     1.0000 0.09272  0.25468  0.26239  Biso   1.000  C
  C108     1.0000 0.11255  0.29249  0.29679  Biso   1.000  C
  H82      1.0000 0.09553  0.30537  0.30877  Biso   1.000  H
  H83      1.0000 0.05523  0.15627  0.27297  Biso   1.000  H
  H84      1.0000 0.08443  0.12347  0.17877  Biso   1.000  H
  O25      1.0000 0.97111  0.44632  0.56921  Biso   1.000  O
  O26      1.0000 0.94404  0.43271  0.47446  Biso   1.000  O
  C109     1.0000 0.94567  0.42175  0.52738  Biso   1.000  C
  C110     1.0000 0.91391  0.37507  0.54614  Biso   1.000  C
  C111     1.0000 0.88553  0.34546  0.50356  Biso   1.000  C
  H85      1.0000 0.88570  0.35470  0.46300  Biso   1.000  H
  C112     1.0000 0.85678  0.30228  0.52019  Biso   1.000  C
  H86      1.0000 0.83690  0.28240  0.49090  Biso   1.000  H
  C113     1.0000 0.85649  0.28760  0.57857  Biso   1.000  C
  C114     1.0000 0.88516  0.31753  0.62082  Biso   1.000  C
  H87      1.0000 0.88520  0.30830  0.66130  Biso   1.000  H
  C115     1.0000 0.91381  0.36093  0.60419  Biso   1.000  C
  H88      1.0000 0.93350  0.38100  0.63340  Biso   1.000  H
  C116     1.0000 0.82862  0.24061  0.59572  Biso   1.000  C
  C117     1.0000 0.84660  0.22078  0.63012  Biso   1.000  C
  H89      1.0000 0.87650  0.23780  0.64210  Biso   1.000  H
  H90      1.0000 0.76770  0.27810  0.60630  Biso   1.000  H
  H91      1.0000 0.70570  0.24890  0.51210  Biso   1.000  H
  O27      1.0000 0.63778  0.77965  0.90254  Biso   1.000  O
  O28      1.0000 0.61071  0.76604  0.80779  Biso   1.000  O
  C118     1.0000 0.61234  0.75508  0.86071  Biso   1.000  C
  C119     1.0000 0.58058  0.70840  0.87947  Biso   1.000  C
  C120     1.0000 0.55220  0.67879  0.83689  Biso   1.000  C
  H92      1.0000 0.55237  0.68803  0.79633  Biso   1.000  H
  C121     1.0000 0.52345  0.63561  0.85352  Biso   1.000  C
  H93      1.0000 0.50357  0.61573  0.82423  Biso   1.000  H
  C122     1.0000 0.52316  0.62093  0.91190  Biso   1.000  C
  C123     1.0000 0.55183  0.65086  0.95415  Biso   1.000  C
  H94      1.0000 0.55187  0.64163  0.99463  Biso   1.000  H
  C124     1.0000 0.58048  0.69426  0.93752  Biso   1.000  C
  H95      1.0000 0.60017  0.71433  0.96673  Biso   1.000  H
  C125     1.0000 0.49529  0.57394  0.92905  Biso   1.000  C
  C126     1.0000 0.51327  0.55411  0.96345  Biso   1.000  C
  H96      1.0000 0.54317  0.57113  0.97543  Biso   1.000  H
  H97      1.0000 0.43437  0.61143  0.93963  Biso   1.000  H
  H98      1.0000 0.37237  0.58223  0.84543  Biso   1.000  H
  O29      1.0000 0.30444  0.11299  0.23588  Biso   1.000  O
  O30      1.0000 0.27737  0.09938  0.14113  Biso   1.000  O
  C127     1.0000 0.27900  0.08842  0.19405  Biso   1.000  C
  C128     1.0000 0.24724  0.04174  0.21281  Biso   1.000  C
  C129     1.0000 0.21886  0.01213  0.17023  Biso   1.000  C
  H99      1.0000 0.21903  0.02137  0.12967  Biso   1.000  H
  C130     1.0000 0.19011  0.96895  0.18686  Biso   1.000  C
  H100     1.0000 0.17023  0.94907  0.15757  Biso   1.000  H
  C131     1.0000 0.18982  0.95427  0.24524  Biso   1.000  C
  C132     1.0000 0.21849  0.98420  0.28749  Biso   1.000  C
  H101     1.0000 0.21853  0.97497  0.32797  Biso   1.000  H
  C133     1.0000 0.24714  0.02760  0.27086  Biso   1.000  C
  H102     1.0000 0.26683  0.04767  0.30007  Biso   1.000  H
  C134     1.0000 0.16195  0.90728  0.26239  Biso   1.000  C
  C135     1.0000 0.17993  0.88745  0.29679  Biso   1.000  C
  H103     1.0000 0.20983  0.90447  0.30877  Biso   1.000  H
  H104     1.0000 0.10103  0.94477  0.27297  Biso   1.000  H
  H105     1.0000 0.03903  0.91557  0.17877  Biso   1.000  H
  O31      1.0000 0.47521  0.02889  0.56921  Biso   1.000  O
  O32      1.0000 0.48867  0.05596  0.47446  Biso   1.000  O
  C136     1.0000 0.47608  0.05433  0.52738  Biso   1.000  C
  C137     1.0000 0.46116  0.08609  0.54614  Biso   1.000  C
  C138     1.0000 0.45993  0.11447  0.50356  Biso   1.000  C
  H106     1.0000 0.46900  0.11430  0.46300  Biso   1.000  H
  C139     1.0000 0.44550  0.14322  0.52019  Biso   1.000  C
  H107     1.0000 0.44550  0.16310  0.49090  Biso   1.000  H
  C140     1.0000 0.43111  0.14351  0.57857  Biso   1.000  C
  C141     1.0000 0.43237  0.11484  0.62082  Biso   1.000  C
  H108     1.0000 0.42310  0.11480  0.66130  Biso   1.000  H
  C142     1.0000 0.44712  0.08619  0.60419  Biso   1.000  C
  H109     1.0000 0.44750  0.06650  0.63340  Biso   1.000  H
  C143     1.0000 0.41199  0.17138  0.59572  Biso   1.000  C
  C144     1.0000 0.37418  0.15340  0.63012  Biso   1.000  C
  H110     1.0000 0.36130  0.12350  0.64210  Biso   1.000  H
  H111     1.0000 0.51040  0.23230  0.60630  Biso   1.000  H
  H112     1.0000 0.54320  0.29430  0.51210  Biso   1.000  H
  O33      1.0000 0.14188  0.36222  0.90254  Biso   1.000  O
  O34      1.0000 0.15534  0.38929  0.80779  Biso   1.000  O
  C145     1.0000 0.14275  0.38766  0.86071  Biso   1.000  C
  C146     1.0000 0.12783  0.41942  0.87947  Biso   1.000  C
  C147     1.0000 0.12660  0.44780  0.83689  Biso   1.000  C
  H113     1.0000 0.13567  0.44763  0.79633  Biso   1.000  H
  C148     1.0000 0.11217  0.47655  0.85352  Biso   1.000  C
  H114     1.0000 0.11217  0.49643  0.82423  Biso   1.000  H
  C149     1.0000 0.09778  0.47684  0.91190  Biso   1.000  C
  C150     1.0000 0.09904  0.44817  0.95415  Biso   1.000  C
  H115     1.0000 0.08977  0.44813  0.99463  Biso   1.000  H
  C151     1.0000 0.11379  0.41952  0.93752  Biso   1.000  C
  H116     1.0000 0.11417  0.39983  0.96673  Biso   1.000  H
  C152     1.0000 0.07866  0.50471  0.92905  Biso   1.000  C
  C153     1.0000 0.04085  0.48673  0.96345  Biso   1.000  C
  H117     1.0000 0.02797  0.45683  0.97543  Biso   1.000  H
  H118     1.0000 0.17707  0.56563  0.93963  Biso   1.000  H
  H119     1.0000 0.20987  0.62763  0.84543  Biso   1.000  H
  O35      1.0000 0.80854  0.69556  0.23588  Biso   1.000  O
  O36      1.0000 0.82200  0.72263  0.14113  Biso   1.000  O
  C154     1.0000 0.80941  0.72100  0.19405  Biso   1.000  C
  C155     1.0000 0.79449  0.75276  0.21281  Biso   1.000  C
  C156     1.0000 0.79326  0.78114  0.17023  Biso   1.000  C
  H120     1.0000 0.80233  0.78097  0.12967  Biso   1.000  H
  C157     1.0000 0.77883  0.80989  0.18686  Biso   1.000  C
  H121     1.0000 0.77883  0.82977  0.15757  Biso   1.000  H
  C158     1.0000 0.76444  0.81018  0.24524  Biso   1.000  C
  C159     1.0000 0.76570  0.78151  0.28749  Biso   1.000  C
  H122     1.0000 0.75643  0.78147  0.32797  Biso   1.000  H
  C160     1.0000 0.78045  0.75286  0.27086  Biso   1.000  C
  H123     1.0000 0.78083  0.73317  0.30007  Biso   1.000  H
  C161     1.0000 0.74532  0.83805  0.26239  Biso   1.000  C
  C162     1.0000 0.70751  0.82007  0.29679  Biso   1.000  C
  H124     1.0000 0.69463  0.79017  0.30877  Biso   1.000  H
  H125     1.0000 0.84373  0.89897  0.27297  Biso   1.000  H
  H126     1.0000 0.87653  0.96097  0.17877  Biso   1.000  H
  O37      1.0000 0.47521  0.44632  0.56921  Biso   1.000  O
  O38      1.0000 0.48867  0.43271  0.47446  Biso   1.000  O
  C163     1.0000 0.47608  0.42175  0.52738  Biso   1.000  C
  C164     1.0000 0.46116  0.37507  0.54614  Biso   1.000  C
  C165     1.0000 0.45993  0.34546  0.50356  Biso   1.000  C
  H127     1.0000 0.46900  0.35470  0.46300  Biso   1.000  H
  C166     1.0000 0.44550  0.30228  0.52019  Biso   1.000  C
  H128     1.0000 0.44550  0.28240  0.49090  Biso   1.000  H
  C167     1.0000 0.43111  0.28760  0.57857  Biso   1.000  C
  C168     1.0000 0.43237  0.31753  0.62082  Biso   1.000  C
  H129     1.0000 0.42310  0.30830  0.66130  Biso   1.000  H
  C169     1.0000 0.44712  0.36093  0.60419  Biso   1.000  C
  H130     1.0000 0.44750  0.38100  0.63340  Biso   1.000  H
  C170     1.0000 0.41199  0.24061  0.59572  Biso   1.000  C
  C171     1.0000 0.37418  0.22078  0.63012  Biso   1.000  C
  H131     1.0000 0.36130  0.23780  0.64210  Biso   1.000  H
  H132     1.0000 0.51040  0.27810  0.60630  Biso   1.000  H
  H133     1.0000 0.54320  0.24890  0.51210  Biso   1.000  H
  O39      1.0000 0.14188  0.77965  0.90254  Biso   1.000  O
  O40      1.0000 0.15534  0.76604  0.80779  Biso   1.000  O
  C172     1.0000 0.14275  0.75508  0.86071  Biso   1.000  C
  C173     1.0000 0.12783  0.70840  0.87947  Biso   1.000  C
  C174     1.0000 0.12660  0.67879  0.83689  Biso   1.000  C
  H134     1.0000 0.13567  0.68803  0.79633  Biso   1.000  H
  C175     1.0000 0.11217  0.63561  0.85352  Biso   1.000  C
  H135     1.0000 0.11217  0.61573  0.82423  Biso   1.000  H
  C176     1.0000 0.09778  0.62093  0.91190  Biso   1.000  C
  C177     1.0000 0.09904  0.65086  0.95415  Biso   1.000  C
  H136     1.0000 0.08977  0.64163  0.99463  Biso   1.000  H
  C178     1.0000 0.11379  0.69426  0.93752  Biso   1.000  C
  H137     1.0000 0.11417  0.71433  0.96673  Biso   1.000  H
  C179     1.0000 0.07866  0.57394  0.92905  Biso   1.000  C
  C180     1.0000 0.04085  0.55411  0.96345  Biso   1.000  C
  H138     1.0000 0.02797  0.57113  0.97543  Biso   1.000  H
  H139     1.0000 0.17707  0.61143  0.93963  Biso   1.000  H
  H140     1.0000 0.20987  0.58223  0.84543  Biso   1.000  H
  O41      1.0000 0.80854  0.11299  0.23588  Biso   1.000  O
  O42      1.0000 0.82200  0.09938  0.14113  Biso   1.000  O
  C181     1.0000 0.80941  0.08842  0.19405  Biso   1.000  C
  C182     1.0000 0.79449  0.04174  0.21281  Biso   1.000  C
  C183     1.0000 0.79326  0.01213  0.17023  Biso   1.000  C
  H141     1.0000 0.80233  0.02137  0.12967  Biso   1.000  H
  C184     1.0000 0.77883  0.96895  0.18686  Biso   1.000  C
  H142     1.0000 0.77883  0.94907  0.15757  Biso   1.000  H
  C185     1.0000 0.76444  0.95427  0.24524  Biso   1.000  C
  C186     1.0000 0.76570  0.98420  0.28749  Biso   1.000  C
  H143     1.0000 0.75643  0.97497  0.32797  Biso   1.000  H
  C187     1.0000 0.78045  0.02760  0.27086  Biso   1.000  C
  H144     1.0000 0.78083  0.04767  0.30007  Biso   1.000  H
  C188     1.0000 0.74532  0.90728  0.26239  Biso   1.000  C
  C189     1.0000 0.70751  0.88745  0.29679  Biso   1.000  C
  H145     1.0000 0.69463  0.90447  0.30877  Biso   1.000  H
  H146     1.0000 0.84373  0.94477  0.27297  Biso   1.000  H
  H147     1.0000 0.87653  0.91557  0.17877  Biso   1.000  H
  O43      1.0000 0.55368  0.02889  0.56921  Biso   1.000  O
  O44      1.0000 0.56729  0.05596  0.47446  Biso   1.000  O
  C190     1.0000 0.57825  0.05433  0.52738  Biso   1.000  C
  C191     1.0000 0.62493  0.08609  0.54614  Biso   1.000  C
  C192     1.0000 0.65454  0.11447  0.50356  Biso   1.000  C
  H148     1.0000 0.64530  0.11430  0.46300  Biso   1.000  H
  C193     1.0000 0.69772  0.14322  0.52019  Biso   1.000  C
  H149     1.0000 0.71760  0.16310  0.49090  Biso   1.000  H
  C194     1.0000 0.71240  0.14351  0.57857  Biso   1.000  C
  C195     1.0000 0.68247  0.11484  0.62082  Biso   1.000  C
  H150     1.0000 0.69170  0.11480  0.66130  Biso   1.000  H
  C196     1.0000 0.63907  0.08619  0.60419  Biso   1.000  C
  H151     1.0000 0.61900  0.06650  0.63340  Biso   1.000  H
  C197     1.0000 0.75939  0.17138  0.59572  Biso   1.000  C
  C198     1.0000 0.77922  0.15340  0.63012  Biso   1.000  C
  H152     1.0000 0.76220  0.12350  0.64210  Biso   1.000  H
  H153     1.0000 0.72190  0.23230  0.60630  Biso   1.000  H
  H154     1.0000 0.75110  0.29430  0.51210  Biso   1.000  H
  O45      1.0000 0.22035  0.36222  0.90254  Biso   1.000  O
  O46      1.0000 0.23396  0.38929  0.80779  Biso   1.000  O
  C199     1.0000 0.24492  0.38766  0.86071  Biso   1.000  C
  C200     1.0000 0.29160  0.41942  0.87947  Biso   1.000  C
  C201     1.0000 0.32121  0.44780  0.83689  Biso   1.000  C
  H155     1.0000 0.31197  0.44763  0.79633  Biso   1.000  H
  C202     1.0000 0.36439  0.47655  0.85352  Biso   1.000  C
  H156     1.0000 0.38427  0.49643  0.82423  Biso   1.000  H
  C203     1.0000 0.37907  0.47684  0.91190  Biso   1.000  C
  C204     1.0000 0.34914  0.44817  0.95415  Biso   1.000  C
  H157     1.0000 0.35837  0.44813  0.99463  Biso   1.000  H
  C205     1.0000 0.30574  0.41952  0.93752  Biso   1.000  C
  H158     1.0000 0.28567  0.39983  0.96673  Biso   1.000  H
  C206     1.0000 0.42606  0.50471  0.92905  Biso   1.000  C
  C207     1.0000 0.44589  0.48673  0.96345  Biso   1.000  C
  H159     1.0000 0.42887  0.45683  0.97543  Biso   1.000  H
  H160     1.0000 0.38857  0.56563  0.93963  Biso   1.000  H
  H161     1.0000 0.41777  0.62763  0.84543  Biso   1.000  H
  O47      1.0000 0.88701  0.69556  0.23588  Biso   1.000  O
  O48      1.0000 0.90062  0.72263  0.14113  Biso   1.000  O
  C208     1.0000 0.91158  0.72100  0.19405  Biso   1.000  C
  C209     1.0000 0.95826  0.75276  0.21281  Biso   1.000  C
  C210     1.0000 0.98787  0.78114  0.17023  Biso   1.000  C
  H162     1.0000 0.97863  0.78097  0.12967  Biso   1.000  H
  C211     1.0000 0.03105  0.80989  0.18686  Biso   1.000  C
  H163     1.0000 0.05093  0.82977  0.15757  Biso   1.000  H
  C212     1.0000 0.04573  0.81018  0.24524  Biso   1.000  C
  C213     1.0000 0.01580  0.78151  0.28749  Biso   1.000  C
  H164     1.0000 0.02503  0.78147  0.32797  Biso   1.000  H
  C214     1.0000 0.97240  0.75286  0.27086  Biso   1.000  C
  H165     1.0000 0.95233  0.73317  0.30007  Biso   1.000  H
  C215     1.0000 0.09272  0.83805  0.26239  Biso   1.000  C
  C216     1.0000 0.11255  0.82007  0.29679  Biso   1.000  C
  H166     1.0000 0.09553  0.79017  0.30877  Biso   1.000  H
  H167     1.0000 0.05523  0.89897  0.27297  Biso   1.000  H
  H168     1.0000 0.08443  0.96097  0.17877  Biso   1.000  H
  O49      1.0000 0.97111  0.52479  0.56921  Biso   1.000  O
  O50      1.0000 0.94404  0.51133  0.47446  Biso   1.000  O
  C217     1.0000 0.94567  0.52392  0.52738  Biso   1.000  C
  C218     1.0000 0.91391  0.53884  0.54614  Biso   1.000  C
  C219     1.0000 0.88553  0.54007  0.50356  Biso   1.000  C
  H169     1.0000 0.88570  0.53100  0.46300  Biso   1.000  H
  C220     1.0000 0.85678  0.55450  0.52019  Biso   1.000  C
  H170     1.0000 0.83690  0.55450  0.49090  Biso   1.000  H
  C221     1.0000 0.85649  0.56889  0.57857  Biso   1.000  C
  C222     1.0000 0.88516  0.56763  0.62082  Biso   1.000  C
  H171     1.0000 0.88520  0.57690  0.66130  Biso   1.000  H
  C223     1.0000 0.91381  0.55288  0.60419  Biso   1.000  C
  H172     1.0000 0.93350  0.55250  0.63340  Biso   1.000  H
  C224     1.0000 0.82862  0.58801  0.59572  Biso   1.000  C
  C225     1.0000 0.84660  0.62582  0.63012  Biso   1.000  C
  H173     1.0000 0.87650  0.63870  0.64210  Biso   1.000  H
  H174     1.0000 0.76770  0.48960  0.60630  Biso   1.000  H
  H175     1.0000 0.70570  0.45680  0.51210  Biso   1.000  H
  O51      1.0000 0.63778  0.85812  0.90254  Biso   1.000  O
  O52      1.0000 0.61071  0.84466  0.80779  Biso   1.000  O
  C226     1.0000 0.61234  0.85725  0.86071  Biso   1.000  C
  C227     1.0000 0.58058  0.87217  0.87947  Biso   1.000  C
  C228     1.0000 0.55220  0.87340  0.83689  Biso   1.000  C
  H176     1.0000 0.55237  0.86433  0.79633  Biso   1.000  H
  C229     1.0000 0.52345  0.88783  0.85352  Biso   1.000  C
  H177     1.0000 0.50357  0.88783  0.82423  Biso   1.000  H
  C230     1.0000 0.52316  0.90222  0.91190  Biso   1.000  C
  C231     1.0000 0.55183  0.90096  0.95415  Biso   1.000  C
  H178     1.0000 0.55187  0.91023  0.99463  Biso   1.000  H
  C232     1.0000 0.58048  0.88621  0.93752  Biso   1.000  C
  H179     1.0000 0.60017  0.88583  0.96673  Biso   1.000  H
  C233     1.0000 0.49529  0.92134  0.92905  Biso   1.000  C
  C234     1.0000 0.51327  0.95915  0.96345  Biso   1.000  C
  H180     1.0000 0.54317  0.97203  0.97543  Biso   1.000  H
  H181     1.0000 0.43437  0.82293  0.93963  Biso   1.000  H
  H182     1.0000 0.37237  0.79013  0.84543  Biso   1.000  H
  O53      1.0000 0.30444  0.19146  0.23588  Biso   1.000  O
  O54      1.0000 0.27737  0.17800  0.14113  Biso   1.000  O
  C235     1.0000 0.27900  0.19059  0.19405  Biso   1.000  C
  C236     1.0000 0.24724  0.20551  0.21281  Biso   1.000  C
  C237     1.0000 0.21886  0.20674  0.17023  Biso   1.000  C
  H183     1.0000 0.21903  0.19767  0.12967  Biso   1.000  H
  C238     1.0000 0.19011  0.22117  0.18686  Biso   1.000  C
  H184     1.0000 0.17023  0.22117  0.15757  Biso   1.000  H
  C239     1.0000 0.18982  0.23556  0.24524  Biso   1.000  C
  C240     1.0000 0.21849  0.23430  0.28749  Biso   1.000  C
  H185     1.0000 0.21853  0.24357  0.32797  Biso   1.000  H
  C241     1.0000 0.24714  0.21955  0.27086  Biso   1.000  C
  H186     1.0000 0.26683  0.21917  0.30007  Biso   1.000  H
  C242     1.0000 0.16195  0.25468  0.26239  Biso   1.000  C
  C243     1.0000 0.17993  0.29249  0.29679  Biso   1.000  C
  H187     1.0000 0.20983  0.30537  0.30877  Biso   1.000  H
  H188     1.0000 0.10103  0.15627  0.27297  Biso   1.000  H
  H189     1.0000 0.03903  0.12347  0.17877  Biso   1.000  H
  O55      1.0000 0.44632  0.47521  0.43079  Biso   1.000  O
  O56      1.0000 0.43271  0.48867  0.52554  Biso   1.000  O
  C244     1.0000 0.42175  0.47608  0.47262  Biso   1.000  C
  C245     1.0000 0.37507  0.46116  0.45386  Biso   1.000  C
  C246     1.0000 0.34546  0.45993  0.49644  Biso   1.000  C
  H190     1.0000 0.35470  0.46900  0.53700  Biso   1.000  H
  C247     1.0000 0.30228  0.44550  0.47981  Biso   1.000  C
  H191     1.0000 0.28240  0.44550  0.50910  Biso   1.000  H
  C248     1.0000 0.28760  0.43111  0.42143  Biso   1.000  C
  C249     1.0000 0.31753  0.43237  0.37918  Biso   1.000  C
  H192     1.0000 0.30830  0.42310  0.33870  Biso   1.000  H
  C250     1.0000 0.36093  0.44712  0.39581  Biso   1.000  C
  H193     1.0000 0.38100  0.44750  0.36660  Biso   1.000  H
  C251     1.0000 0.24061  0.41199  0.40428  Biso   1.000  C
  C252     1.0000 0.22078  0.37418  0.36988  Biso   1.000  C
  H194     1.0000 0.23780  0.36130  0.35790  Biso   1.000  H
  H195     1.0000 0.27810  0.51040  0.39370  Biso   1.000  H
  H196     1.0000 0.24890  0.54320  0.48790  Biso   1.000  H
  O57      1.0000 0.11299  0.80854  0.76412  Biso   1.000  O
  O58      1.0000 0.09938  0.82200  0.85887  Biso   1.000  O
  C253     1.0000 0.08842  0.80941  0.80595  Biso   1.000  C
  C254     1.0000 0.04174  0.79449  0.78719  Biso   1.000  C
  C255     1.0000 0.01213  0.79326  0.82977  Biso   1.000  C
  H197     1.0000 0.02137  0.80233  0.87033  Biso   1.000  H
  C256     1.0000 0.96895  0.77883  0.81314  Biso   1.000  C
  H198     1.0000 0.94907  0.77883  0.84243  Biso   1.000  H
  C257     1.0000 0.95427  0.76444  0.75476  Biso   1.000  C
  C258     1.0000 0.98420  0.76570  0.71251  Biso   1.000  C
  H199     1.0000 0.97497  0.75643  0.67203  Biso   1.000  H
  C259     1.0000 0.02760  0.78045  0.72914  Biso   1.000  C
  H200     1.0000 0.04767  0.78083  0.69993  Biso   1.000  H
  C260     1.0000 0.90728  0.74532  0.73761  Biso   1.000  C
  C261     1.0000 0.88745  0.70751  0.70321  Biso   1.000  C
  H201     1.0000 0.90447  0.69463  0.69123  Biso   1.000  H
  H202     1.0000 0.94477  0.84373  0.72703  Biso   1.000  H
  H203     1.0000 0.91557  0.87653  0.82123  Biso   1.000  H
  O59      1.0000 0.77965  0.14188  0.09746  Biso   1.000  O
  O60      1.0000 0.76604  0.15534  0.19221  Biso   1.000  O
  C262     1.0000 0.75508  0.14275  0.13929  Biso   1.000  C
  C263     1.0000 0.70840  0.12783  0.12053  Biso   1.000  C
  C264     1.0000 0.67879  0.12660  0.16311  Biso   1.000  C
  H204     1.0000 0.68803  0.13567  0.20367  Biso   1.000  H
  C265     1.0000 0.63561  0.11217  0.14648  Biso   1.000  C
  H205     1.0000 0.61573  0.11217  0.17577  Biso   1.000  H
  C266     1.0000 0.62093  0.09778  0.08810  Biso   1.000  C
  C267     1.0000 0.65086  0.09904  0.04585  Biso   1.000  C
  H206     1.0000 0.64163  0.08977  0.00537  Biso   1.000  H
  C268     1.0000 0.69426  0.11379  0.06248  Biso   1.000  C
  H207     1.0000 0.71433  0.11417  0.03327  Biso   1.000  H
  C269     1.0000 0.57394  0.07866  0.07095  Biso   1.000  C
  C270     1.0000 0.55411  0.04085  0.03655  Biso   1.000  C
  H208     1.0000 0.57113  0.02797  0.02457  Biso   1.000  H
  H209     1.0000 0.61143  0.17707  0.06037  Biso   1.000  H
  H210     1.0000 0.58223  0.20987  0.15457  Biso   1.000  H
  O61      1.0000 0.02889  0.55368  0.43079  Biso   1.000  O
  O62      1.0000 0.05596  0.56729  0.52554  Biso   1.000  O
  C271     1.0000 0.05433  0.57825  0.47262  Biso   1.000  C
  C272     1.0000 0.08609  0.62493  0.45386  Biso   1.000  C
  C273     1.0000 0.11447  0.65454  0.49644  Biso   1.000  C
  H211     1.0000 0.11430  0.64530  0.53700  Biso   1.000  H
  C274     1.0000 0.14322  0.69772  0.47981  Biso   1.000  C
  H212     1.0000 0.16310  0.71760  0.50910  Biso   1.000  H
  C275     1.0000 0.14351  0.71240  0.42143  Biso   1.000  C
  C276     1.0000 0.11484  0.68247  0.37918  Biso   1.000  C
  H213     1.0000 0.11480  0.69170  0.33870  Biso   1.000  H
  C277     1.0000 0.08619  0.63907  0.39581  Biso   1.000  C
  H214     1.0000 0.06650  0.61900  0.36660  Biso   1.000  H
  C278     1.0000 0.17138  0.75939  0.40428  Biso   1.000  C
  C279     1.0000 0.15340  0.77922  0.36988  Biso   1.000  C
  H215     1.0000 0.12350  0.76220  0.35790  Biso   1.000  H
  H216     1.0000 0.23230  0.72190  0.39370  Biso   1.000  H
  H217     1.0000 0.29430  0.75110  0.48790  Biso   1.000  H
  O63      1.0000 0.69556  0.88701  0.76412  Biso   1.000  O
  O64      1.0000 0.72263  0.90062  0.85887  Biso   1.000  O
  C280     1.0000 0.72100  0.91158  0.80595  Biso   1.000  C
  C281     1.0000 0.75276  0.95826  0.78719  Biso   1.000  C
  C282     1.0000 0.78114  0.98787  0.82977  Biso   1.000  C
  H218     1.0000 0.78097  0.97863  0.87033  Biso   1.000  H
  C283     1.0000 0.80989  0.03105  0.81314  Biso   1.000  C
  H219     1.0000 0.82977  0.05093  0.84243  Biso   1.000  H
  C284     1.0000 0.81018  0.04573  0.75476  Biso   1.000  C
  C285     1.0000 0.78151  0.01580  0.71251  Biso   1.000  C
  H220     1.0000 0.78147  0.02503  0.67203  Biso   1.000  H
  C286     1.0000 0.75286  0.97240  0.72914  Biso   1.000  C
  H221     1.0000 0.73317  0.95233  0.69993  Biso   1.000  H
  C287     1.0000 0.83805  0.09272  0.73761  Biso   1.000  C
  C288     1.0000 0.82007  0.11255  0.70321  Biso   1.000  C
  H222     1.0000 0.79017  0.09553  0.69123  Biso   1.000  H
  H223     1.0000 0.89897  0.05523  0.72703  Biso   1.000  H
  H224     1.0000 0.96097  0.08443  0.82123  Biso   1.000  H
  O65      1.0000 0.36222  0.22035  0.09746  Biso   1.000  O
  O66      1.0000 0.38929  0.23396  0.19221  Biso   1.000  O
  C289     1.0000 0.38766  0.24492  0.13929  Biso   1.000  C
  C290     1.0000 0.41942  0.29160  0.12053  Biso   1.000  C
  C291     1.0000 0.44780  0.32121  0.16311  Biso   1.000  C
  H225     1.0000 0.44763  0.31197  0.20367  Biso   1.000  H
  C292     1.0000 0.47655  0.36439  0.14648  Biso   1.000  C
  H226     1.0000 0.49643  0.38427  0.17577  Biso   1.000  H
  C293     1.0000 0.47684  0.37907  0.08810  Biso   1.000  C
  C294     1.0000 0.44817  0.34914  0.04585  Biso   1.000  C
  H227     1.0000 0.44813  0.35837  0.00537  Biso   1.000  H
  C295     1.0000 0.41952  0.30574  0.06248  Biso   1.000  C
  H228     1.0000 0.39983  0.28567  0.03327  Biso   1.000  H
  C296     1.0000 0.50471  0.42606  0.07095  Biso   1.000  C
  C297     1.0000 0.48673  0.44589  0.03655  Biso   1.000  C
  H229     1.0000 0.45683  0.42887  0.02457  Biso   1.000  H
  H230     1.0000 0.56563  0.38857  0.06037  Biso   1.000  H
  H231     1.0000 0.62763  0.41777  0.15457  Biso   1.000  H
  O67      1.0000 0.52479  0.97111  0.43079  Biso   1.000  O
  O68      1.0000 0.51133  0.94404  0.52554  Biso   1.000  O
  C298     1.0000 0.52392  0.94567  0.47262  Biso   1.000  C
  C299     1.0000 0.53884  0.91391  0.45386  Biso   1.000  C
  C300     1.0000 0.54007  0.88553  0.49644  Biso   1.000  C
  H232     1.0000 0.53100  0.88570  0.53700  Biso   1.000  H
  C301     1.0000 0.55450  0.85678  0.47981  Biso   1.000  C
  H233     1.0000 0.55450  0.83690  0.50910  Biso   1.000  H
  C302     1.0000 0.56889  0.85649  0.42143  Biso   1.000  C
  C303     1.0000 0.56763  0.88516  0.37918  Biso   1.000  C
  H234     1.0000 0.57690  0.88520  0.33870  Biso   1.000  H
  C304     1.0000 0.55288  0.91381  0.39581  Biso   1.000  C
  H235     1.0000 0.55250  0.93350  0.36660  Biso   1.000  H
  C305     1.0000 0.58801  0.82862  0.40428  Biso   1.000  C
  C306     1.0000 0.62582  0.84660  0.36988  Biso   1.000  C
  H236     1.0000 0.63870  0.87650  0.35790  Biso   1.000  H
  H237     1.0000 0.48960  0.76770  0.39370  Biso   1.000  H
  H238     1.0000 0.45680  0.70570  0.48790  Biso   1.000  H
  O69      1.0000 0.19146  0.30444  0.76412  Biso   1.000  O
  O70      1.0000 0.17800  0.27737  0.85887  Biso   1.000  O
  C307     1.0000 0.19059  0.27900  0.80595  Biso   1.000  C
  C308     1.0000 0.20551  0.24724  0.78719  Biso   1.000  C
  C309     1.0000 0.20674  0.21886  0.82977  Biso   1.000  C
  H239     1.0000 0.19767  0.21903  0.87033  Biso   1.000  H
  C310     1.0000 0.22117  0.19011  0.81314  Biso   1.000  C
  H240     1.0000 0.22117  0.17023  0.84243  Biso   1.000  H
  C311     1.0000 0.23556  0.18982  0.75476  Biso   1.000  C
  C312     1.0000 0.23430  0.21849  0.71251  Biso   1.000  C
  H241     1.0000 0.24357  0.21853  0.67203  Biso   1.000  H
  C313     1.0000 0.21955  0.24714  0.72914  Biso   1.000  C
  H242     1.0000 0.21917  0.26683  0.69993  Biso   1.000  H
  C314     1.0000 0.25468  0.16195  0.73761  Biso   1.000  C
  C315     1.0000 0.29249  0.17993  0.70321  Biso   1.000  C
  H243     1.0000 0.30537  0.20983  0.69123  Biso   1.000  H
  H244     1.0000 0.15627  0.10103  0.72703  Biso   1.000  H
  H245     1.0000 0.12347  0.03903  0.82123  Biso   1.000  H
  O71      1.0000 0.85812  0.63778  0.09746  Biso   1.000  O
  O72      1.0000 0.84466  0.61071  0.19221  Biso   1.000  O
  C316     1.0000 0.85725  0.61234  0.13929  Biso   1.000  C
  C317     1.0000 0.87217  0.58058  0.12053  Biso   1.000  C
  C318     1.0000 0.87340  0.55220  0.16311  Biso   1.000  C
  H246     1.0000 0.86433  0.55237  0.20367  Biso   1.000  H
  C319     1.0000 0.88783  0.52345  0.14648  Biso   1.000  C
  H247     1.0000 0.88783  0.50357  0.17577  Biso   1.000  H
  C320     1.0000 0.90222  0.52316  0.08810  Biso   1.000  C
  C321     1.0000 0.90096  0.55183  0.04585  Biso   1.000  C
  H248     1.0000 0.91023  0.55187  0.00537  Biso   1.000  H
  C322     1.0000 0.88621  0.58048  0.06248  Biso   1.000  C
  H249     1.0000 0.88583  0.60017  0.03327  Biso   1.000  H
  C323     1.0000 0.92134  0.49529  0.07095  Biso   1.000  C
  C324     1.0000 0.95915  0.51327  0.03655  Biso   1.000  C
  H250     1.0000 0.97203  0.54317  0.02457  Biso   1.000  H
  H251     1.0000 0.82293  0.43437  0.06037  Biso   1.000  H
  H252     1.0000 0.79013  0.37237  0.15457  Biso   1.000  H
  Cu1      1.0000 0.50787  0.49213  0.44451  Biso   1.000  Cu
  Cu2      1.0000 0.17454  0.82546  0.77784  Biso   1.000  Cu
  Cu3      1.0000 0.84120  0.15880  0.11118  Biso   1.000  Cu
  Cu4      1.0000 0.50787  0.01574  0.44451  Biso   1.000  Cu
  Cu5      1.0000 0.17454  0.34907  0.77784  Biso   1.000  Cu
  Cu6      1.0000 0.84120  0.68241  0.11118  Biso   1.000  Cu
  Cu7      1.0000 0.98426  0.49213  0.44451  Biso   1.000  Cu
  Cu8      1.0000 0.65093  0.82546  0.77784  Biso   1.000  Cu
  Cu9      1.0000 0.31759  0.15880  0.11118  Biso   1.000  Cu
  Cu10     1.0000 0.49213  0.50787  0.55549  Biso   1.000  Cu
  Cu11     1.0000 0.15880  0.84120  0.88882  Biso   1.000  Cu
  Cu12     1.0000 0.82546  0.17454  0.22216  Biso   1.000  Cu
  Cu13     1.0000 0.01574  0.50787  0.55549  Biso   1.000  Cu
  Cu14     1.0000 0.68241  0.84120  0.88882  Biso   1.000  Cu
  Cu15     1.0000 0.34907  0.17454  0.22216  Biso   1.000  Cu
  Cu16     1.0000 0.49213  0.98426  0.55549  Biso   1.000  Cu
  Cu17     1.0000 0.15880  0.31759  0.88882  Biso   1.000  Cu
  Cu18     1.0000 0.82546  0.65093  0.22216  Biso   1.000  Cu
  O73      1.0000 0.53000  0.76500  0.45522  Biso   1.000  O
  C325     1.0000 0.64604  0.82302  0.35188  Biso   1.000  C
  C326     1.0000 0.56845  0.78423  0.42080  Biso   1.000  C
  C327     1.0000 0.49081  0.74541  0.41990  Biso   1.000  C
  C328     1.0000 0.45500  0.72750  0.46230  Biso   1.000  C
  H253     1.0000 0.42710  0.71355  0.44020  Biso   1.000  H
  O74      1.0000 0.19667  0.09833  0.78855  Biso   1.000  O
  C329     1.0000 0.31271  0.15635  0.68521  Biso   1.000  C
  C330     1.0000 0.23512  0.11756  0.75413  Biso   1.000  C
  C331     1.0000 0.15748  0.07874  0.75323  Biso   1.000  C
  C332     1.0000 0.12167  0.06083  0.79563  Biso   1.000  C
  H254     1.0000 0.09377  0.04688  0.77353  Biso   1.000  H
  O75      1.0000 0.86333  0.43167  0.12189  Biso   1.000  O
  C333     1.0000 0.97937  0.48969  0.01855  Biso   1.000  C
  C334     1.0000 0.90178  0.45089  0.08747  Biso   1.000  C
  C335     1.0000 0.82414  0.41207  0.08657  Biso   1.000  C
  C336     1.0000 0.78833  0.39417  0.12897  Biso   1.000  C
  H255     1.0000 0.76043  0.38022  0.10687  Biso   1.000  H
  O76      1.0000 0.23500  0.76500  0.45522  Biso   1.000  O
  C337     1.0000 0.17698  0.82302  0.35188  Biso   1.000  C
  C338     1.0000 0.21577  0.78423  0.42080  Biso   1.000  C
  C339     1.0000 0.25459  0.74541  0.41990  Biso   1.000  C
  C340     1.0000 0.27250  0.72750  0.46230  Biso   1.000  C
  H256     1.0000 0.28645  0.71355  0.44020  Biso   1.000  H
  O77      1.0000 0.90167  0.09833  0.78855  Biso   1.000  O
  C341     1.0000 0.84365  0.15635  0.68521  Biso   1.000  C
  C342     1.0000 0.88244  0.11756  0.75413  Biso   1.000  C
  C343     1.0000 0.92126  0.07874  0.75323  Biso   1.000  C
  C344     1.0000 0.93917  0.06083  0.79563  Biso   1.000  C
  H257     1.0000 0.95312  0.04688  0.77353  Biso   1.000  H
  O78      1.0000 0.56833  0.43167  0.12189  Biso   1.000  O
  C345     1.0000 0.51031  0.48969  0.01855  Biso   1.000  C
  C346     1.0000 0.54911  0.45089  0.08747  Biso   1.000  C
  C347     1.0000 0.58793  0.41207  0.08657  Biso   1.000  C
  C348     1.0000 0.60583  0.39417  0.12897  Biso   1.000  C
  H258     1.0000 0.61978  0.38022  0.10687  Biso   1.000  H
  O79      1.0000 0.23500  0.47000  0.45522  Biso   1.000  O
  C349     1.0000 0.17698  0.35396  0.35188  Biso   1.000  C
  C350     1.0000 0.21577  0.43155  0.42080  Biso   1.000  C
  C351     1.0000 0.25459  0.50919  0.41990  Biso   1.000  C
  C352     1.0000 0.27250  0.54500  0.46230  Biso   1.000  C
  H259     1.0000 0.28645  0.57290  0.44020  Biso   1.000  H
  O80      1.0000 0.90167  0.80333  0.78855  Biso   1.000  O
  C353     1.0000 0.84365  0.68729  0.68521  Biso   1.000  C
  C354     1.0000 0.88244  0.76488  0.75413  Biso   1.000  C
  C355     1.0000 0.92126  0.84252  0.75323  Biso   1.000  C
  C356     1.0000 0.93917  0.87833  0.79563  Biso   1.000  C
  H260     1.0000 0.95312  0.90623  0.77353  Biso   1.000  H
  O81      1.0000 0.56833  0.13667  0.12189  Biso   1.000  O
  C357     1.0000 0.51031  0.02063  0.01855  Biso   1.000  C
  C358     1.0000 0.54911  0.09822  0.08747  Biso   1.000  C
  C359     1.0000 0.58793  0.17586  0.08657  Biso   1.000  C
  C360     1.0000 0.60583  0.21167  0.12897  Biso   1.000  C
  H261     1.0000 0.61978  0.23957  0.10687  Biso   1.000  H
  O82      1.0000 0.76500  0.53000  0.54478  Biso   1.000  O
  C361     1.0000 0.82302  0.64604  0.64812  Biso   1.000  C
  C362     1.0000 0.78423  0.56845  0.57920  Biso   1.000  C
  C363     1.0000 0.74541  0.49081  0.58010  Biso   1.000  C
  C364     1.0000 0.72750  0.45500  0.53770  Biso   1.000  C
  H262     1.0000 0.71355  0.42710  0.55980  Biso   1.000  H
  O83      1.0000 0.43167  0.86333  0.87811  Biso   1.000  O
  C365     1.0000 0.48969  0.97937  0.98145  Biso   1.000  C
  C366     1.0000 0.45089  0.90178  0.91253  Biso   1.000  C
  C367     1.0000 0.41207  0.82414  0.91343  Biso   1.000  C
  C368     1.0000 0.39417  0.78833  0.87103  Biso   1.000  C
  H263     1.0000 0.38022  0.76043  0.89313  Biso   1.000  H
  O84      1.0000 0.09833  0.19667  0.21145  Biso   1.000  O
  C369     1.0000 0.15635  0.31271  0.31479  Biso   1.000  C
  C370     1.0000 0.11756  0.23512  0.24587  Biso   1.000  C
  C371     1.0000 0.07874  0.15748  0.24677  Biso   1.000  C
  C372     1.0000 0.06083  0.12167  0.20437  Biso   1.000  C
  H264     1.0000 0.04688  0.09377  0.22647  Biso   1.000  H
  O85      1.0000 0.76500  0.23500  0.54478  Biso   1.000  O
  C373     1.0000 0.82302  0.17698  0.64812  Biso   1.000  C
  C374     1.0000 0.78423  0.21577  0.57920  Biso   1.000  C
  C375     1.0000 0.74541  0.25459  0.58010  Biso   1.000  C
  C376     1.0000 0.72750  0.27250  0.53770  Biso   1.000  C
  H265     1.0000 0.71355  0.28645  0.55980  Biso   1.000  H
  O86      1.0000 0.43167  0.56833  0.87811  Biso   1.000  O
  C377     1.0000 0.48969  0.51031  0.98145  Biso   1.000  C
  C378     1.0000 0.45089  0.54911  0.91253  Biso   1.000  C
  C379     1.0000 0.41207  0.58793  0.91343  Biso   1.000  C
  C380     1.0000 0.39417  0.60583  0.87103  Biso   1.000  C
  H266     1.0000 0.38022  0.61978  0.89313  Biso   1.000  H
  O87      1.0000 0.09833  0.90167  0.21145  Biso   1.000  O
  C381     1.0000 0.15635  0.84365  0.31479  Biso   1.000  C
  C382     1.0000 0.11756  0.88244  0.24587  Biso   1.000  C
  C383     1.0000 0.07874  0.92126  0.24677  Biso   1.000  C
  C384     1.0000 0.06083  0.93917  0.20437  Biso   1.000  C
  H267     1.0000 0.04688  0.95312  0.22647  Biso   1.000  H
  O88      1.0000 0.47000  0.23500  0.54478  Biso   1.000  O
  C385     1.0000 0.35396  0.17698  0.64812  Biso   1.000  C
  C386     1.0000 0.43155  0.21577  0.57920  Biso   1.000  C
  C387     1.0000 0.50919  0.25459  0.58010  Biso   1.000  C
  C388     1.0000 0.54500  0.27250  0.53770  Biso   1.000  C
  H268     1.0000 0.57290  0.28645  0.55980  Biso   1.000  H
  O89      1.0000 0.13667  0.56833  0.87811  Biso   1.000  O
  C389     1.0000 0.02063  0.51031  0.98145  Biso   1.000  C
  C390     1.0000 0.09822  0.54911  0.91253  Biso   1.000  C
  C391     1.0000 0.17586  0.58793  0.91343  Biso   1.000  C
  C392     1.0000 0.21167  0.60583  0.87103  Biso   1.000  C
  H269     1.0000 0.23957  0.61978  0.89313  Biso   1.000  H
  O90      1.0000 0.80333  0.90167  0.21145  Biso   1.000  O
  C393     1.0000 0.68729  0.84365  0.31479  Biso   1.000  C
  C394     1.0000 0.76488  0.88244  0.24587  Biso   1.000  C
  C395     1.0000 0.84252  0.92126  0.24677  Biso   1.000  C
  C396     1.0000 0.87833  0.93917  0.20437  Biso   1.000  C
  H270     1.0000 0.90623  0.95312  0.22647  Biso   1.000  H
