data_image0
_cell_length_a       35.7128
_cell_length_b       35.7128
_cell_length_c       17.6617
_cell_angle_alpha    90
_cell_angle_beta     90
_cell_angle_gamma    120

_symmetry_space_group_name_H-M    "P 1"
_symmetry_int_tables_number       1

loop_
  _symmetry_equiv_pos_as_xyz
  'x, y, z'

loop_
  _atom_site_label
  _atom_site_occupancy
  _atom_site_fract_x
  _atom_site_fract_y
  _atom_site_fract_z
  _atom_site_thermal_displace_type
  _atom_site_B_iso_or_equiv
  _atom_site_type_symbol
  O1       1.0000 0.77842  0.14467  0.08527  Biso   1.000  O
  O2       1.0000 0.76777  0.15490  0.20710  Biso   1.000  O
  C1       1.0000 0.75568  0.14510  0.14000  Biso   1.000  C
  C2       1.0000 0.70949  0.13193  0.12170  Biso   1.000  C
  C3       1.0000 0.68117  0.12884  0.17830  Biso   1.000  C
  H1       1.0000 0.69110  0.13630  0.22780  Biso   1.000  H
  C4       1.0000 0.63786  0.11457  0.16160  Biso   1.000  C
  H2       1.0000 0.61930  0.11330  0.19980  Biso   1.000  H
  C5       1.0000 0.62253  0.10258  0.09010  Biso   1.000  C
  C6       1.0000 0.65057  0.10568  0.03400  Biso   1.000  C
  H3       1.0000 0.64060  0.09790  0.98460  Biso   1.000  H
  C7       1.0000 0.69397  0.12046  0.05080  Biso   1.000  C
  H4       1.0000 0.71260  0.12240  0.01210  Biso   1.000  H
  C8       1.0000 0.57525  0.08265  0.07240  Biso   1.000  C
  C9       1.0000 0.55486  0.04304  0.03670  Biso   1.000  C
  H5       1.0000 0.57100  0.02990  0.02480  Biso   1.000  H
  H6       1.0000 0.56600  0.17500  0.04720  Biso   1.000  H
  H7       1.0000 0.59840  0.24070  0.10840  Biso   1.000  H
  O3       1.0000 0.44509  0.47800  0.41860  Biso   1.000  O
  O4       1.0000 0.43444  0.48823  0.54043  Biso   1.000  O
  C10      1.0000 0.42235  0.47843  0.47333  Biso   1.000  C
  C11      1.0000 0.37616  0.46526  0.45503  Biso   1.000  C
  C12      1.0000 0.34784  0.46217  0.51163  Biso   1.000  C
  H8       1.0000 0.35777  0.46963  0.56113  Biso   1.000  H
  C13      1.0000 0.30453  0.44790  0.49493  Biso   1.000  C
  H9       1.0000 0.28597  0.44663  0.53313  Biso   1.000  H
  C14      1.0000 0.28920  0.43591  0.42343  Biso   1.000  C
  C15      1.0000 0.31724  0.43901  0.36733  Biso   1.000  C
  H10      1.0000 0.30727  0.43123  0.31793  Biso   1.000  H
  C16      1.0000 0.36064  0.45379  0.38413  Biso   1.000  C
  H11      1.0000 0.37927  0.45573  0.34543  Biso   1.000  H
  C17      1.0000 0.24192  0.41598  0.40573  Biso   1.000  C
  C18      1.0000 0.22153  0.37637  0.37003  Biso   1.000  C
  H12      1.0000 0.23767  0.36323  0.35813  Biso   1.000  H
  H13      1.0000 0.23267  0.50833  0.38053  Biso   1.000  H
  H14      1.0000 0.26507  0.57403  0.44173  Biso   1.000  H
  O5       1.0000 0.11175  0.81134  0.75194  Biso   1.000  O
  O6       1.0000 0.10110  0.82157  0.87377  Biso   1.000  O
  C19      1.0000 0.08901  0.81177  0.80667  Biso   1.000  C
  C20      1.0000 0.04282  0.79860  0.78837  Biso   1.000  C
  C21      1.0000 0.01450  0.79551  0.84497  Biso   1.000  C
  H15      1.0000 0.02443  0.80297  0.89447  Biso   1.000  H
  C22      1.0000 0.97119  0.78124  0.82827  Biso   1.000  C
  H16      1.0000 0.95263  0.77997  0.86647  Biso   1.000  H
  C23      1.0000 0.95586  0.76925  0.75677  Biso   1.000  C
  C24      1.0000 0.98390  0.77235  0.70067  Biso   1.000  C
  H17      1.0000 0.97393  0.76457  0.65127  Biso   1.000  H
  C25      1.0000 0.02730  0.78713  0.71747  Biso   1.000  C
  H18      1.0000 0.04593  0.78907  0.67877  Biso   1.000  H
  C26      1.0000 0.90858  0.74932  0.73907  Biso   1.000  C
  C27      1.0000 0.88819  0.70971  0.70337  Biso   1.000  C
  H19      1.0000 0.90433  0.69657  0.69147  Biso   1.000  H
  H20      1.0000 0.89933  0.84167  0.71387  Biso   1.000  H
  H21      1.0000 0.93173  0.90737  0.77507  Biso   1.000  H
  O7       1.0000 0.85533  0.63375  0.08527  Biso   1.000  O
  O8       1.0000 0.84510  0.61287  0.20710  Biso   1.000  O
  C28      1.0000 0.85490  0.61058  0.14000  Biso   1.000  C
  C29      1.0000 0.86807  0.57756  0.12170  Biso   1.000  C
  C30      1.0000 0.87116  0.55233  0.17830  Biso   1.000  C
  H22      1.0000 0.86370  0.55480  0.22780  Biso   1.000  H
  C31      1.0000 0.88543  0.52329  0.16160  Biso   1.000  C
  H23      1.0000 0.88670  0.50600  0.19980  Biso   1.000  H
  C32      1.0000 0.89742  0.51995  0.09010  Biso   1.000  C
  C33      1.0000 0.89432  0.54489  0.03400  Biso   1.000  C
  H24      1.0000 0.90210  0.54270  0.98460  Biso   1.000  H
  C34      1.0000 0.87954  0.57351  0.05080  Biso   1.000  C
  H25      1.0000 0.87760  0.59020  0.01210  Biso   1.000  H
  C35      1.0000 0.91735  0.49260  0.07240  Biso   1.000  C
  C36      1.0000 0.95696  0.51182  0.03670  Biso   1.000  C
  H26      1.0000 0.97010  0.54110  0.02480  Biso   1.000  H
  H27      1.0000 0.82500  0.39100  0.04720  Biso   1.000  H
  H28      1.0000 0.75930  0.35770  0.10840  Biso   1.000  H
  O9       1.0000 0.52200  0.96708  0.41860  Biso   1.000  O
  O10      1.0000 0.51177  0.94620  0.54043  Biso   1.000  O
  C37      1.0000 0.52157  0.94391  0.47333  Biso   1.000  C
  C38      1.0000 0.53474  0.91089  0.45503  Biso   1.000  C
  C39      1.0000 0.53783  0.88566  0.51163  Biso   1.000  C
  H29      1.0000 0.53037  0.88813  0.56113  Biso   1.000  H
  C40      1.0000 0.55210  0.85662  0.49493  Biso   1.000  C
  H30      1.0000 0.55337  0.83933  0.53313  Biso   1.000  H
  C41      1.0000 0.56409  0.85328  0.42343  Biso   1.000  C
  C42      1.0000 0.56099  0.87822  0.36733  Biso   1.000  C
  H31      1.0000 0.56877  0.87603  0.31793  Biso   1.000  H
  C43      1.0000 0.54621  0.90684  0.38413  Biso   1.000  C
  H32      1.0000 0.54427  0.92353  0.34543  Biso   1.000  H
  C44      1.0000 0.58402  0.82593  0.40573  Biso   1.000  C
  C45      1.0000 0.62363  0.84515  0.37003  Biso   1.000  C
  H33      1.0000 0.63677  0.87443  0.35813  Biso   1.000  H
  H34      1.0000 0.49167  0.72433  0.38053  Biso   1.000  H
  H35      1.0000 0.42597  0.69103  0.44173  Biso   1.000  H
  O11      1.0000 0.18866  0.30042  0.75194  Biso   1.000  O
  O12      1.0000 0.17843  0.27954  0.87377  Biso   1.000  O
  C46      1.0000 0.18823  0.27725  0.80667  Biso   1.000  C
  C47      1.0000 0.20140  0.24423  0.78837  Biso   1.000  C
  C48      1.0000 0.20449  0.21900  0.84497  Biso   1.000  C
  H36      1.0000 0.19703  0.22147  0.89447  Biso   1.000  H
  C49      1.0000 0.21876  0.18996  0.82827  Biso   1.000  C
  H37      1.0000 0.22003  0.17267  0.86647  Biso   1.000  H
  C50      1.0000 0.23075  0.18662  0.75677  Biso   1.000  C
  C51      1.0000 0.22765  0.21156  0.70067  Biso   1.000  C
  H38      1.0000 0.23543  0.20937  0.65127  Biso   1.000  H
  C52      1.0000 0.21287  0.24018  0.71747  Biso   1.000  C
  H39      1.0000 0.21093  0.25687  0.67877  Biso   1.000  H
  C53      1.0000 0.25068  0.15927  0.73907  Biso   1.000  C
  C54      1.0000 0.29029  0.17849  0.70337  Biso   1.000  C
  H40      1.0000 0.30343  0.20777  0.69147  Biso   1.000  H
  H41      1.0000 0.15833  0.05767  0.71387  Biso   1.000  H
  H42      1.0000 0.09263  0.02437  0.77507  Biso   1.000  H
  O13      1.0000 0.36625  0.22158  0.08527  Biso   1.000  O
  O14      1.0000 0.38713  0.23223  0.20710  Biso   1.000  O
  C55      1.0000 0.38942  0.24432  0.14000  Biso   1.000  C
  C56      1.0000 0.42244  0.29051  0.12170  Biso   1.000  C
  C57      1.0000 0.44767  0.31883  0.17830  Biso   1.000  C
  H43      1.0000 0.44520  0.30890  0.22780  Biso   1.000  H
  C58      1.0000 0.47671  0.36214  0.16160  Biso   1.000  C
  H44      1.0000 0.49400  0.38070  0.19980  Biso   1.000  H
  C59      1.0000 0.48005  0.37747  0.09010  Biso   1.000  C
  C60      1.0000 0.45511  0.34943  0.03400  Biso   1.000  C
  H45      1.0000 0.45730  0.35940  0.98460  Biso   1.000  H
  C61      1.0000 0.42649  0.30603  0.05080  Biso   1.000  C
  H46      1.0000 0.40980  0.28740  0.01210  Biso   1.000  H
  C62      1.0000 0.50740  0.42475  0.07240  Biso   1.000  C
  C63      1.0000 0.48818  0.44514  0.03670  Biso   1.000  C
  H47      1.0000 0.45890  0.42900  0.02480  Biso   1.000  H
  H48      1.0000 0.60900  0.43400  0.04720  Biso   1.000  H
  H49      1.0000 0.64230  0.40160  0.10840  Biso   1.000  H
  O15      1.0000 0.03292  0.55491  0.41860  Biso   1.000  O
  O16      1.0000 0.05380  0.56556  0.54043  Biso   1.000  O
  C64      1.0000 0.05609  0.57765  0.47333  Biso   1.000  C
  C65      1.0000 0.08911  0.62384  0.45503  Biso   1.000  C
  C66      1.0000 0.11434  0.65216  0.51163  Biso   1.000  C
  H50      1.0000 0.11187  0.64223  0.56113  Biso   1.000  H
  C67      1.0000 0.14338  0.69547  0.49493  Biso   1.000  C
  H51      1.0000 0.16067  0.71403  0.53313  Biso   1.000  H
  C68      1.0000 0.14672  0.71080  0.42343  Biso   1.000  C
  C69      1.0000 0.12178  0.68276  0.36733  Biso   1.000  C
  H52      1.0000 0.12397  0.69273  0.31793  Biso   1.000  H
  C70      1.0000 0.09316  0.63936  0.38413  Biso   1.000  C
  H53      1.0000 0.07647  0.62073  0.34543  Biso   1.000  H
  C71      1.0000 0.17407  0.75808  0.40573  Biso   1.000  C
  C72      1.0000 0.15485  0.77847  0.37003  Biso   1.000  C
  H54      1.0000 0.12557  0.76233  0.35813  Biso   1.000  H
  H55      1.0000 0.27567  0.76733  0.38053  Biso   1.000  H
  H56      1.0000 0.30897  0.73493  0.44173  Biso   1.000  H
  O17      1.0000 0.69958  0.88825  0.75194  Biso   1.000  O
  O18      1.0000 0.72046  0.89890  0.87377  Biso   1.000  O
  C73      1.0000 0.72275  0.91099  0.80667  Biso   1.000  C
  C74      1.0000 0.75577  0.95718  0.78837  Biso   1.000  C
  C75      1.0000 0.78100  0.98550  0.84497  Biso   1.000  C
  H57      1.0000 0.77853  0.97557  0.89447  Biso   1.000  H
  C76      1.0000 0.81004  0.02881  0.82827  Biso   1.000  C
  H58      1.0000 0.82733  0.04737  0.86647  Biso   1.000  H
  C77      1.0000 0.81338  0.04414  0.75677  Biso   1.000  C
  C78      1.0000 0.78844  0.01610  0.70067  Biso   1.000  C
  H59      1.0000 0.79063  0.02607  0.65127  Biso   1.000  H
  C79      1.0000 0.75982  0.97270  0.71747  Biso   1.000  C
  H60      1.0000 0.74313  0.95407  0.67877  Biso   1.000  H
  C80      1.0000 0.84073  0.09142  0.73907  Biso   1.000  C
  C81      1.0000 0.82151  0.11181  0.70337  Biso   1.000  C
  H61      1.0000 0.79223  0.09567  0.69147  Biso   1.000  H
  H62      1.0000 0.94233  0.10067  0.71387  Biso   1.000  H
  H63      1.0000 0.97563  0.06827  0.77507  Biso   1.000  H
  O19      1.0000 0.14467  0.77842  0.91473  Biso   1.000  O
  O20      1.0000 0.15490  0.76777  0.79290  Biso   1.000  O
  C82      1.0000 0.14510  0.75568  0.86000  Biso   1.000  C
  C83      1.0000 0.13193  0.70949  0.87830  Biso   1.000  C
  C84      1.0000 0.12884  0.68117  0.82170  Biso   1.000  C
  H64      1.0000 0.13630  0.69110  0.77220  Biso   1.000  H
  C85      1.0000 0.11457  0.63786  0.83840  Biso   1.000  C
  H65      1.0000 0.11330  0.61930  0.80020  Biso   1.000  H
  C86      1.0000 0.10258  0.62253  0.90990  Biso   1.000  C
  C87      1.0000 0.10568  0.65057  0.96600  Biso   1.000  C
  H66      1.0000 0.09790  0.64060  0.01540  Biso   1.000  H
  C88      1.0000 0.12046  0.69397  0.94920  Biso   1.000  C
  H67      1.0000 0.12240  0.71260  0.98790  Biso   1.000  H
  C89      1.0000 0.08265  0.57525  0.92760  Biso   1.000  C
  C90      1.0000 0.04304  0.55486  0.96330  Biso   1.000  C
  H68      1.0000 0.02990  0.57100  0.97520  Biso   1.000  H
  H69      1.0000 0.17500  0.56600  0.95280  Biso   1.000  H
  H70      1.0000 0.24070  0.59840  0.89160  Biso   1.000  H
  O21      1.0000 0.81134  0.11175  0.24806  Biso   1.000  O
  O22      1.0000 0.82157  0.10110  0.12623  Biso   1.000  O
  C91      1.0000 0.81177  0.08901  0.19333  Biso   1.000  C
  C92      1.0000 0.79860  0.04282  0.21163  Biso   1.000  C
  C93      1.0000 0.79551  0.01450  0.15503  Biso   1.000  C
  H71      1.0000 0.80297  0.02443  0.10553  Biso   1.000  H
  C94      1.0000 0.78124  0.97119  0.17173  Biso   1.000  C
  H72      1.0000 0.77997  0.95263  0.13353  Biso   1.000  H
  C95      1.0000 0.76925  0.95586  0.24323  Biso   1.000  C
  C96      1.0000 0.77235  0.98390  0.29933  Biso   1.000  C
  H73      1.0000 0.76457  0.97393  0.34873  Biso   1.000  H
  C97      1.0000 0.78713  0.02730  0.28253  Biso   1.000  C
  H74      1.0000 0.78907  0.04593  0.32123  Biso   1.000  H
  C98      1.0000 0.74932  0.90858  0.26093  Biso   1.000  C
  C99      1.0000 0.70971  0.88819  0.29663  Biso   1.000  C
  H75      1.0000 0.69657  0.90433  0.30853  Biso   1.000  H
  H76      1.0000 0.84167  0.89933  0.28613  Biso   1.000  H
  H77      1.0000 0.90737  0.93173  0.22493  Biso   1.000  H
  O23      1.0000 0.47800  0.44509  0.58140  Biso   1.000  O
  O24      1.0000 0.48823  0.43444  0.45957  Biso   1.000  O
  C100     1.0000 0.47843  0.42235  0.52667  Biso   1.000  C
  C101     1.0000 0.46526  0.37616  0.54497  Biso   1.000  C
  C102     1.0000 0.46217  0.34784  0.48837  Biso   1.000  C
  H78      1.0000 0.46963  0.35777  0.43887  Biso   1.000  H
  C103     1.0000 0.44790  0.30453  0.50507  Biso   1.000  C
  H79      1.0000 0.44663  0.28597  0.46687  Biso   1.000  H
  C104     1.0000 0.43591  0.28920  0.57657  Biso   1.000  C
  C105     1.0000 0.43901  0.31724  0.63267  Biso   1.000  C
  H80      1.0000 0.43123  0.30727  0.68207  Biso   1.000  H
  C106     1.0000 0.45379  0.36064  0.61587  Biso   1.000  C
  H81      1.0000 0.45573  0.37927  0.65457  Biso   1.000  H
  C107     1.0000 0.41598  0.24192  0.59427  Biso   1.000  C
  C108     1.0000 0.37637  0.22153  0.62997  Biso   1.000  C
  H82      1.0000 0.36323  0.23767  0.64187  Biso   1.000  H
  H83      1.0000 0.50833  0.23267  0.61947  Biso   1.000  H
  H84      1.0000 0.57403  0.26507  0.55827  Biso   1.000  H
  O25      1.0000 0.63375  0.85533  0.91473  Biso   1.000  O
  O26      1.0000 0.61287  0.84510  0.79290  Biso   1.000  O
  C109     1.0000 0.61058  0.85490  0.86000  Biso   1.000  C
  C110     1.0000 0.57756  0.86807  0.87830  Biso   1.000  C
  C111     1.0000 0.55233  0.87116  0.82170  Biso   1.000  C
  H85      1.0000 0.55480  0.86370  0.77220  Biso   1.000  H
  C112     1.0000 0.52329  0.88543  0.83840  Biso   1.000  C
  H86      1.0000 0.50600  0.88670  0.80020  Biso   1.000  H
  C113     1.0000 0.51995  0.89742  0.90990  Biso   1.000  C
  C114     1.0000 0.54489  0.89432  0.96600  Biso   1.000  C
  H87      1.0000 0.54270  0.90210  0.01540  Biso   1.000  H
  C115     1.0000 0.57351  0.87954  0.94920  Biso   1.000  C
  H88      1.0000 0.59020  0.87760  0.98790  Biso   1.000  H
  C116     1.0000 0.49260  0.91735  0.92760  Biso   1.000  C
  C117     1.0000 0.51182  0.95696  0.96330  Biso   1.000  C
  H89      1.0000 0.54110  0.97010  0.97520  Biso   1.000  H
  H90      1.0000 0.39100  0.82500  0.95280  Biso   1.000  H
  H91      1.0000 0.35770  0.75930  0.89160  Biso   1.000  H
  O27      1.0000 0.30042  0.18866  0.24806  Biso   1.000  O
  O28      1.0000 0.27954  0.17843  0.12623  Biso   1.000  O
  C118     1.0000 0.27725  0.18823  0.19333  Biso   1.000  C
  C119     1.0000 0.24423  0.20140  0.21163  Biso   1.000  C
  C120     1.0000 0.21900  0.20449  0.15503  Biso   1.000  C
  H92      1.0000 0.22147  0.19703  0.10553  Biso   1.000  H
  C121     1.0000 0.18996  0.21876  0.17173  Biso   1.000  C
  H93      1.0000 0.17267  0.22003  0.13353  Biso   1.000  H
  C122     1.0000 0.18662  0.23075  0.24323  Biso   1.000  C
  C123     1.0000 0.21156  0.22765  0.29933  Biso   1.000  C
  H94      1.0000 0.20937  0.23543  0.34873  Biso   1.000  H
  C124     1.0000 0.24018  0.21287  0.28253  Biso   1.000  C
  H95      1.0000 0.25687  0.21093  0.32123  Biso   1.000  H
  C125     1.0000 0.15927  0.25068  0.26093  Biso   1.000  C
  C126     1.0000 0.17849  0.29029  0.29663  Biso   1.000  C
  H96      1.0000 0.20777  0.30343  0.30853  Biso   1.000  H
  H97      1.0000 0.05767  0.15833  0.28613  Biso   1.000  H
  H98      1.0000 0.02437  0.09263  0.22493  Biso   1.000  H
  O29      1.0000 0.96708  0.52200  0.58140  Biso   1.000  O
  O30      1.0000 0.94620  0.51177  0.45957  Biso   1.000  O
  C127     1.0000 0.94391  0.52157  0.52667  Biso   1.000  C
  C128     1.0000 0.91089  0.53474  0.54497  Biso   1.000  C
  C129     1.0000 0.88566  0.53783  0.48837  Biso   1.000  C
  H99      1.0000 0.88813  0.53037  0.43887  Biso   1.000  H
  C130     1.0000 0.85662  0.55210  0.50507  Biso   1.000  C
  H100     1.0000 0.83933  0.55337  0.46687  Biso   1.000  H
  C131     1.0000 0.85328  0.56409  0.57657  Biso   1.000  C
  C132     1.0000 0.87822  0.56099  0.63267  Biso   1.000  C
  H101     1.0000 0.87603  0.56877  0.68207  Biso   1.000  H
  C133     1.0000 0.90684  0.54621  0.61587  Biso   1.000  C
  H102     1.0000 0.92353  0.54427  0.65457  Biso   1.000  H
  C134     1.0000 0.82593  0.58402  0.59427  Biso   1.000  C
  C135     1.0000 0.84515  0.62363  0.62997  Biso   1.000  C
  H103     1.0000 0.87443  0.63677  0.64187  Biso   1.000  H
  H104     1.0000 0.72433  0.49167  0.61947  Biso   1.000  H
  H105     1.0000 0.69103  0.42597  0.55827  Biso   1.000  H
  O31      1.0000 0.22158  0.36625  0.91473  Biso   1.000  O
  O32      1.0000 0.23223  0.38713  0.79290  Biso   1.000  O
  C136     1.0000 0.24432  0.38942  0.86000  Biso   1.000  C
  C137     1.0000 0.29051  0.42244  0.87830  Biso   1.000  C
  C138     1.0000 0.31883  0.44767  0.82170  Biso   1.000  C
  H106     1.0000 0.30890  0.44520  0.77220  Biso   1.000  H
  C139     1.0000 0.36214  0.47671  0.83840  Biso   1.000  C
  H107     1.0000 0.38070  0.49400  0.80020  Biso   1.000  H
  C140     1.0000 0.37747  0.48005  0.90990  Biso   1.000  C
  C141     1.0000 0.34943  0.45511  0.96600  Biso   1.000  C
  H108     1.0000 0.35940  0.45730  0.01540  Biso   1.000  H
  C142     1.0000 0.30603  0.42649  0.94920  Biso   1.000  C
  H109     1.0000 0.28740  0.40980  0.98790  Biso   1.000  H
  C143     1.0000 0.42475  0.50740  0.92760  Biso   1.000  C
  C144     1.0000 0.44514  0.48818  0.96330  Biso   1.000  C
  H110     1.0000 0.42900  0.45890  0.97520  Biso   1.000  H
  H111     1.0000 0.43400  0.60900  0.95280  Biso   1.000  H
  H112     1.0000 0.40160  0.64230  0.89160  Biso   1.000  H
  O33      1.0000 0.88825  0.69958  0.24806  Biso   1.000  O
  O34      1.0000 0.89890  0.72046  0.12623  Biso   1.000  O
  C145     1.0000 0.91099  0.72275  0.19333  Biso   1.000  C
  C146     1.0000 0.95718  0.75577  0.21163  Biso   1.000  C
  C147     1.0000 0.98550  0.78100  0.15503  Biso   1.000  C
  H113     1.0000 0.97557  0.77853  0.10553  Biso   1.000  H
  C148     1.0000 0.02881  0.81004  0.17173  Biso   1.000  C
  H114     1.0000 0.04737  0.82733  0.13353  Biso   1.000  H
  C149     1.0000 0.04414  0.81338  0.24323  Biso   1.000  C
  C150     1.0000 0.01610  0.78844  0.29933  Biso   1.000  C
  H115     1.0000 0.02607  0.79063  0.34873  Biso   1.000  H
  C151     1.0000 0.97270  0.75982  0.28253  Biso   1.000  C
  H116     1.0000 0.95407  0.74313  0.32123  Biso   1.000  H
  C152     1.0000 0.09142  0.84073  0.26093  Biso   1.000  C
  C153     1.0000 0.11181  0.82151  0.29663  Biso   1.000  C
  H117     1.0000 0.09567  0.79223  0.30853  Biso   1.000  H
  H118     1.0000 0.10067  0.94233  0.28613  Biso   1.000  H
  H119     1.0000 0.06827  0.97563  0.22493  Biso   1.000  H
  O35      1.0000 0.55491  0.03292  0.58140  Biso   1.000  O
  O36      1.0000 0.56556  0.05380  0.45957  Biso   1.000  O
  C154     1.0000 0.57765  0.05609  0.52667  Biso   1.000  C
  C155     1.0000 0.62384  0.08911  0.54497  Biso   1.000  C
  C156     1.0000 0.65216  0.11434  0.48837  Biso   1.000  C
  H120     1.0000 0.64223  0.11187  0.43887  Biso   1.000  H
  C157     1.0000 0.69547  0.14338  0.50507  Biso   1.000  C
  H121     1.0000 0.71403  0.16067  0.46687  Biso   1.000  H
  C158     1.0000 0.71080  0.14672  0.57657  Biso   1.000  C
  C159     1.0000 0.68276  0.12178  0.63267  Biso   1.000  C
  H122     1.0000 0.69273  0.12397  0.68207  Biso   1.000  H
  C160     1.0000 0.63936  0.09316  0.61587  Biso   1.000  C
  H123     1.0000 0.62073  0.07647  0.65457  Biso   1.000  H
  C161     1.0000 0.75808  0.17407  0.59427  Biso   1.000  C
  C162     1.0000 0.77847  0.15485  0.62997  Biso   1.000  C
  H124     1.0000 0.76233  0.12557  0.64187  Biso   1.000  H
  H125     1.0000 0.76733  0.27567  0.61947  Biso   1.000  H
  H126     1.0000 0.73493  0.30897  0.55827  Biso   1.000  H
  O37      1.0000 0.22158  0.85533  0.91473  Biso   1.000  O
  O38      1.0000 0.23223  0.84510  0.79290  Biso   1.000  O
  C163     1.0000 0.24432  0.85490  0.86000  Biso   1.000  C
  C164     1.0000 0.29051  0.86807  0.87830  Biso   1.000  C
  C165     1.0000 0.31883  0.87116  0.82170  Biso   1.000  C
  H127     1.0000 0.30890  0.86370  0.77220  Biso   1.000  H
  C166     1.0000 0.36214  0.88543  0.83840  Biso   1.000  C
  H128     1.0000 0.38070  0.88670  0.80020  Biso   1.000  H
  C167     1.0000 0.37747  0.89742  0.90990  Biso   1.000  C
  C168     1.0000 0.34943  0.89432  0.96600  Biso   1.000  C
  H129     1.0000 0.35940  0.90210  0.01540  Biso   1.000  H
  C169     1.0000 0.30603  0.87954  0.94920  Biso   1.000  C
  H130     1.0000 0.28740  0.87760  0.98790  Biso   1.000  H
  C170     1.0000 0.42475  0.91735  0.92760  Biso   1.000  C
  C171     1.0000 0.44514  0.95696  0.96330  Biso   1.000  C
  H131     1.0000 0.42900  0.97010  0.97520  Biso   1.000  H
  H132     1.0000 0.43400  0.82500  0.95280  Biso   1.000  H
  H133     1.0000 0.40160  0.75930  0.89160  Biso   1.000  H
  O39      1.0000 0.88825  0.18866  0.24806  Biso   1.000  O
  O40      1.0000 0.89890  0.17843  0.12623  Biso   1.000  O
  C172     1.0000 0.91099  0.18823  0.19333  Biso   1.000  C
  C173     1.0000 0.95718  0.20140  0.21163  Biso   1.000  C
  C174     1.0000 0.98550  0.20449  0.15503  Biso   1.000  C
  H134     1.0000 0.97557  0.19703  0.10553  Biso   1.000  H
  C175     1.0000 0.02881  0.21876  0.17173  Biso   1.000  C
  H135     1.0000 0.04737  0.22003  0.13353  Biso   1.000  H
  C176     1.0000 0.04414  0.23075  0.24323  Biso   1.000  C
  C177     1.0000 0.01610  0.22765  0.29933  Biso   1.000  C
  H136     1.0000 0.02607  0.23543  0.34873  Biso   1.000  H
  C178     1.0000 0.97270  0.21287  0.28253  Biso   1.000  C
  H137     1.0000 0.95407  0.21093  0.32123  Biso   1.000  H
  C179     1.0000 0.09142  0.25068  0.26093  Biso   1.000  C
  C180     1.0000 0.11181  0.29029  0.29663  Biso   1.000  C
  H138     1.0000 0.09567  0.30343  0.30853  Biso   1.000  H
  H139     1.0000 0.10067  0.15833  0.28613  Biso   1.000  H
  H140     1.0000 0.06827  0.09263  0.22493  Biso   1.000  H
  O41      1.0000 0.55491  0.52200  0.58140  Biso   1.000  O
  O42      1.0000 0.56556  0.51177  0.45957  Biso   1.000  O
  C181     1.0000 0.57765  0.52157  0.52667  Biso   1.000  C
  C182     1.0000 0.62384  0.53474  0.54497  Biso   1.000  C
  C183     1.0000 0.65216  0.53783  0.48837  Biso   1.000  C
  H141     1.0000 0.64223  0.53037  0.43887  Biso   1.000  H
  C184     1.0000 0.69547  0.55210  0.50507  Biso   1.000  C
  H142     1.0000 0.71403  0.55337  0.46687  Biso   1.000  H
  C185     1.0000 0.71080  0.56409  0.57657  Biso   1.000  C
  C186     1.0000 0.68276  0.56099  0.63267  Biso   1.000  C
  H143     1.0000 0.69273  0.56877  0.68207  Biso   1.000  H
  C187     1.0000 0.63936  0.54621  0.61587  Biso   1.000  C
  H144     1.0000 0.62073  0.54427  0.65457  Biso   1.000  H
  C188     1.0000 0.75808  0.58402  0.59427  Biso   1.000  C
  C189     1.0000 0.77847  0.62363  0.62997  Biso   1.000  C
  H145     1.0000 0.76233  0.63677  0.64187  Biso   1.000  H
  H146     1.0000 0.76733  0.49167  0.61947  Biso   1.000  H
  H147     1.0000 0.73493  0.42597  0.55827  Biso   1.000  H
  O43      1.0000 0.14467  0.36625  0.91473  Biso   1.000  O
  O44      1.0000 0.15490  0.38713  0.79290  Biso   1.000  O
  C190     1.0000 0.14510  0.38942  0.86000  Biso   1.000  C
  C191     1.0000 0.13193  0.42244  0.87830  Biso   1.000  C
  C192     1.0000 0.12884  0.44767  0.82170  Biso   1.000  C
  H148     1.0000 0.13630  0.44520  0.77220  Biso   1.000  H
  C193     1.0000 0.11457  0.47671  0.83840  Biso   1.000  C
  H149     1.0000 0.11330  0.49400  0.80020  Biso   1.000  H
  C194     1.0000 0.10258  0.48005  0.90990  Biso   1.000  C
  C195     1.0000 0.10568  0.45511  0.96600  Biso   1.000  C
  H150     1.0000 0.09790  0.45730  0.01540  Biso   1.000  H
  C196     1.0000 0.12046  0.42649  0.94920  Biso   1.000  C
  H151     1.0000 0.12240  0.40980  0.98790  Biso   1.000  H
  C197     1.0000 0.08265  0.50740  0.92760  Biso   1.000  C
  C198     1.0000 0.04304  0.48818  0.96330  Biso   1.000  C
  H152     1.0000 0.02990  0.45890  0.97520  Biso   1.000  H
  H153     1.0000 0.17500  0.60900  0.95280  Biso   1.000  H
  H154     1.0000 0.24070  0.64230  0.89160  Biso   1.000  H
  O45      1.0000 0.81134  0.69958  0.24806  Biso   1.000  O
  O46      1.0000 0.82157  0.72046  0.12623  Biso   1.000  O
  C199     1.0000 0.81177  0.72275  0.19333  Biso   1.000  C
  C200     1.0000 0.79860  0.75577  0.21163  Biso   1.000  C
  C201     1.0000 0.79551  0.78100  0.15503  Biso   1.000  C
  H155     1.0000 0.80297  0.77853  0.10553  Biso   1.000  H
  C202     1.0000 0.78124  0.81004  0.17173  Biso   1.000  C
  H156     1.0000 0.77997  0.82733  0.13353  Biso   1.000  H
  C203     1.0000 0.76925  0.81338  0.24323  Biso   1.000  C
  C204     1.0000 0.77235  0.78844  0.29933  Biso   1.000  C
  H157     1.0000 0.76457  0.79063  0.34873  Biso   1.000  H
  C205     1.0000 0.78713  0.75982  0.28253  Biso   1.000  C
  H158     1.0000 0.78907  0.74313  0.32123  Biso   1.000  H
  C206     1.0000 0.74932  0.84073  0.26093  Biso   1.000  C
  C207     1.0000 0.70971  0.82151  0.29663  Biso   1.000  C
  H159     1.0000 0.69657  0.79223  0.30853  Biso   1.000  H
  H160     1.0000 0.84167  0.94233  0.28613  Biso   1.000  H
  H161     1.0000 0.90737  0.97563  0.22493  Biso   1.000  H
  O47      1.0000 0.47800  0.03292  0.58140  Biso   1.000  O
  O48      1.0000 0.48823  0.05380  0.45957  Biso   1.000  O
  C208     1.0000 0.47843  0.05609  0.52667  Biso   1.000  C
  C209     1.0000 0.46526  0.08911  0.54497  Biso   1.000  C
  C210     1.0000 0.46217  0.11434  0.48837  Biso   1.000  C
  H162     1.0000 0.46963  0.11187  0.43887  Biso   1.000  H
  C211     1.0000 0.44790  0.14338  0.50507  Biso   1.000  C
  H163     1.0000 0.44663  0.16067  0.46687  Biso   1.000  H
  C212     1.0000 0.43591  0.14672  0.57657  Biso   1.000  C
  C213     1.0000 0.43901  0.12178  0.63267  Biso   1.000  C
  H164     1.0000 0.43123  0.12397  0.68207  Biso   1.000  H
  C214     1.0000 0.45379  0.09316  0.61587  Biso   1.000  C
  H165     1.0000 0.45573  0.07647  0.65457  Biso   1.000  H
  C215     1.0000 0.41598  0.17407  0.59427  Biso   1.000  C
  C216     1.0000 0.37637  0.15485  0.62997  Biso   1.000  C
  H166     1.0000 0.36323  0.12557  0.64187  Biso   1.000  H
  H167     1.0000 0.50833  0.27567  0.61947  Biso   1.000  H
  H168     1.0000 0.57403  0.30897  0.55827  Biso   1.000  H
  O49      1.0000 0.63375  0.77842  0.91473  Biso   1.000  O
  O50      1.0000 0.61287  0.76777  0.79290  Biso   1.000  O
  C217     1.0000 0.61058  0.75568  0.86000  Biso   1.000  C
  C218     1.0000 0.57756  0.70949  0.87830  Biso   1.000  C
  C219     1.0000 0.55233  0.68117  0.82170  Biso   1.000  C
  H169     1.0000 0.55480  0.69110  0.77220  Biso   1.000  H
  C220     1.0000 0.52329  0.63786  0.83840  Biso   1.000  C
  H170     1.0000 0.50600  0.61930  0.80020  Biso   1.000  H
  C221     1.0000 0.51995  0.62253  0.90990  Biso   1.000  C
  C222     1.0000 0.54489  0.65057  0.96600  Biso   1.000  C
  H171     1.0000 0.54270  0.64060  0.01540  Biso   1.000  H
  C223     1.0000 0.57351  0.69397  0.94920  Biso   1.000  C
  H172     1.0000 0.59020  0.71260  0.98790  Biso   1.000  H
  C224     1.0000 0.49260  0.57525  0.92760  Biso   1.000  C
  C225     1.0000 0.51182  0.55486  0.96330  Biso   1.000  C
  H173     1.0000 0.54110  0.57100  0.97520  Biso   1.000  H
  H174     1.0000 0.39100  0.56600  0.95280  Biso   1.000  H
  H175     1.0000 0.35770  0.59840  0.89160  Biso   1.000  H
  O51      1.0000 0.30042  0.11175  0.24806  Biso   1.000  O
  O52      1.0000 0.27954  0.10110  0.12623  Biso   1.000  O
  C226     1.0000 0.27725  0.08901  0.19333  Biso   1.000  C
  C227     1.0000 0.24423  0.04282  0.21163  Biso   1.000  C
  C228     1.0000 0.21900  0.01450  0.15503  Biso   1.000  C
  H176     1.0000 0.22147  0.02443  0.10553  Biso   1.000  H
  C229     1.0000 0.18996  0.97119  0.17173  Biso   1.000  C
  H177     1.0000 0.17267  0.95263  0.13353  Biso   1.000  H
  C230     1.0000 0.18662  0.95586  0.24323  Biso   1.000  C
  C231     1.0000 0.21156  0.98390  0.29933  Biso   1.000  C
  H178     1.0000 0.20937  0.97393  0.34873  Biso   1.000  H
  C232     1.0000 0.24018  0.02730  0.28253  Biso   1.000  C
  H179     1.0000 0.25687  0.04593  0.32123  Biso   1.000  H
  C233     1.0000 0.15927  0.90858  0.26093  Biso   1.000  C
  C234     1.0000 0.17849  0.88819  0.29663  Biso   1.000  C
  H180     1.0000 0.20777  0.90433  0.30853  Biso   1.000  H
  H181     1.0000 0.05767  0.89933  0.28613  Biso   1.000  H
  H182     1.0000 0.02437  0.93173  0.22493  Biso   1.000  H
  O53      1.0000 0.96708  0.44509  0.58140  Biso   1.000  O
  O54      1.0000 0.94620  0.43444  0.45957  Biso   1.000  O
  C235     1.0000 0.94391  0.42235  0.52667  Biso   1.000  C
  C236     1.0000 0.91089  0.37616  0.54497  Biso   1.000  C
  C237     1.0000 0.88566  0.34784  0.48837  Biso   1.000  C
  H183     1.0000 0.88813  0.35777  0.43887  Biso   1.000  H
  C238     1.0000 0.85662  0.30453  0.50507  Biso   1.000  C
  H184     1.0000 0.83933  0.28597  0.46687  Biso   1.000  H
  C239     1.0000 0.85328  0.28920  0.57657  Biso   1.000  C
  C240     1.0000 0.87822  0.31724  0.63267  Biso   1.000  C
  H185     1.0000 0.87603  0.30727  0.68207  Biso   1.000  H
  C241     1.0000 0.90684  0.36064  0.61587  Biso   1.000  C
  H186     1.0000 0.92353  0.37927  0.65457  Biso   1.000  H
  C242     1.0000 0.82593  0.24192  0.59427  Biso   1.000  C
  C243     1.0000 0.84515  0.22153  0.62997  Biso   1.000  C
  H187     1.0000 0.87443  0.23767  0.64187  Biso   1.000  H
  H188     1.0000 0.72433  0.23267  0.61947  Biso   1.000  H
  H189     1.0000 0.69103  0.26507  0.55827  Biso   1.000  H
  O55      1.0000 0.85533  0.22158  0.08527  Biso   1.000  O
  O56      1.0000 0.84510  0.23223  0.20710  Biso   1.000  O
  C244     1.0000 0.85490  0.24432  0.14000  Biso   1.000  C
  C245     1.0000 0.86807  0.29051  0.12170  Biso   1.000  C
  C246     1.0000 0.87116  0.31883  0.17830  Biso   1.000  C
  H190     1.0000 0.86370  0.30890  0.22780  Biso   1.000  H
  C247     1.0000 0.88543  0.36214  0.16160  Biso   1.000  C
  H191     1.0000 0.88670  0.38070  0.19980  Biso   1.000  H
  C248     1.0000 0.89742  0.37747  0.09010  Biso   1.000  C
  C249     1.0000 0.89432  0.34943  0.03400  Biso   1.000  C
  H192     1.0000 0.90210  0.35940  0.98460  Biso   1.000  H
  C250     1.0000 0.87954  0.30603  0.05080  Biso   1.000  C
  H193     1.0000 0.87760  0.28740  0.01210  Biso   1.000  H
  C251     1.0000 0.91735  0.42475  0.07240  Biso   1.000  C
  C252     1.0000 0.95696  0.44514  0.03670  Biso   1.000  C
  H194     1.0000 0.97010  0.42900  0.02480  Biso   1.000  H
  H195     1.0000 0.82500  0.43400  0.04720  Biso   1.000  H
  H196     1.0000 0.75930  0.40160  0.10840  Biso   1.000  H
  O57      1.0000 0.52200  0.55491  0.41860  Biso   1.000  O
  O58      1.0000 0.51177  0.56556  0.54043  Biso   1.000  O
  C253     1.0000 0.52157  0.57765  0.47333  Biso   1.000  C
  C254     1.0000 0.53474  0.62384  0.45503  Biso   1.000  C
  C255     1.0000 0.53783  0.65216  0.51163  Biso   1.000  C
  H197     1.0000 0.53037  0.64223  0.56113  Biso   1.000  H
  C256     1.0000 0.55210  0.69547  0.49493  Biso   1.000  C
  H198     1.0000 0.55337  0.71403  0.53313  Biso   1.000  H
  C257     1.0000 0.56409  0.71080  0.42343  Biso   1.000  C
  C258     1.0000 0.56099  0.68276  0.36733  Biso   1.000  C
  H199     1.0000 0.56877  0.69273  0.31793  Biso   1.000  H
  C259     1.0000 0.54621  0.63936  0.38413  Biso   1.000  C
  H200     1.0000 0.54427  0.62073  0.34543  Biso   1.000  H
  C260     1.0000 0.58402  0.75808  0.40573  Biso   1.000  C
  C261     1.0000 0.62363  0.77847  0.37003  Biso   1.000  C
  H201     1.0000 0.63677  0.76233  0.35813  Biso   1.000  H
  H202     1.0000 0.49167  0.76733  0.38053  Biso   1.000  H
  H203     1.0000 0.42597  0.73493  0.44173  Biso   1.000  H
  O59      1.0000 0.18866  0.88825  0.75194  Biso   1.000  O
  O60      1.0000 0.17843  0.89890  0.87377  Biso   1.000  O
  C262     1.0000 0.18823  0.91099  0.80667  Biso   1.000  C
  C263     1.0000 0.20140  0.95718  0.78837  Biso   1.000  C
  C264     1.0000 0.20449  0.98550  0.84497  Biso   1.000  C
  H204     1.0000 0.19703  0.97557  0.89447  Biso   1.000  H
  C265     1.0000 0.21876  0.02881  0.82827  Biso   1.000  C
  H205     1.0000 0.22003  0.04737  0.86647  Biso   1.000  H
  C266     1.0000 0.23075  0.04414  0.75677  Biso   1.000  C
  C267     1.0000 0.22765  0.01610  0.70067  Biso   1.000  C
  H206     1.0000 0.23543  0.02607  0.65127  Biso   1.000  H
  C268     1.0000 0.21287  0.97270  0.71747  Biso   1.000  C
  H207     1.0000 0.21093  0.95407  0.67877  Biso   1.000  H
  C269     1.0000 0.25068  0.09142  0.73907  Biso   1.000  C
  C270     1.0000 0.29029  0.11181  0.70337  Biso   1.000  C
  H208     1.0000 0.30343  0.09567  0.69147  Biso   1.000  H
  H209     1.0000 0.15833  0.10067  0.71387  Biso   1.000  H
  H210     1.0000 0.09263  0.06827  0.77507  Biso   1.000  H
  O61      1.0000 0.36625  0.14467  0.08527  Biso   1.000  O
  O62      1.0000 0.38713  0.15490  0.20710  Biso   1.000  O
  C271     1.0000 0.38942  0.14510  0.14000  Biso   1.000  C
  C272     1.0000 0.42244  0.13193  0.12170  Biso   1.000  C
  C273     1.0000 0.44767  0.12884  0.17830  Biso   1.000  C
  H211     1.0000 0.44520  0.13630  0.22780  Biso   1.000  H
  C274     1.0000 0.47671  0.11457  0.16160  Biso   1.000  C
  H212     1.0000 0.49400  0.11330  0.19980  Biso   1.000  H
  C275     1.0000 0.48005  0.10258  0.09010  Biso   1.000  C
  C276     1.0000 0.45511  0.10568  0.03400  Biso   1.000  C
  H213     1.0000 0.45730  0.09790  0.98460  Biso   1.000  H
  C277     1.0000 0.42649  0.12046  0.05080  Biso   1.000  C
  H214     1.0000 0.40980  0.12240  0.01210  Biso   1.000  H
  C278     1.0000 0.50740  0.08265  0.07240  Biso   1.000  C
  C279     1.0000 0.48818  0.04304  0.03670  Biso   1.000  C
  H215     1.0000 0.45890  0.02990  0.02480  Biso   1.000  H
  H216     1.0000 0.60900  0.17500  0.04720  Biso   1.000  H
  H217     1.0000 0.64230  0.24070  0.10840  Biso   1.000  H
  O63      1.0000 0.03292  0.47800  0.41860  Biso   1.000  O
  O64      1.0000 0.05380  0.48823  0.54043  Biso   1.000  O
  C280     1.0000 0.05609  0.47843  0.47333  Biso   1.000  C
  C281     1.0000 0.08911  0.46526  0.45503  Biso   1.000  C
  C282     1.0000 0.11434  0.46217  0.51163  Biso   1.000  C
  H218     1.0000 0.11187  0.46963  0.56113  Biso   1.000  H
  C283     1.0000 0.14338  0.44790  0.49493  Biso   1.000  C
  H219     1.0000 0.16067  0.44663  0.53313  Biso   1.000  H
  C284     1.0000 0.14672  0.43591  0.42343  Biso   1.000  C
  C285     1.0000 0.12178  0.43901  0.36733  Biso   1.000  C
  H220     1.0000 0.12397  0.43123  0.31793  Biso   1.000  H
  C286     1.0000 0.09316  0.45379  0.38413  Biso   1.000  C
  H221     1.0000 0.07647  0.45573  0.34543  Biso   1.000  H
  C287     1.0000 0.17407  0.41598  0.40573  Biso   1.000  C
  C288     1.0000 0.15485  0.37637  0.37003  Biso   1.000  C
  H222     1.0000 0.12557  0.36323  0.35813  Biso   1.000  H
  H223     1.0000 0.27567  0.50833  0.38053  Biso   1.000  H
  H224     1.0000 0.30897  0.57403  0.44173  Biso   1.000  H
  O65      1.0000 0.69958  0.81134  0.75194  Biso   1.000  O
  O66      1.0000 0.72046  0.82157  0.87377  Biso   1.000  O
  C289     1.0000 0.72275  0.81177  0.80667  Biso   1.000  C
  C290     1.0000 0.75577  0.79860  0.78837  Biso   1.000  C
  C291     1.0000 0.78100  0.79551  0.84497  Biso   1.000  C
  H225     1.0000 0.77853  0.80297  0.89447  Biso   1.000  H
  C292     1.0000 0.81004  0.78124  0.82827  Biso   1.000  C
  H226     1.0000 0.82733  0.77997  0.86647  Biso   1.000  H
  C293     1.0000 0.81338  0.76925  0.75677  Biso   1.000  C
  C294     1.0000 0.78844  0.77235  0.70067  Biso   1.000  C
  H227     1.0000 0.79063  0.76457  0.65127  Biso   1.000  H
  C295     1.0000 0.75982  0.78713  0.71747  Biso   1.000  C
  H228     1.0000 0.74313  0.78907  0.67877  Biso   1.000  H
  C296     1.0000 0.84073  0.74932  0.73907  Biso   1.000  C
  C297     1.0000 0.82151  0.70971  0.70337  Biso   1.000  C
  H229     1.0000 0.79223  0.69657  0.69147  Biso   1.000  H
  H230     1.0000 0.94233  0.84167  0.71387  Biso   1.000  H
  H231     1.0000 0.97563  0.90737  0.77507  Biso   1.000  H
  O67      1.0000 0.77842  0.63375  0.08527  Biso   1.000  O
  O68      1.0000 0.76777  0.61287  0.20710  Biso   1.000  O
  C298     1.0000 0.75568  0.61058  0.14000  Biso   1.000  C
  C299     1.0000 0.70949  0.57756  0.12170  Biso   1.000  C
  C300     1.0000 0.68117  0.55233  0.17830  Biso   1.000  C
  H232     1.0000 0.69110  0.55480  0.22780  Biso   1.000  H
  C301     1.0000 0.63786  0.52329  0.16160  Biso   1.000  C
  H233     1.0000 0.61930  0.50600  0.19980  Biso   1.000  H
  C302     1.0000 0.62253  0.51995  0.09010  Biso   1.000  C
  C303     1.0000 0.65057  0.54489  0.03400  Biso   1.000  C
  H234     1.0000 0.64060  0.54270  0.98460  Biso   1.000  H
  C304     1.0000 0.69397  0.57351  0.05080  Biso   1.000  C
  H235     1.0000 0.71260  0.59020  0.01210  Biso   1.000  H
  C305     1.0000 0.57525  0.49260  0.07240  Biso   1.000  C
  C306     1.0000 0.55486  0.51182  0.03670  Biso   1.000  C
  H236     1.0000 0.57100  0.54110  0.02480  Biso   1.000  H
  H237     1.0000 0.56600  0.39100  0.04720  Biso   1.000  H
  H238     1.0000 0.59840  0.35770  0.10840  Biso   1.000  H
  O69      1.0000 0.44509  0.96708  0.41860  Biso   1.000  O
  O70      1.0000 0.43444  0.94620  0.54043  Biso   1.000  O
  C307     1.0000 0.42235  0.94391  0.47333  Biso   1.000  C
  C308     1.0000 0.37616  0.91089  0.45503  Biso   1.000  C
  C309     1.0000 0.34784  0.88566  0.51163  Biso   1.000  C
  H239     1.0000 0.35777  0.88813  0.56113  Biso   1.000  H
  C310     1.0000 0.30453  0.85662  0.49493  Biso   1.000  C
  H240     1.0000 0.28597  0.83933  0.53313  Biso   1.000  H
  C311     1.0000 0.28920  0.85328  0.42343  Biso   1.000  C
  C312     1.0000 0.31724  0.87822  0.36733  Biso   1.000  C
  H241     1.0000 0.30727  0.87603  0.31793  Biso   1.000  H
  C313     1.0000 0.36064  0.90684  0.38413  Biso   1.000  C
  H242     1.0000 0.37927  0.92353  0.34543  Biso   1.000  H
  C314     1.0000 0.24192  0.82593  0.40573  Biso   1.000  C
  C315     1.0000 0.22153  0.84515  0.37003  Biso   1.000  C
  H243     1.0000 0.23767  0.87443  0.35813  Biso   1.000  H
  H244     1.0000 0.23267  0.72433  0.38053  Biso   1.000  H
  H245     1.0000 0.26507  0.69103  0.44173  Biso   1.000  H
  O71      1.0000 0.11175  0.30042  0.75194  Biso   1.000  O
  O72      1.0000 0.10110  0.27954  0.87377  Biso   1.000  O
  C316     1.0000 0.08901  0.27725  0.80667  Biso   1.000  C
  C317     1.0000 0.04282  0.24423  0.78837  Biso   1.000  C
  C318     1.0000 0.01450  0.21900  0.84497  Biso   1.000  C
  H246     1.0000 0.02443  0.22147  0.89447  Biso   1.000  H
  C319     1.0000 0.97119  0.18996  0.82827  Biso   1.000  C
  H247     1.0000 0.95263  0.17267  0.86647  Biso   1.000  H
  C320     1.0000 0.95586  0.18662  0.75677  Biso   1.000  C
  C321     1.0000 0.98390  0.21156  0.70067  Biso   1.000  C
  H248     1.0000 0.97393  0.20937  0.65127  Biso   1.000  H
  C322     1.0000 0.02730  0.24018  0.71747  Biso   1.000  C
  H249     1.0000 0.04593  0.25687  0.67877  Biso   1.000  H
  C323     1.0000 0.90858  0.15927  0.73907  Biso   1.000  C
  C324     1.0000 0.88819  0.17849  0.70337  Biso   1.000  C
  H250     1.0000 0.90433  0.20777  0.69147  Biso   1.000  H
  H251     1.0000 0.89933  0.05767  0.71387  Biso   1.000  H
  H252     1.0000 0.93173  0.02437  0.77507  Biso   1.000  H
  Cu1      1.0000 0.83942  0.16058  0.09527  Biso   1.000  Cu
  Cu2      1.0000 0.50609  0.49391  0.42860  Biso   1.000  Cu
  Cu3      1.0000 0.17275  0.82725  0.76194  Biso   1.000  Cu
  Cu4      1.0000 0.83942  0.67884  0.09527  Biso   1.000  Cu
  Cu5      1.0000 0.50609  0.01217  0.42860  Biso   1.000  Cu
  Cu6      1.0000 0.17275  0.34551  0.76194  Biso   1.000  Cu
  Cu7      1.0000 0.32116  0.16058  0.09527  Biso   1.000  Cu
  Cu8      1.0000 0.98783  0.49391  0.42860  Biso   1.000  Cu
  Cu9      1.0000 0.65449  0.82725  0.76194  Biso   1.000  Cu
  Cu10     1.0000 0.16058  0.83942  0.90473  Biso   1.000  Cu
  Cu11     1.0000 0.82725  0.17275  0.23806  Biso   1.000  Cu
  Cu12     1.0000 0.49391  0.50609  0.57140  Biso   1.000  Cu
  Cu13     1.0000 0.67884  0.83942  0.90473  Biso   1.000  Cu
  Cu14     1.0000 0.34551  0.17275  0.23806  Biso   1.000  Cu
  Cu15     1.0000 0.01217  0.50609  0.57140  Biso   1.000  Cu
  Cu16     1.0000 0.16058  0.32116  0.90473  Biso   1.000  Cu
  Cu17     1.0000 0.82725  0.65449  0.23806  Biso   1.000  Cu
  Cu18     1.0000 0.49391  0.98783  0.57140  Biso   1.000  Cu
  O73      1.0000 0.57113  0.14225  0.12750  Biso   1.000  O
  C325     1.0000 0.51085  0.02171  0.01770  Biso   1.000  C
  C326     1.0000 0.55138  0.10276  0.09130  Biso   1.000  C
  C327     1.0000 0.59025  0.18050  0.07930  Biso   1.000  C
  C328     1.0000 0.61545  0.23090  0.08220  Biso   1.000  C
  H253     1.0000 0.62110  0.24220  0.03160  Biso   1.000  H
  O74      1.0000 0.23779  0.47558  0.46083  Biso   1.000  O
  C329     1.0000 0.17752  0.35504  0.35103  Biso   1.000  C
  C330     1.0000 0.21805  0.43609  0.42463  Biso   1.000  C
  C331     1.0000 0.25692  0.51383  0.41263  Biso   1.000  C
  C332     1.0000 0.28212  0.56423  0.41553  Biso   1.000  C
  H254     1.0000 0.28777  0.57553  0.36493  Biso   1.000  H
  O75      1.0000 0.90446  0.80892  0.79417  Biso   1.000  O
  C333     1.0000 0.84419  0.68838  0.68437  Biso   1.000  C
  C334     1.0000 0.88471  0.76943  0.75797  Biso   1.000  C
  C335     1.0000 0.92358  0.84717  0.74597  Biso   1.000  C
  C336     1.0000 0.94878  0.89757  0.74887  Biso   1.000  C
  H255     1.0000 0.95443  0.90887  0.69827  Biso   1.000  H
  O76      1.0000 0.85775  0.42888  0.12750  Biso   1.000  O
  C337     1.0000 0.97829  0.48915  0.01770  Biso   1.000  C
  C338     1.0000 0.89724  0.44862  0.09130  Biso   1.000  C
  C339     1.0000 0.81950  0.40975  0.07930  Biso   1.000  C
  C340     1.0000 0.76910  0.38455  0.08220  Biso   1.000  C
  H256     1.0000 0.75780  0.37890  0.03160  Biso   1.000  H
  O77      1.0000 0.52442  0.76221  0.46083  Biso   1.000  O
  C341     1.0000 0.64496  0.82248  0.35103  Biso   1.000  C
  C342     1.0000 0.56391  0.78195  0.42463  Biso   1.000  C
  C343     1.0000 0.48617  0.74308  0.41263  Biso   1.000  C
  C344     1.0000 0.43577  0.71788  0.41553  Biso   1.000  C
  H257     1.0000 0.42447  0.71223  0.36493  Biso   1.000  H
  O78      1.0000 0.19108  0.09554  0.79417  Biso   1.000  O
  C345     1.0000 0.31162  0.15581  0.68437  Biso   1.000  C
  C346     1.0000 0.23057  0.11529  0.75797  Biso   1.000  C
  C347     1.0000 0.15283  0.07642  0.74597  Biso   1.000  C
  C348     1.0000 0.10243  0.05122  0.74887  Biso   1.000  C
  H258     1.0000 0.09113  0.04557  0.69827  Biso   1.000  H
  O79      1.0000 0.57112  0.42888  0.12750  Biso   1.000  O
  C349     1.0000 0.51085  0.48915  0.01770  Biso   1.000  C
  C350     1.0000 0.55138  0.44862  0.09130  Biso   1.000  C
  C351     1.0000 0.59025  0.40975  0.07930  Biso   1.000  C
  C352     1.0000 0.61545  0.38455  0.08220  Biso   1.000  C
  H259     1.0000 0.62110  0.37890  0.03160  Biso   1.000  H
  O80      1.0000 0.23779  0.76221  0.46083  Biso   1.000  O
  C353     1.0000 0.17752  0.82248  0.35103  Biso   1.000  C
  C354     1.0000 0.21805  0.78195  0.42463  Biso   1.000  C
  C355     1.0000 0.25692  0.74308  0.41263  Biso   1.000  C
  C356     1.0000 0.28212  0.71788  0.41553  Biso   1.000  C
  H260     1.0000 0.28777  0.71223  0.36493  Biso   1.000  H
  O81      1.0000 0.90446  0.09554  0.79417  Biso   1.000  O
  C357     1.0000 0.84419  0.15581  0.68437  Biso   1.000  C
  C358     1.0000 0.88471  0.11529  0.75797  Biso   1.000  C
  C359     1.0000 0.92358  0.07642  0.74597  Biso   1.000  C
  C360     1.0000 0.94878  0.05122  0.74887  Biso   1.000  C
  H261     1.0000 0.95443  0.04557  0.69827  Biso   1.000  H
  O82      1.0000 0.14225  0.57113  0.87250  Biso   1.000  O
  C361     1.0000 0.02171  0.51085  0.98230  Biso   1.000  C
  C362     1.0000 0.10276  0.55138  0.90870  Biso   1.000  C
  C363     1.0000 0.18050  0.59025  0.92070  Biso   1.000  C
  C364     1.0000 0.23090  0.61545  0.91780  Biso   1.000  C
  H262     1.0000 0.24220  0.62110  0.96840  Biso   1.000  H
  O83      1.0000 0.80892  0.90446  0.20583  Biso   1.000  O
  C365     1.0000 0.68838  0.84419  0.31563  Biso   1.000  C
  C366     1.0000 0.76943  0.88471  0.24203  Biso   1.000  C
  C367     1.0000 0.84717  0.92358  0.25403  Biso   1.000  C
  C368     1.0000 0.89757  0.94878  0.25113  Biso   1.000  C
  H263     1.0000 0.90887  0.95443  0.30173  Biso   1.000  H
  O84      1.0000 0.47558  0.23779  0.53917  Biso   1.000  O
  C369     1.0000 0.35504  0.17752  0.64897  Biso   1.000  C
  C370     1.0000 0.43609  0.21805  0.57537  Biso   1.000  C
  C371     1.0000 0.51383  0.25692  0.58737  Biso   1.000  C
  C372     1.0000 0.56423  0.28212  0.58447  Biso   1.000  C
  H264     1.0000 0.57553  0.28777  0.63507  Biso   1.000  H
  O85      1.0000 0.42888  0.85775  0.87250  Biso   1.000  O
  C373     1.0000 0.48915  0.97829  0.98230  Biso   1.000  C
  C374     1.0000 0.44862  0.89724  0.90870  Biso   1.000  C
  C375     1.0000 0.40975  0.81950  0.92070  Biso   1.000  C
  C376     1.0000 0.38455  0.76910  0.91780  Biso   1.000  C
  H265     1.0000 0.37890  0.75780  0.96840  Biso   1.000  H
  O86      1.0000 0.09554  0.19108  0.20583  Biso   1.000  O
  C377     1.0000 0.15581  0.31162  0.31563  Biso   1.000  C
  C378     1.0000 0.11529  0.23057  0.24203  Biso   1.000  C
  C379     1.0000 0.07642  0.15283  0.25403  Biso   1.000  C
  C380     1.0000 0.05122  0.10243  0.25113  Biso   1.000  C
  H266     1.0000 0.04557  0.09113  0.30173  Biso   1.000  H
  O87      1.0000 0.76221  0.52442  0.53917  Biso   1.000  O
  C381     1.0000 0.82248  0.64496  0.64897  Biso   1.000  C
  C382     1.0000 0.78195  0.56391  0.57537  Biso   1.000  C
  C383     1.0000 0.74308  0.48617  0.58737  Biso   1.000  C
  C384     1.0000 0.71788  0.43577  0.58447  Biso   1.000  C
  H267     1.0000 0.71223  0.42447  0.63507  Biso   1.000  H
  O88      1.0000 0.42888  0.57113  0.87250  Biso   1.000  O
  C385     1.0000 0.48915  0.51085  0.98230  Biso   1.000  C
  C386     1.0000 0.44862  0.55138  0.90870  Biso   1.000  C
  C387     1.0000 0.40975  0.59025  0.92070  Biso   1.000  C
  C388     1.0000 0.38455  0.61545  0.91780  Biso   1.000  C
  H268     1.0000 0.37890  0.62110  0.96840  Biso   1.000  H
  O89      1.0000 0.09554  0.90446  0.20583  Biso   1.000  O
  C389     1.0000 0.15581  0.84419  0.31563  Biso   1.000  C
  C390     1.0000 0.11529  0.88471  0.24203  Biso   1.000  C
  C391     1.0000 0.07642  0.92358  0.25403  Biso   1.000  C
  C392     1.0000 0.05122  0.94878  0.25113  Biso   1.000  C
  H269     1.0000 0.04557  0.95443  0.30173  Biso   1.000  H
  O90      1.0000 0.76221  0.23779  0.53917  Biso   1.000  O
  C393     1.0000 0.82248  0.17752  0.64897  Biso   1.000  C
  C394     1.0000 0.78195  0.21805  0.57537  Biso   1.000  C
  C395     1.0000 0.74308  0.25692  0.58737  Biso   1.000  C
  C396     1.0000 0.71788  0.28212  0.58447  Biso   1.000  C
  H270     1.0000 0.71223  0.28777  0.63507  Biso   1.000  H
