data_image0
_cell_length_a       35.8292
_cell_length_b       35.8292
_cell_length_c       15.785
_cell_angle_alpha    90
_cell_angle_beta     90
_cell_angle_gamma    120

_symmetry_space_group_name_H-M    "P 1"
_symmetry_int_tables_number       1

loop_
  _symmetry_equiv_pos_as_xyz
  'x, y, z'

loop_
  _atom_site_label
  _atom_site_occupancy
  _atom_site_fract_x
  _atom_site_fract_y
  _atom_site_fract_z
  _atom_site_thermal_displace_type
  _atom_site_B_iso_or_equiv
  _atom_site_type_symbol
  O1       1.0000 0.81266  0.10974  0.24580  Biso   1.000  O
  O2       1.0000 0.82062  0.10198  0.10520  Biso   1.000  O
  C1       1.0000 0.81198  0.08896  0.18100  Biso   1.000  C
  C2       1.0000 0.79741  0.04173  0.19750  Biso   1.000  C
  C3       1.0000 0.79270  0.01423  0.13130  Biso   1.000  C
  H1       1.0000 0.79900  0.02450  0.07600  Biso   1.000  H
  C4       1.0000 0.77831  0.97058  0.14900  Biso   1.000  C
  H2       1.0000 0.77700  0.95270  0.10490  Biso   1.000  H
  C5       1.0000 0.76657  0.95392  0.22590  Biso   1.000  C
  C6       1.0000 0.77300  0.98247  0.29010  Biso   1.000  C
  H3       1.0000 0.76690  0.97240  0.34560  Biso   1.000  H
  C7       1.0000 0.78840  0.02584  0.27460  Biso   1.000  C
  H4       1.0000 0.79250  0.04410  0.31980  Biso   1.000  H
  C8       1.0000 0.74644  0.90694  0.24270  Biso   1.000  C
  C9       1.0000 0.70786  0.88687  0.28690  Biso   1.000  C
  H5       1.0000 0.69500  0.90300  0.30210  Biso   1.000  H
  H6       1.0000 0.84070  0.94220  0.27570  Biso   1.000  H
  H7       1.0000 0.89370  0.92500  0.16610  Biso   1.000  H
  O3       1.0000 0.47933  0.44307  0.57913  Biso   1.000  O
  O4       1.0000 0.48729  0.43531  0.43853  Biso   1.000  O
  C10      1.0000 0.47865  0.42229  0.51433  Biso   1.000  C
  C11      1.0000 0.46408  0.37506  0.53083  Biso   1.000  C
  C12      1.0000 0.45937  0.34756  0.46463  Biso   1.000  C
  H8       1.0000 0.46567  0.35783  0.40933  Biso   1.000  H
  C13      1.0000 0.44498  0.30391  0.48233  Biso   1.000  C
  H9       1.0000 0.44367  0.28603  0.43823  Biso   1.000  H
  C14      1.0000 0.43324  0.28725  0.55923  Biso   1.000  C
  C15      1.0000 0.43967  0.31580  0.62343  Biso   1.000  C
  H10      1.0000 0.43357  0.30573  0.67893  Biso   1.000  H
  C16      1.0000 0.45507  0.35917  0.60793  Biso   1.000  C
  H11      1.0000 0.45917  0.37743  0.65313  Biso   1.000  H
  C17      1.0000 0.41311  0.24027  0.57603  Biso   1.000  C
  C18      1.0000 0.37453  0.22020  0.62023  Biso   1.000  C
  H12      1.0000 0.36167  0.23633  0.63543  Biso   1.000  H
  H13      1.0000 0.50737  0.27553  0.60903  Biso   1.000  H
  H14      1.0000 0.56037  0.25833  0.49943  Biso   1.000  H
  O5       1.0000 0.14599  0.77641  0.91247  Biso   1.000  O
  O6       1.0000 0.15395  0.76865  0.77187  Biso   1.000  O
  C19      1.0000 0.14531  0.75563  0.84767  Biso   1.000  C
  C20      1.0000 0.13074  0.70840  0.86417  Biso   1.000  C
  C21      1.0000 0.12603  0.68090  0.79797  Biso   1.000  C
  H15      1.0000 0.13233  0.69117  0.74267  Biso   1.000  H
  C22      1.0000 0.11164  0.63725  0.81567  Biso   1.000  C
  H16      1.0000 0.11033  0.61937  0.77157  Biso   1.000  H
  C23      1.0000 0.09990  0.62059  0.89257  Biso   1.000  C
  C24      1.0000 0.10633  0.64914  0.95677  Biso   1.000  C
  H17      1.0000 0.10023  0.63907  0.01227  Biso   1.000  H
  C25      1.0000 0.12173  0.69251  0.94127  Biso   1.000  C
  H18      1.0000 0.12583  0.71077  0.98647  Biso   1.000  H
  C26      1.0000 0.07977  0.57361  0.90937  Biso   1.000  C
  C27      1.0000 0.04119  0.55354  0.95357  Biso   1.000  C
  H19      1.0000 0.02833  0.56967  0.96877  Biso   1.000  H
  H20      1.0000 0.17403  0.60887  0.94237  Biso   1.000  H
  H21      1.0000 0.22703  0.59167  0.83277  Biso   1.000  H
  O7       1.0000 0.89026  0.70292  0.24580  Biso   1.000  O
  O8       1.0000 0.89802  0.71864  0.10520  Biso   1.000  O
  C28      1.0000 0.91104  0.72302  0.18100  Biso   1.000  C
  C29      1.0000 0.95827  0.75568  0.19750  Biso   1.000  C
  C30      1.0000 0.98577  0.77847  0.13130  Biso   1.000  C
  H22      1.0000 0.97550  0.77450  0.07600  Biso   1.000  H
  C31      1.0000 0.02942  0.80773  0.14900  Biso   1.000  C
  H23      1.0000 0.04730  0.82430  0.10490  Biso   1.000  H
  C32      1.0000 0.04608  0.81265  0.22590  Biso   1.000  C
  C33      1.0000 0.01753  0.79053  0.29010  Biso   1.000  C
  H24      1.0000 0.02760  0.79450  0.34560  Biso   1.000  H
  C34      1.0000 0.97416  0.76256  0.27460  Biso   1.000  C
  H25      1.0000 0.95590  0.74840  0.31980  Biso   1.000  H
  C35      1.0000 0.09306  0.83950  0.24270  Biso   1.000  C
  C36      1.0000 0.11313  0.82099  0.28690  Biso   1.000  C
  H26      1.0000 0.09700  0.79200  0.30210  Biso   1.000  H
  H27      1.0000 0.05780  0.89850  0.27570  Biso   1.000  H
  H28      1.0000 0.07500  0.96870  0.16610  Biso   1.000  H
  O9       1.0000 0.55693  0.03625  0.57913  Biso   1.000  O
  O10      1.0000 0.56469  0.05197  0.43853  Biso   1.000  O
  C37      1.0000 0.57771  0.05635  0.51433  Biso   1.000  C
  C38      1.0000 0.62494  0.08901  0.53083  Biso   1.000  C
  C39      1.0000 0.65244  0.11180  0.46463  Biso   1.000  C
  H29      1.0000 0.64217  0.10783  0.40933  Biso   1.000  H
  C40      1.0000 0.69609  0.14106  0.48233  Biso   1.000  C
  H30      1.0000 0.71397  0.15763  0.43823  Biso   1.000  H
  C41      1.0000 0.71275  0.14598  0.55923  Biso   1.000  C
  C42      1.0000 0.68420  0.12386  0.62343  Biso   1.000  C
  H31      1.0000 0.69427  0.12783  0.67893  Biso   1.000  H
  C43      1.0000 0.64083  0.09589  0.60793  Biso   1.000  C
  H32      1.0000 0.62257  0.08173  0.65313  Biso   1.000  H
  C44      1.0000 0.75973  0.17283  0.57603  Biso   1.000  C
  C45      1.0000 0.77980  0.15432  0.62023  Biso   1.000  C
  H33      1.0000 0.76367  0.12533  0.63543  Biso   1.000  H
  H34      1.0000 0.72447  0.23183  0.60903  Biso   1.000  H
  H35      1.0000 0.74167  0.30203  0.49943  Biso   1.000  H
  O11      1.0000 0.22359  0.36959  0.91247  Biso   1.000  O
  O12      1.0000 0.23135  0.38531  0.77187  Biso   1.000  O
  C46      1.0000 0.24437  0.38969  0.84767  Biso   1.000  C
  C47      1.0000 0.29160  0.42235  0.86417  Biso   1.000  C
  C48      1.0000 0.31910  0.44514  0.79797  Biso   1.000  C
  H36      1.0000 0.30883  0.44117  0.74267  Biso   1.000  H
  C49      1.0000 0.36275  0.47440  0.81567  Biso   1.000  C
  H37      1.0000 0.38063  0.49097  0.77157  Biso   1.000  H
  C50      1.0000 0.37941  0.47932  0.89257  Biso   1.000  C
  C51      1.0000 0.35086  0.45720  0.95677  Biso   1.000  C
  H38      1.0000 0.36093  0.46117  0.01227  Biso   1.000  H
  C52      1.0000 0.30749  0.42923  0.94127  Biso   1.000  C
  H39      1.0000 0.28923  0.41507  0.98647  Biso   1.000  H
  C53      1.0000 0.42639  0.50617  0.90937  Biso   1.000  C
  C54      1.0000 0.44646  0.48766  0.95357  Biso   1.000  C
  H40      1.0000 0.43033  0.45867  0.96877  Biso   1.000  H
  H41      1.0000 0.39113  0.56517  0.94237  Biso   1.000  H
  H42      1.0000 0.40833  0.63537  0.83277  Biso   1.000  H
  O13      1.0000 0.29708  0.18734  0.24580  Biso   1.000  O
  O14      1.0000 0.28136  0.17938  0.10520  Biso   1.000  O
  C55      1.0000 0.27698  0.18802  0.18100  Biso   1.000  C
  C56      1.0000 0.24432  0.20259  0.19750  Biso   1.000  C
  C57      1.0000 0.22153  0.20730  0.13130  Biso   1.000  C
  H43      1.0000 0.22550  0.20100  0.07600  Biso   1.000  H
  C58      1.0000 0.19227  0.22169  0.14900  Biso   1.000  C
  H44      1.0000 0.17570  0.22300  0.10490  Biso   1.000  H
  C59      1.0000 0.18735  0.23343  0.22590  Biso   1.000  C
  C60      1.0000 0.20947  0.22700  0.29010  Biso   1.000  C
  H45      1.0000 0.20550  0.23310  0.34560  Biso   1.000  H
  C61      1.0000 0.23744  0.21160  0.27460  Biso   1.000  C
  H46      1.0000 0.25160  0.20750  0.31980  Biso   1.000  H
  C62      1.0000 0.16050  0.25356  0.24270  Biso   1.000  C
  C63      1.0000 0.17901  0.29214  0.28690  Biso   1.000  C
  H47      1.0000 0.20800  0.30500  0.30210  Biso   1.000  H
  H48      1.0000 0.10150  0.15930  0.27570  Biso   1.000  H
  H49      1.0000 0.03130  0.10630  0.16610  Biso   1.000  H
  O15      1.0000 0.96375  0.52067  0.57913  Biso   1.000  O
  O16      1.0000 0.94803  0.51271  0.43853  Biso   1.000  O
  C64      1.0000 0.94365  0.52135  0.51433  Biso   1.000  C
  C65      1.0000 0.91099  0.53592  0.53083  Biso   1.000  C
  C66      1.0000 0.88820  0.54063  0.46463  Biso   1.000  C
  H50      1.0000 0.89217  0.53433  0.40933  Biso   1.000  H
  C67      1.0000 0.85894  0.55502  0.48233  Biso   1.000  C
  H51      1.0000 0.84237  0.55633  0.43823  Biso   1.000  H
  C68      1.0000 0.85402  0.56676  0.55923  Biso   1.000  C
  C69      1.0000 0.87614  0.56033  0.62343  Biso   1.000  C
  H52      1.0000 0.87217  0.56643  0.67893  Biso   1.000  H
  C70      1.0000 0.90411  0.54493  0.60793  Biso   1.000  C
  H53      1.0000 0.91827  0.54083  0.65313  Biso   1.000  H
  C71      1.0000 0.82717  0.58689  0.57603  Biso   1.000  C
  C72      1.0000 0.84568  0.62547  0.62023  Biso   1.000  C
  H54      1.0000 0.87467  0.63833  0.63543  Biso   1.000  H
  H55      1.0000 0.76817  0.49263  0.60903  Biso   1.000  H
  H56      1.0000 0.69797  0.43963  0.49943  Biso   1.000  H
  O17      1.0000 0.63041  0.85401  0.91247  Biso   1.000  O
  O18      1.0000 0.61469  0.84605  0.77187  Biso   1.000  O
  C73      1.0000 0.61031  0.85469  0.84767  Biso   1.000  C
  C74      1.0000 0.57765  0.86926  0.86417  Biso   1.000  C
  C75      1.0000 0.55486  0.87397  0.79797  Biso   1.000  C
  H57      1.0000 0.55883  0.86767  0.74267  Biso   1.000  H
  C76      1.0000 0.52560  0.88836  0.81567  Biso   1.000  C
  H58      1.0000 0.50903  0.88967  0.77157  Biso   1.000  H
  C77      1.0000 0.52068  0.90010  0.89257  Biso   1.000  C
  C78      1.0000 0.54280  0.89367  0.95677  Biso   1.000  C
  H59      1.0000 0.53883  0.89977  0.01227  Biso   1.000  H
  C79      1.0000 0.57077  0.87827  0.94127  Biso   1.000  C
  H60      1.0000 0.58493  0.87417  0.98647  Biso   1.000  H
  C80      1.0000 0.49383  0.92023  0.90937  Biso   1.000  C
  C81      1.0000 0.51234  0.95881  0.95357  Biso   1.000  C
  H61      1.0000 0.54133  0.97167  0.96877  Biso   1.000  H
  H62      1.0000 0.43483  0.82597  0.94237  Biso   1.000  H
  H63      1.0000 0.36463  0.77297  0.83277  Biso   1.000  H
  O19      1.0000 0.10974  0.81266  0.75420  Biso   1.000  O
  O20      1.0000 0.10198  0.82062  0.89480  Biso   1.000  O
  C82      1.0000 0.08896  0.81198  0.81900  Biso   1.000  C
  C83      1.0000 0.04173  0.79741  0.80250  Biso   1.000  C
  C84      1.0000 0.01423  0.79270  0.86870  Biso   1.000  C
  H64      1.0000 0.02450  0.79900  0.92400  Biso   1.000  H
  C85      1.0000 0.97058  0.77831  0.85100  Biso   1.000  C
  H65      1.0000 0.95270  0.77700  0.89510  Biso   1.000  H
  C86      1.0000 0.95392  0.76657  0.77410  Biso   1.000  C
  C87      1.0000 0.98247  0.77300  0.70990  Biso   1.000  C
  H66      1.0000 0.97240  0.76690  0.65440  Biso   1.000  H
  C88      1.0000 0.02584  0.78840  0.72540  Biso   1.000  C
  H67      1.0000 0.04410  0.79250  0.68020  Biso   1.000  H
  C89      1.0000 0.90694  0.74644  0.75730  Biso   1.000  C
  C90      1.0000 0.88687  0.70786  0.71310  Biso   1.000  C
  H68      1.0000 0.90300  0.69500  0.69790  Biso   1.000  H
  H69      1.0000 0.94220  0.84070  0.72430  Biso   1.000  H
  H70      1.0000 0.92500  0.89370  0.83390  Biso   1.000  H
  O21      1.0000 0.77641  0.14599  0.08753  Biso   1.000  O
  O22      1.0000 0.76865  0.15395  0.22813  Biso   1.000  O
  C91      1.0000 0.75563  0.14531  0.15233  Biso   1.000  C
  C92      1.0000 0.70840  0.13074  0.13583  Biso   1.000  C
  C93      1.0000 0.68090  0.12603  0.20203  Biso   1.000  C
  H71      1.0000 0.69117  0.13233  0.25733  Biso   1.000  H
  C94      1.0000 0.63725  0.11164  0.18433  Biso   1.000  C
  H72      1.0000 0.61937  0.11033  0.22843  Biso   1.000  H
  C95      1.0000 0.62059  0.09990  0.10743  Biso   1.000  C
  C96      1.0000 0.64914  0.10633  0.04323  Biso   1.000  C
  H73      1.0000 0.63907  0.10023  0.98773  Biso   1.000  H
  C97      1.0000 0.69251  0.12173  0.05873  Biso   1.000  C
  H74      1.0000 0.71077  0.12583  0.01353  Biso   1.000  H
  C98      1.0000 0.57361  0.07977  0.09063  Biso   1.000  C
  C99      1.0000 0.55354  0.04119  0.04643  Biso   1.000  C
  H75      1.0000 0.56967  0.02833  0.03123  Biso   1.000  H
  H76      1.0000 0.60887  0.17403  0.05763  Biso   1.000  H
  H77      1.0000 0.59167  0.22703  0.16723  Biso   1.000  H
  O23      1.0000 0.44307  0.47933  0.42087  Biso   1.000  O
  O24      1.0000 0.43531  0.48729  0.56147  Biso   1.000  O
  C100     1.0000 0.42229  0.47865  0.48567  Biso   1.000  C
  C101     1.0000 0.37506  0.46408  0.46917  Biso   1.000  C
  C102     1.0000 0.34756  0.45937  0.53537  Biso   1.000  C
  H78      1.0000 0.35783  0.46567  0.59067  Biso   1.000  H
  C103     1.0000 0.30391  0.44498  0.51767  Biso   1.000  C
  H79      1.0000 0.28603  0.44367  0.56177  Biso   1.000  H
  C104     1.0000 0.28725  0.43324  0.44077  Biso   1.000  C
  C105     1.0000 0.31580  0.43967  0.37657  Biso   1.000  C
  H80      1.0000 0.30573  0.43357  0.32107  Biso   1.000  H
  C106     1.0000 0.35917  0.45507  0.39207  Biso   1.000  C
  H81      1.0000 0.37743  0.45917  0.34687  Biso   1.000  H
  C107     1.0000 0.24027  0.41311  0.42397  Biso   1.000  C
  C108     1.0000 0.22020  0.37453  0.37977  Biso   1.000  C
  H82      1.0000 0.23633  0.36167  0.36457  Biso   1.000  H
  H83      1.0000 0.27553  0.50737  0.39097  Biso   1.000  H
  H84      1.0000 0.25833  0.56037  0.50057  Biso   1.000  H
  O25      1.0000 0.70292  0.89026  0.75420  Biso   1.000  O
  O26      1.0000 0.71864  0.89802  0.89480  Biso   1.000  O
  C109     1.0000 0.72302  0.91104  0.81900  Biso   1.000  C
  C110     1.0000 0.75568  0.95827  0.80250  Biso   1.000  C
  C111     1.0000 0.77847  0.98577  0.86870  Biso   1.000  C
  H85      1.0000 0.77450  0.97550  0.92400  Biso   1.000  H
  C112     1.0000 0.80773  0.02942  0.85100  Biso   1.000  C
  H86      1.0000 0.82430  0.04730  0.89510  Biso   1.000  H
  C113     1.0000 0.81265  0.04608  0.77410  Biso   1.000  C
  C114     1.0000 0.79053  0.01753  0.70990  Biso   1.000  C
  H87      1.0000 0.79450  0.02760  0.65440  Biso   1.000  H
  C115     1.0000 0.76256  0.97416  0.72540  Biso   1.000  C
  H88      1.0000 0.74840  0.95590  0.68020  Biso   1.000  H
  C116     1.0000 0.83950  0.09306  0.75730  Biso   1.000  C
  C117     1.0000 0.82099  0.11313  0.71310  Biso   1.000  C
  H89      1.0000 0.79200  0.09700  0.69790  Biso   1.000  H
  H90      1.0000 0.89850  0.05780  0.72430  Biso   1.000  H
  H91      1.0000 0.96870  0.07500  0.83390  Biso   1.000  H
  O27      1.0000 0.36959  0.22359  0.08753  Biso   1.000  O
  O28      1.0000 0.38531  0.23135  0.22813  Biso   1.000  O
  C118     1.0000 0.38969  0.24437  0.15233  Biso   1.000  C
  C119     1.0000 0.42235  0.29160  0.13583  Biso   1.000  C
  C120     1.0000 0.44514  0.31910  0.20203  Biso   1.000  C
  H92      1.0000 0.44117  0.30883  0.25733  Biso   1.000  H
  C121     1.0000 0.47440  0.36275  0.18433  Biso   1.000  C
  H93      1.0000 0.49097  0.38063  0.22843  Biso   1.000  H
  C122     1.0000 0.47932  0.37941  0.10743  Biso   1.000  C
  C123     1.0000 0.45720  0.35086  0.04323  Biso   1.000  C
  H94      1.0000 0.46117  0.36093  0.98773  Biso   1.000  H
  C124     1.0000 0.42923  0.30749  0.05873  Biso   1.000  C
  H95      1.0000 0.41507  0.28923  0.01353  Biso   1.000  H
  C125     1.0000 0.50617  0.42639  0.09063  Biso   1.000  C
  C126     1.0000 0.48766  0.44646  0.04643  Biso   1.000  C
  H96      1.0000 0.45867  0.43033  0.03123  Biso   1.000  H
  H97      1.0000 0.56517  0.39113  0.05763  Biso   1.000  H
  H98      1.0000 0.63537  0.40833  0.16723  Biso   1.000  H
  O29      1.0000 0.03625  0.55693  0.42087  Biso   1.000  O
  O30      1.0000 0.05197  0.56469  0.56147  Biso   1.000  O
  C127     1.0000 0.05635  0.57771  0.48567  Biso   1.000  C
  C128     1.0000 0.08901  0.62494  0.46917  Biso   1.000  C
  C129     1.0000 0.11180  0.65244  0.53537  Biso   1.000  C
  H99      1.0000 0.10783  0.64217  0.59067  Biso   1.000  H
  C130     1.0000 0.14106  0.69609  0.51767  Biso   1.000  C
  H100     1.0000 0.15763  0.71397  0.56177  Biso   1.000  H
  C131     1.0000 0.14598  0.71275  0.44077  Biso   1.000  C
  C132     1.0000 0.12386  0.68420  0.37657  Biso   1.000  C
  H101     1.0000 0.12783  0.69427  0.32107  Biso   1.000  H
  C133     1.0000 0.09589  0.64083  0.39207  Biso   1.000  C
  H102     1.0000 0.08173  0.62257  0.34687  Biso   1.000  H
  C134     1.0000 0.17283  0.75973  0.42397  Biso   1.000  C
  C135     1.0000 0.15432  0.77980  0.37977  Biso   1.000  C
  H103     1.0000 0.12533  0.76367  0.36457  Biso   1.000  H
  H104     1.0000 0.23183  0.72447  0.39097  Biso   1.000  H
  H105     1.0000 0.30203  0.74167  0.50057  Biso   1.000  H
  O31      1.0000 0.18734  0.29708  0.75420  Biso   1.000  O
  O32      1.0000 0.17938  0.28136  0.89480  Biso   1.000  O
  C136     1.0000 0.18802  0.27698  0.81900  Biso   1.000  C
  C137     1.0000 0.20259  0.24432  0.80250  Biso   1.000  C
  C138     1.0000 0.20730  0.22153  0.86870  Biso   1.000  C
  H106     1.0000 0.20100  0.22550  0.92400  Biso   1.000  H
  C139     1.0000 0.22169  0.19227  0.85100  Biso   1.000  C
  H107     1.0000 0.22300  0.17570  0.89510  Biso   1.000  H
  C140     1.0000 0.23343  0.18735  0.77410  Biso   1.000  C
  C141     1.0000 0.22700  0.20947  0.70990  Biso   1.000  C
  H108     1.0000 0.23310  0.20550  0.65440  Biso   1.000  H
  C142     1.0000 0.21160  0.23744  0.72540  Biso   1.000  C
  H109     1.0000 0.20750  0.25160  0.68020  Biso   1.000  H
  C143     1.0000 0.25356  0.16050  0.75730  Biso   1.000  C
  C144     1.0000 0.29214  0.17901  0.71310  Biso   1.000  C
  H110     1.0000 0.30500  0.20800  0.69790  Biso   1.000  H
  H111     1.0000 0.15930  0.10150  0.72430  Biso   1.000  H
  H112     1.0000 0.10630  0.03130  0.83390  Biso   1.000  H
  O33      1.0000 0.85401  0.63041  0.08753  Biso   1.000  O
  O34      1.0000 0.84605  0.61469  0.22813  Biso   1.000  O
  C145     1.0000 0.85469  0.61031  0.15233  Biso   1.000  C
  C146     1.0000 0.86926  0.57765  0.13583  Biso   1.000  C
  C147     1.0000 0.87397  0.55486  0.20203  Biso   1.000  C
  H113     1.0000 0.86767  0.55883  0.25733  Biso   1.000  H
  C148     1.0000 0.88836  0.52560  0.18433  Biso   1.000  C
  H114     1.0000 0.88967  0.50903  0.22843  Biso   1.000  H
  C149     1.0000 0.90010  0.52068  0.10743  Biso   1.000  C
  C150     1.0000 0.89367  0.54280  0.04323  Biso   1.000  C
  H115     1.0000 0.89977  0.53883  0.98773  Biso   1.000  H
  C151     1.0000 0.87827  0.57077  0.05873  Biso   1.000  C
  H116     1.0000 0.87417  0.58493  0.01353  Biso   1.000  H
  C152     1.0000 0.92023  0.49383  0.09063  Biso   1.000  C
  C153     1.0000 0.95881  0.51234  0.04643  Biso   1.000  C
  H117     1.0000 0.97167  0.54133  0.03123  Biso   1.000  H
  H118     1.0000 0.82597  0.43483  0.05763  Biso   1.000  H
  H119     1.0000 0.77297  0.36463  0.16723  Biso   1.000  H
  O35      1.0000 0.52067  0.96375  0.42087  Biso   1.000  O
  O36      1.0000 0.51271  0.94803  0.56147  Biso   1.000  O
  C154     1.0000 0.52135  0.94365  0.48567  Biso   1.000  C
  C155     1.0000 0.53592  0.91099  0.46917  Biso   1.000  C
  C156     1.0000 0.54063  0.88820  0.53537  Biso   1.000  C
  H120     1.0000 0.53433  0.89217  0.59067  Biso   1.000  H
  C157     1.0000 0.55502  0.85894  0.51767  Biso   1.000  C
  H121     1.0000 0.55633  0.84237  0.56177  Biso   1.000  H
  C158     1.0000 0.56676  0.85402  0.44077  Biso   1.000  C
  C159     1.0000 0.56033  0.87614  0.37657  Biso   1.000  C
  H122     1.0000 0.56643  0.87217  0.32107  Biso   1.000  H
  C160     1.0000 0.54493  0.90411  0.39207  Biso   1.000  C
  H123     1.0000 0.54083  0.91827  0.34687  Biso   1.000  H
  C161     1.0000 0.58689  0.82717  0.42397  Biso   1.000  C
  C162     1.0000 0.62547  0.84568  0.37977  Biso   1.000  C
  H124     1.0000 0.63833  0.87467  0.36457  Biso   1.000  H
  H125     1.0000 0.49263  0.76817  0.39097  Biso   1.000  H
  H126     1.0000 0.43963  0.69797  0.50057  Biso   1.000  H
  O37      1.0000 0.18734  0.89026  0.75420  Biso   1.000  O
  O38      1.0000 0.17938  0.89802  0.89480  Biso   1.000  O
  C163     1.0000 0.18802  0.91104  0.81900  Biso   1.000  C
  C164     1.0000 0.20259  0.95827  0.80250  Biso   1.000  C
  C165     1.0000 0.20730  0.98577  0.86870  Biso   1.000  C
  H127     1.0000 0.20100  0.97550  0.92400  Biso   1.000  H
  C166     1.0000 0.22169  0.02942  0.85100  Biso   1.000  C
  H128     1.0000 0.22300  0.04730  0.89510  Biso   1.000  H
  C167     1.0000 0.23343  0.04608  0.77410  Biso   1.000  C
  C168     1.0000 0.22700  0.01753  0.70990  Biso   1.000  C
  H129     1.0000 0.23310  0.02760  0.65440  Biso   1.000  H
  C169     1.0000 0.21160  0.97416  0.72540  Biso   1.000  C
  H130     1.0000 0.20750  0.95590  0.68020  Biso   1.000  H
  C170     1.0000 0.25356  0.09306  0.75730  Biso   1.000  C
  C171     1.0000 0.29214  0.11313  0.71310  Biso   1.000  C
  H131     1.0000 0.30500  0.09700  0.69790  Biso   1.000  H
  H132     1.0000 0.15930  0.05780  0.72430  Biso   1.000  H
  H133     1.0000 0.10630  0.07500  0.83390  Biso   1.000  H
  O39      1.0000 0.85401  0.22359  0.08753  Biso   1.000  O
  O40      1.0000 0.84605  0.23135  0.22813  Biso   1.000  O
  C172     1.0000 0.85469  0.24437  0.15233  Biso   1.000  C
  C173     1.0000 0.86926  0.29160  0.13583  Biso   1.000  C
  C174     1.0000 0.87397  0.31910  0.20203  Biso   1.000  C
  H134     1.0000 0.86767  0.30883  0.25733  Biso   1.000  H
  C175     1.0000 0.88836  0.36275  0.18433  Biso   1.000  C
  H135     1.0000 0.88967  0.38063  0.22843  Biso   1.000  H
  C176     1.0000 0.90010  0.37941  0.10743  Biso   1.000  C
  C177     1.0000 0.89367  0.35086  0.04323  Biso   1.000  C
  H136     1.0000 0.89977  0.36093  0.98773  Biso   1.000  H
  C178     1.0000 0.87827  0.30749  0.05873  Biso   1.000  C
  H137     1.0000 0.87417  0.28923  0.01353  Biso   1.000  H
  C179     1.0000 0.92023  0.42639  0.09063  Biso   1.000  C
  C180     1.0000 0.95881  0.44646  0.04643  Biso   1.000  C
  H138     1.0000 0.97167  0.43033  0.03123  Biso   1.000  H
  H139     1.0000 0.82597  0.39113  0.05763  Biso   1.000  H
  H140     1.0000 0.77297  0.40833  0.16723  Biso   1.000  H
  O41      1.0000 0.52067  0.55693  0.42087  Biso   1.000  O
  O42      1.0000 0.51271  0.56469  0.56147  Biso   1.000  O
  C181     1.0000 0.52135  0.57771  0.48567  Biso   1.000  C
  C182     1.0000 0.53592  0.62494  0.46917  Biso   1.000  C
  C183     1.0000 0.54063  0.65244  0.53537  Biso   1.000  C
  H141     1.0000 0.53433  0.64217  0.59067  Biso   1.000  H
  C184     1.0000 0.55502  0.69609  0.51767  Biso   1.000  C
  H142     1.0000 0.55633  0.71397  0.56177  Biso   1.000  H
  C185     1.0000 0.56676  0.71275  0.44077  Biso   1.000  C
  C186     1.0000 0.56033  0.68420  0.37657  Biso   1.000  C
  H143     1.0000 0.56643  0.69427  0.32107  Biso   1.000  H
  C187     1.0000 0.54493  0.64083  0.39207  Biso   1.000  C
  H144     1.0000 0.54083  0.62257  0.34687  Biso   1.000  H
  C188     1.0000 0.58689  0.75973  0.42397  Biso   1.000  C
  C189     1.0000 0.62547  0.77980  0.37977  Biso   1.000  C
  H145     1.0000 0.63833  0.76367  0.36457  Biso   1.000  H
  H146     1.0000 0.49263  0.72447  0.39097  Biso   1.000  H
  H147     1.0000 0.43963  0.74167  0.50057  Biso   1.000  H
  O43      1.0000 0.10974  0.29708  0.75420  Biso   1.000  O
  O44      1.0000 0.10198  0.28136  0.89480  Biso   1.000  O
  C190     1.0000 0.08896  0.27698  0.81900  Biso   1.000  C
  C191     1.0000 0.04173  0.24432  0.80250  Biso   1.000  C
  C192     1.0000 0.01423  0.22153  0.86870  Biso   1.000  C
  H148     1.0000 0.02450  0.22550  0.92400  Biso   1.000  H
  C193     1.0000 0.97058  0.19227  0.85100  Biso   1.000  C
  H149     1.0000 0.95270  0.17570  0.89510  Biso   1.000  H
  C194     1.0000 0.95392  0.18735  0.77410  Biso   1.000  C
  C195     1.0000 0.98247  0.20947  0.70990  Biso   1.000  C
  H150     1.0000 0.97240  0.20550  0.65440  Biso   1.000  H
  C196     1.0000 0.02584  0.23744  0.72540  Biso   1.000  C
  H151     1.0000 0.04410  0.25160  0.68020  Biso   1.000  H
  C197     1.0000 0.90694  0.16050  0.75730  Biso   1.000  C
  C198     1.0000 0.88687  0.17901  0.71310  Biso   1.000  C
  H152     1.0000 0.90300  0.20800  0.69790  Biso   1.000  H
  H153     1.0000 0.94220  0.10150  0.72430  Biso   1.000  H
  H154     1.0000 0.92500  0.03130  0.83390  Biso   1.000  H
  O45      1.0000 0.77641  0.63041  0.08753  Biso   1.000  O
  O46      1.0000 0.76865  0.61469  0.22813  Biso   1.000  O
  C199     1.0000 0.75563  0.61031  0.15233  Biso   1.000  C
  C200     1.0000 0.70840  0.57765  0.13583  Biso   1.000  C
  C201     1.0000 0.68090  0.55486  0.20203  Biso   1.000  C
  H155     1.0000 0.69117  0.55883  0.25733  Biso   1.000  H
  C202     1.0000 0.63725  0.52560  0.18433  Biso   1.000  C
  H156     1.0000 0.61937  0.50903  0.22843  Biso   1.000  H
  C203     1.0000 0.62059  0.52068  0.10743  Biso   1.000  C
  C204     1.0000 0.64914  0.54280  0.04323  Biso   1.000  C
  H157     1.0000 0.63907  0.53883  0.98773  Biso   1.000  H
  C205     1.0000 0.69251  0.57077  0.05873  Biso   1.000  C
  H158     1.0000 0.71077  0.58493  0.01353  Biso   1.000  H
  C206     1.0000 0.57361  0.49383  0.09063  Biso   1.000  C
  C207     1.0000 0.55354  0.51234  0.04643  Biso   1.000  C
  H159     1.0000 0.56967  0.54133  0.03123  Biso   1.000  H
  H160     1.0000 0.60887  0.43483  0.05763  Biso   1.000  H
  H161     1.0000 0.59167  0.36463  0.16723  Biso   1.000  H
  O47      1.0000 0.44307  0.96375  0.42087  Biso   1.000  O
  O48      1.0000 0.43531  0.94803  0.56147  Biso   1.000  O
  C208     1.0000 0.42229  0.94365  0.48567  Biso   1.000  C
  C209     1.0000 0.37506  0.91099  0.46917  Biso   1.000  C
  C210     1.0000 0.34756  0.88820  0.53537  Biso   1.000  C
  H162     1.0000 0.35783  0.89217  0.59067  Biso   1.000  H
  C211     1.0000 0.30391  0.85894  0.51767  Biso   1.000  C
  H163     1.0000 0.28603  0.84237  0.56177  Biso   1.000  H
  C212     1.0000 0.28725  0.85402  0.44077  Biso   1.000  C
  C213     1.0000 0.31580  0.87614  0.37657  Biso   1.000  C
  H164     1.0000 0.30573  0.87217  0.32107  Biso   1.000  H
  C214     1.0000 0.35917  0.90411  0.39207  Biso   1.000  C
  H165     1.0000 0.37743  0.91827  0.34687  Biso   1.000  H
  C215     1.0000 0.24027  0.82717  0.42397  Biso   1.000  C
  C216     1.0000 0.22020  0.84568  0.37977  Biso   1.000  C
  H166     1.0000 0.23633  0.87467  0.36457  Biso   1.000  H
  H167     1.0000 0.27553  0.76817  0.39097  Biso   1.000  H
  H168     1.0000 0.25833  0.69797  0.50057  Biso   1.000  H
  O49      1.0000 0.70292  0.81266  0.75420  Biso   1.000  O
  O50      1.0000 0.71864  0.82062  0.89480  Biso   1.000  O
  C217     1.0000 0.72302  0.81198  0.81900  Biso   1.000  C
  C218     1.0000 0.75568  0.79741  0.80250  Biso   1.000  C
  C219     1.0000 0.77847  0.79270  0.86870  Biso   1.000  C
  H169     1.0000 0.77450  0.79900  0.92400  Biso   1.000  H
  C220     1.0000 0.80773  0.77831  0.85100  Biso   1.000  C
  H170     1.0000 0.82430  0.77700  0.89510  Biso   1.000  H
  C221     1.0000 0.81265  0.76657  0.77410  Biso   1.000  C
  C222     1.0000 0.79053  0.77300  0.70990  Biso   1.000  C
  H171     1.0000 0.79450  0.76690  0.65440  Biso   1.000  H
  C223     1.0000 0.76256  0.78840  0.72540  Biso   1.000  C
  H172     1.0000 0.74840  0.79250  0.68020  Biso   1.000  H
  C224     1.0000 0.83950  0.74644  0.75730  Biso   1.000  C
  C225     1.0000 0.82099  0.70786  0.71310  Biso   1.000  C
  H173     1.0000 0.79200  0.69500  0.69790  Biso   1.000  H
  H174     1.0000 0.89850  0.84070  0.72430  Biso   1.000  H
  H175     1.0000 0.96870  0.89370  0.83390  Biso   1.000  H
  O51      1.0000 0.36959  0.14599  0.08753  Biso   1.000  O
  O52      1.0000 0.38531  0.15395  0.22813  Biso   1.000  O
  C226     1.0000 0.38969  0.14531  0.15233  Biso   1.000  C
  C227     1.0000 0.42235  0.13074  0.13583  Biso   1.000  C
  C228     1.0000 0.44514  0.12603  0.20203  Biso   1.000  C
  H176     1.0000 0.44117  0.13233  0.25733  Biso   1.000  H
  C229     1.0000 0.47440  0.11164  0.18433  Biso   1.000  C
  H177     1.0000 0.49097  0.11033  0.22843  Biso   1.000  H
  C230     1.0000 0.47932  0.09990  0.10743  Biso   1.000  C
  C231     1.0000 0.45720  0.10633  0.04323  Biso   1.000  C
  H178     1.0000 0.46117  0.10023  0.98773  Biso   1.000  H
  C232     1.0000 0.42923  0.12173  0.05873  Biso   1.000  C
  H179     1.0000 0.41507  0.12583  0.01353  Biso   1.000  H
  C233     1.0000 0.50617  0.07977  0.09063  Biso   1.000  C
  C234     1.0000 0.48766  0.04119  0.04643  Biso   1.000  C
  H180     1.0000 0.45867  0.02833  0.03123  Biso   1.000  H
  H181     1.0000 0.56517  0.17403  0.05763  Biso   1.000  H
  H182     1.0000 0.63537  0.22703  0.16723  Biso   1.000  H
  O53      1.0000 0.03625  0.47933  0.42087  Biso   1.000  O
  O54      1.0000 0.05197  0.48729  0.56147  Biso   1.000  O
  C235     1.0000 0.05635  0.47865  0.48567  Biso   1.000  C
  C236     1.0000 0.08901  0.46408  0.46917  Biso   1.000  C
  C237     1.0000 0.11180  0.45937  0.53537  Biso   1.000  C
  H183     1.0000 0.10783  0.46567  0.59067  Biso   1.000  H
  C238     1.0000 0.14106  0.44498  0.51767  Biso   1.000  C
  H184     1.0000 0.15763  0.44367  0.56177  Biso   1.000  H
  C239     1.0000 0.14598  0.43324  0.44077  Biso   1.000  C
  C240     1.0000 0.12386  0.43967  0.37657  Biso   1.000  C
  H185     1.0000 0.12783  0.43357  0.32107  Biso   1.000  H
  C241     1.0000 0.09589  0.45507  0.39207  Biso   1.000  C
  H186     1.0000 0.08173  0.45917  0.34687  Biso   1.000  H
  C242     1.0000 0.17283  0.41311  0.42397  Biso   1.000  C
  C243     1.0000 0.15432  0.37453  0.37977  Biso   1.000  C
  H187     1.0000 0.12533  0.36167  0.36457  Biso   1.000  H
  H188     1.0000 0.23183  0.50737  0.39097  Biso   1.000  H
  H189     1.0000 0.30203  0.56037  0.50057  Biso   1.000  H
  O55      1.0000 0.89026  0.18734  0.24580  Biso   1.000  O
  O56      1.0000 0.89802  0.17938  0.10520  Biso   1.000  O
  C244     1.0000 0.91104  0.18802  0.18100  Biso   1.000  C
  C245     1.0000 0.95827  0.20259  0.19750  Biso   1.000  C
  C246     1.0000 0.98577  0.20730  0.13130  Biso   1.000  C
  H190     1.0000 0.97550  0.20100  0.07600  Biso   1.000  H
  C247     1.0000 0.02942  0.22169  0.14900  Biso   1.000  C
  H191     1.0000 0.04730  0.22300  0.10490  Biso   1.000  H
  C248     1.0000 0.04608  0.23343  0.22590  Biso   1.000  C
  C249     1.0000 0.01753  0.22700  0.29010  Biso   1.000  C
  H192     1.0000 0.02760  0.23310  0.34560  Biso   1.000  H
  C250     1.0000 0.97416  0.21160  0.27460  Biso   1.000  C
  H193     1.0000 0.95590  0.20750  0.31980  Biso   1.000  H
  C251     1.0000 0.09306  0.25356  0.24270  Biso   1.000  C
  C252     1.0000 0.11313  0.29214  0.28690  Biso   1.000  C
  H194     1.0000 0.09700  0.30500  0.30210  Biso   1.000  H
  H195     1.0000 0.05780  0.15930  0.27570  Biso   1.000  H
  H196     1.0000 0.07500  0.10630  0.16610  Biso   1.000  H
  O57      1.0000 0.55693  0.52067  0.57913  Biso   1.000  O
  O58      1.0000 0.56469  0.51271  0.43853  Biso   1.000  O
  C253     1.0000 0.57771  0.52135  0.51433  Biso   1.000  C
  C254     1.0000 0.62494  0.53592  0.53083  Biso   1.000  C
  C255     1.0000 0.65244  0.54063  0.46463  Biso   1.000  C
  H197     1.0000 0.64217  0.53433  0.40933  Biso   1.000  H
  C256     1.0000 0.69609  0.55502  0.48233  Biso   1.000  C
  H198     1.0000 0.71397  0.55633  0.43823  Biso   1.000  H
  C257     1.0000 0.71275  0.56676  0.55923  Biso   1.000  C
  C258     1.0000 0.68420  0.56033  0.62343  Biso   1.000  C
  H199     1.0000 0.69427  0.56643  0.67893  Biso   1.000  H
  C259     1.0000 0.64083  0.54493  0.60793  Biso   1.000  C
  H200     1.0000 0.62257  0.54083  0.65313  Biso   1.000  H
  C260     1.0000 0.75973  0.58689  0.57603  Biso   1.000  C
  C261     1.0000 0.77980  0.62547  0.62023  Biso   1.000  C
  H201     1.0000 0.76367  0.63833  0.63543  Biso   1.000  H
  H202     1.0000 0.72447  0.49263  0.60903  Biso   1.000  H
  H203     1.0000 0.74167  0.43963  0.49943  Biso   1.000  H
  O59      1.0000 0.22359  0.85401  0.91247  Biso   1.000  O
  O60      1.0000 0.23135  0.84605  0.77187  Biso   1.000  O
  C262     1.0000 0.24437  0.85469  0.84767  Biso   1.000  C
  C263     1.0000 0.29160  0.86926  0.86417  Biso   1.000  C
  C264     1.0000 0.31910  0.87397  0.79797  Biso   1.000  C
  H204     1.0000 0.30883  0.86767  0.74267  Biso   1.000  H
  C265     1.0000 0.36275  0.88836  0.81567  Biso   1.000  C
  H205     1.0000 0.38063  0.88967  0.77157  Biso   1.000  H
  C266     1.0000 0.37941  0.90010  0.89257  Biso   1.000  C
  C267     1.0000 0.35086  0.89367  0.95677  Biso   1.000  C
  H206     1.0000 0.36093  0.89977  0.01227  Biso   1.000  H
  C268     1.0000 0.30749  0.87827  0.94127  Biso   1.000  C
  H207     1.0000 0.28923  0.87417  0.98647  Biso   1.000  H
  C269     1.0000 0.42639  0.92023  0.90937  Biso   1.000  C
  C270     1.0000 0.44646  0.95881  0.95357  Biso   1.000  C
  H208     1.0000 0.43033  0.97167  0.96877  Biso   1.000  H
  H209     1.0000 0.39113  0.82597  0.94237  Biso   1.000  H
  H210     1.0000 0.40833  0.77297  0.83277  Biso   1.000  H
  O61      1.0000 0.29708  0.10974  0.24580  Biso   1.000  O
  O62      1.0000 0.28136  0.10198  0.10520  Biso   1.000  O
  C271     1.0000 0.27698  0.08896  0.18100  Biso   1.000  C
  C272     1.0000 0.24432  0.04173  0.19750  Biso   1.000  C
  C273     1.0000 0.22153  0.01423  0.13130  Biso   1.000  C
  H211     1.0000 0.22550  0.02450  0.07600  Biso   1.000  H
  C274     1.0000 0.19227  0.97058  0.14900  Biso   1.000  C
  H212     1.0000 0.17570  0.95270  0.10490  Biso   1.000  H
  C275     1.0000 0.18735  0.95392  0.22590  Biso   1.000  C
  C276     1.0000 0.20947  0.98247  0.29010  Biso   1.000  C
  H213     1.0000 0.20550  0.97240  0.34560  Biso   1.000  H
  C277     1.0000 0.23744  0.02584  0.27460  Biso   1.000  C
  H214     1.0000 0.25160  0.04410  0.31980  Biso   1.000  H
  C278     1.0000 0.16050  0.90694  0.24270  Biso   1.000  C
  C279     1.0000 0.17901  0.88687  0.28690  Biso   1.000  C
  H215     1.0000 0.20800  0.90300  0.30210  Biso   1.000  H
  H216     1.0000 0.10150  0.94220  0.27570  Biso   1.000  H
  H217     1.0000 0.03130  0.92500  0.16610  Biso   1.000  H
  O63      1.0000 0.96375  0.44307  0.57913  Biso   1.000  O
  O64      1.0000 0.94803  0.43531  0.43853  Biso   1.000  O
  C280     1.0000 0.94365  0.42229  0.51433  Biso   1.000  C
  C281     1.0000 0.91099  0.37506  0.53083  Biso   1.000  C
  C282     1.0000 0.88820  0.34756  0.46463  Biso   1.000  C
  H218     1.0000 0.89217  0.35783  0.40933  Biso   1.000  H
  C283     1.0000 0.85894  0.30391  0.48233  Biso   1.000  C
  H219     1.0000 0.84237  0.28603  0.43823  Biso   1.000  H
  C284     1.0000 0.85402  0.28725  0.55923  Biso   1.000  C
  C285     1.0000 0.87614  0.31580  0.62343  Biso   1.000  C
  H220     1.0000 0.87217  0.30573  0.67893  Biso   1.000  H
  C286     1.0000 0.90411  0.35917  0.60793  Biso   1.000  C
  H221     1.0000 0.91827  0.37743  0.65313  Biso   1.000  H
  C287     1.0000 0.82717  0.24027  0.57603  Biso   1.000  C
  C288     1.0000 0.84568  0.22020  0.62023  Biso   1.000  C
  H222     1.0000 0.87467  0.23633  0.63543  Biso   1.000  H
  H223     1.0000 0.76817  0.27553  0.60903  Biso   1.000  H
  H224     1.0000 0.69797  0.25833  0.49943  Biso   1.000  H
  O65      1.0000 0.63041  0.77641  0.91247  Biso   1.000  O
  O66      1.0000 0.61469  0.76865  0.77187  Biso   1.000  O
  C289     1.0000 0.61031  0.75563  0.84767  Biso   1.000  C
  C290     1.0000 0.57765  0.70840  0.86417  Biso   1.000  C
  C291     1.0000 0.55486  0.68090  0.79797  Biso   1.000  C
  H225     1.0000 0.55883  0.69117  0.74267  Biso   1.000  H
  C292     1.0000 0.52560  0.63725  0.81567  Biso   1.000  C
  H226     1.0000 0.50903  0.61937  0.77157  Biso   1.000  H
  C293     1.0000 0.52068  0.62059  0.89257  Biso   1.000  C
  C294     1.0000 0.54280  0.64914  0.95677  Biso   1.000  C
  H227     1.0000 0.53883  0.63907  0.01227  Biso   1.000  H
  C295     1.0000 0.57077  0.69251  0.94127  Biso   1.000  C
  H228     1.0000 0.58493  0.71077  0.98647  Biso   1.000  H
  C296     1.0000 0.49383  0.57361  0.90937  Biso   1.000  C
  C297     1.0000 0.51234  0.55354  0.95357  Biso   1.000  C
  H229     1.0000 0.54133  0.56967  0.96877  Biso   1.000  H
  H230     1.0000 0.43483  0.60887  0.94237  Biso   1.000  H
  H231     1.0000 0.36463  0.59167  0.83277  Biso   1.000  H
  O67      1.0000 0.81266  0.70292  0.24580  Biso   1.000  O
  O68      1.0000 0.82062  0.71864  0.10520  Biso   1.000  O
  C298     1.0000 0.81198  0.72302  0.18100  Biso   1.000  C
  C299     1.0000 0.79741  0.75568  0.19750  Biso   1.000  C
  C300     1.0000 0.79270  0.77847  0.13130  Biso   1.000  C
  H232     1.0000 0.79900  0.77450  0.07600  Biso   1.000  H
  C301     1.0000 0.77831  0.80773  0.14900  Biso   1.000  C
  H233     1.0000 0.77700  0.82430  0.10490  Biso   1.000  H
  C302     1.0000 0.76657  0.81265  0.22590  Biso   1.000  C
  C303     1.0000 0.77300  0.79053  0.29010  Biso   1.000  C
  H234     1.0000 0.76690  0.79450  0.34560  Biso   1.000  H
  C304     1.0000 0.78840  0.76256  0.27460  Biso   1.000  C
  H235     1.0000 0.79250  0.74840  0.31980  Biso   1.000  H
  C305     1.0000 0.74644  0.83950  0.24270  Biso   1.000  C
  C306     1.0000 0.70786  0.82099  0.28690  Biso   1.000  C
  H236     1.0000 0.69500  0.79200  0.30210  Biso   1.000  H
  H237     1.0000 0.84070  0.89850  0.27570  Biso   1.000  H
  H238     1.0000 0.89370  0.96870  0.16610  Biso   1.000  H
  O69      1.0000 0.47933  0.03625  0.57913  Biso   1.000  O
  O70      1.0000 0.48729  0.05197  0.43853  Biso   1.000  O
  C307     1.0000 0.47865  0.05635  0.51433  Biso   1.000  C
  C308     1.0000 0.46408  0.08901  0.53083  Biso   1.000  C
  C309     1.0000 0.45937  0.11180  0.46463  Biso   1.000  C
  H239     1.0000 0.46567  0.10783  0.40933  Biso   1.000  H
  C310     1.0000 0.44498  0.14106  0.48233  Biso   1.000  C
  H240     1.0000 0.44367  0.15763  0.43823  Biso   1.000  H
  C311     1.0000 0.43324  0.14598  0.55923  Biso   1.000  C
  C312     1.0000 0.43967  0.12386  0.62343  Biso   1.000  C
  H241     1.0000 0.43357  0.12783  0.67893  Biso   1.000  H
  C313     1.0000 0.45507  0.09589  0.60793  Biso   1.000  C
  H242     1.0000 0.45917  0.08173  0.65313  Biso   1.000  H
  C314     1.0000 0.41311  0.17283  0.57603  Biso   1.000  C
  C315     1.0000 0.37453  0.15432  0.62023  Biso   1.000  C
  H243     1.0000 0.36167  0.12533  0.63543  Biso   1.000  H
  H244     1.0000 0.50737  0.23183  0.60903  Biso   1.000  H
  H245     1.0000 0.56037  0.30203  0.49943  Biso   1.000  H
  O71      1.0000 0.14599  0.36959  0.91247  Biso   1.000  O
  O72      1.0000 0.15395  0.38531  0.77187  Biso   1.000  O
  C316     1.0000 0.14531  0.38969  0.84767  Biso   1.000  C
  C317     1.0000 0.13074  0.42235  0.86417  Biso   1.000  C
  C318     1.0000 0.12603  0.44514  0.79797  Biso   1.000  C
  H246     1.0000 0.13233  0.44117  0.74267  Biso   1.000  H
  C319     1.0000 0.11164  0.47440  0.81567  Biso   1.000  C
  H247     1.0000 0.11033  0.49097  0.77157  Biso   1.000  H
  C320     1.0000 0.09990  0.47932  0.89257  Biso   1.000  C
  C321     1.0000 0.10633  0.45720  0.95677  Biso   1.000  C
  H248     1.0000 0.10023  0.46117  0.01227  Biso   1.000  H
  C322     1.0000 0.12173  0.42923  0.94127  Biso   1.000  C
  H249     1.0000 0.12583  0.41507  0.98647  Biso   1.000  H
  C323     1.0000 0.07977  0.50617  0.90937  Biso   1.000  C
  C324     1.0000 0.04119  0.48766  0.95357  Biso   1.000  C
  H250     1.0000 0.02833  0.45867  0.96877  Biso   1.000  H
  H251     1.0000 0.17403  0.56517  0.94237  Biso   1.000  H
  H252     1.0000 0.22703  0.63537  0.83277  Biso   1.000  H
  Cu1      1.0000 0.83766  0.16234  0.08559  Biso   1.000  Cu
  Cu2      1.0000 0.50433  0.49567  0.41892  Biso   1.000  Cu
  Cu3      1.0000 0.17099  0.82901  0.75226  Biso   1.000  Cu
  Cu4      1.0000 0.83766  0.67532  0.08559  Biso   1.000  Cu
  Cu5      1.0000 0.50433  0.00865  0.41892  Biso   1.000  Cu
  Cu6      1.0000 0.17099  0.34199  0.75226  Biso   1.000  Cu
  Cu7      1.0000 0.32468  0.16234  0.08559  Biso   1.000  Cu
  Cu8      1.0000 0.99135  0.49567  0.41892  Biso   1.000  Cu
  Cu9      1.0000 0.65801  0.82901  0.75226  Biso   1.000  Cu
  Cu10     1.0000 0.16234  0.83766  0.91441  Biso   1.000  Cu
  Cu11     1.0000 0.82901  0.17099  0.24774  Biso   1.000  Cu
  Cu12     1.0000 0.49567  0.50433  0.58108  Biso   1.000  Cu
  Cu13     1.0000 0.67532  0.83766  0.91441  Biso   1.000  Cu
  Cu14     1.0000 0.34199  0.17099  0.24774  Biso   1.000  Cu
  Cu15     1.0000 0.00865  0.50433  0.58108  Biso   1.000  Cu
  Cu16     1.0000 0.16234  0.32468  0.91441  Biso   1.000  Cu
  Cu17     1.0000 0.82901  0.65801  0.24774  Biso   1.000  Cu
  Cu18     1.0000 0.49567  0.99135  0.58108  Biso   1.000  Cu
  O73      1.0000 0.80456  0.90228  0.17500  Biso   1.000  O
  C325     1.0000 0.68774  0.84387  0.30920  Biso   1.000  C
  C326     1.0000 0.76574  0.88287  0.22010  Biso   1.000  C
  C327     1.0000 0.84340  0.92170  0.23970  Biso   1.000  C
  C328     1.0000 0.88990  0.94495  0.20040  Biso   1.000  C
  H253     1.0000 0.91090  0.95545  0.24510  Biso   1.000  H
  O74      1.0000 0.47123  0.23561  0.50833  Biso   1.000  O
  C329     1.0000 0.35441  0.17720  0.64253  Biso   1.000  C
  C330     1.0000 0.43241  0.21620  0.55343  Biso   1.000  C
  C331     1.0000 0.51007  0.25503  0.57303  Biso   1.000  C
  C332     1.0000 0.55657  0.27828  0.53373  Biso   1.000  C
  H254     1.0000 0.57757  0.28878  0.57843  Biso   1.000  H
  O75      1.0000 0.13789  0.56895  0.84167  Biso   1.000  O
  C333     1.0000 0.02107  0.51054  0.97587  Biso   1.000  C
  C334     1.0000 0.09907  0.54954  0.88677  Biso   1.000  C
  C335     1.0000 0.17673  0.58837  0.90637  Biso   1.000  C
  C336     1.0000 0.22323  0.61162  0.86707  Biso   1.000  C
  H255     1.0000 0.24423  0.62212  0.91177  Biso   1.000  H
  O76      1.0000 0.09772  0.90228  0.17500  Biso   1.000  O
  C337     1.0000 0.15613  0.84387  0.30920  Biso   1.000  C
  C338     1.0000 0.11713  0.88287  0.22010  Biso   1.000  C
  C339     1.0000 0.07830  0.92170  0.23970  Biso   1.000  C
  C340     1.0000 0.05505  0.94495  0.20040  Biso   1.000  C
  H256     1.0000 0.04455  0.95545  0.24510  Biso   1.000  H
  O77      1.0000 0.76439  0.23561  0.50833  Biso   1.000  O
  C341     1.0000 0.82280  0.17720  0.64253  Biso   1.000  C
  C342     1.0000 0.78380  0.21620  0.55343  Biso   1.000  C
  C343     1.0000 0.74497  0.25503  0.57303  Biso   1.000  C
  C344     1.0000 0.72172  0.27828  0.53373  Biso   1.000  C
  H257     1.0000 0.71122  0.28878  0.57843  Biso   1.000  H
  O78      1.0000 0.43105  0.56895  0.84167  Biso   1.000  O
  C345     1.0000 0.48946  0.51054  0.97587  Biso   1.000  C
  C346     1.0000 0.45046  0.54954  0.88677  Biso   1.000  C
  C347     1.0000 0.41163  0.58837  0.90637  Biso   1.000  C
  C348     1.0000 0.38838  0.61162  0.86707  Biso   1.000  C
  H258     1.0000 0.37788  0.62212  0.91177  Biso   1.000  H
  O79      1.0000 0.09772  0.19544  0.17500  Biso   1.000  O
  C349     1.0000 0.15613  0.31226  0.30920  Biso   1.000  C
  C350     1.0000 0.11713  0.23426  0.22010  Biso   1.000  C
  C351     1.0000 0.07830  0.15660  0.23970  Biso   1.000  C
  C352     1.0000 0.05505  0.11010  0.20040  Biso   1.000  C
  H259     1.0000 0.04455  0.08910  0.24510  Biso   1.000  H
  O80      1.0000 0.76439  0.52877  0.50833  Biso   1.000  O
  C353     1.0000 0.82280  0.64559  0.64253  Biso   1.000  C
  C354     1.0000 0.78380  0.56759  0.55343  Biso   1.000  C
  C355     1.0000 0.74497  0.48993  0.57303  Biso   1.000  C
  C356     1.0000 0.72172  0.44343  0.53373  Biso   1.000  C
  H260     1.0000 0.71122  0.42243  0.57843  Biso   1.000  H
  O81      1.0000 0.43105  0.86211  0.84167  Biso   1.000  O
  C357     1.0000 0.48946  0.97893  0.97587  Biso   1.000  C
  C358     1.0000 0.45046  0.90093  0.88677  Biso   1.000  C
  C359     1.0000 0.41163  0.82327  0.90637  Biso   1.000  C
  C360     1.0000 0.38838  0.77677  0.86707  Biso   1.000  C
  H261     1.0000 0.37788  0.75577  0.91177  Biso   1.000  H
  O82      1.0000 0.90228  0.80456  0.82500  Biso   1.000  O
  C361     1.0000 0.84387  0.68774  0.69080  Biso   1.000  C
  C362     1.0000 0.88287  0.76574  0.77990  Biso   1.000  C
  C363     1.0000 0.92170  0.84340  0.76030  Biso   1.000  C
  C364     1.0000 0.94495  0.88990  0.79960  Biso   1.000  C
  H262     1.0000 0.95545  0.91090  0.75490  Biso   1.000  H
  O83      1.0000 0.56895  0.13789  0.15833  Biso   1.000  O
  C365     1.0000 0.51054  0.02107  0.02413  Biso   1.000  C
  C366     1.0000 0.54954  0.09907  0.11323  Biso   1.000  C
  C367     1.0000 0.58837  0.17673  0.09363  Biso   1.000  C
  C368     1.0000 0.61162  0.22323  0.13293  Biso   1.000  C
  H263     1.0000 0.62212  0.24423  0.08823  Biso   1.000  H
  O84      1.0000 0.23561  0.47123  0.49167  Biso   1.000  O
  C369     1.0000 0.17720  0.35441  0.35747  Biso   1.000  C
  C370     1.0000 0.21620  0.43241  0.44657  Biso   1.000  C
  C371     1.0000 0.25503  0.51007  0.42697  Biso   1.000  C
  C372     1.0000 0.27828  0.55657  0.46627  Biso   1.000  C
  H264     1.0000 0.28878  0.57757  0.42157  Biso   1.000  H
  O85      1.0000 0.90228  0.09772  0.82500  Biso   1.000  O
  C373     1.0000 0.84387  0.15613  0.69080  Biso   1.000  C
  C374     1.0000 0.88287  0.11713  0.77990  Biso   1.000  C
  C375     1.0000 0.92170  0.07830  0.76030  Biso   1.000  C
  C376     1.0000 0.94495  0.05505  0.79960  Biso   1.000  C
  H265     1.0000 0.95545  0.04455  0.75490  Biso   1.000  H
  O86      1.0000 0.56895  0.43105  0.15833  Biso   1.000  O
  C377     1.0000 0.51054  0.48946  0.02413  Biso   1.000  C
  C378     1.0000 0.54954  0.45046  0.11323  Biso   1.000  C
  C379     1.0000 0.58837  0.41163  0.09363  Biso   1.000  C
  C380     1.0000 0.61162  0.38838  0.13293  Biso   1.000  C
  H266     1.0000 0.62212  0.37788  0.08823  Biso   1.000  H
  O87      1.0000 0.23561  0.76439  0.49167  Biso   1.000  O
  C381     1.0000 0.17720  0.82280  0.35747  Biso   1.000  C
  C382     1.0000 0.21620  0.78380  0.44657  Biso   1.000  C
  C383     1.0000 0.25503  0.74497  0.42697  Biso   1.000  C
  C384     1.0000 0.27828  0.72172  0.46627  Biso   1.000  C
  H267     1.0000 0.28878  0.71122  0.42157  Biso   1.000  H
  O88      1.0000 0.19544  0.09772  0.82500  Biso   1.000  O
  C385     1.0000 0.31226  0.15613  0.69080  Biso   1.000  C
  C386     1.0000 0.23426  0.11713  0.77990  Biso   1.000  C
  C387     1.0000 0.15660  0.07830  0.76030  Biso   1.000  C
  C388     1.0000 0.11010  0.05505  0.79960  Biso   1.000  C
  H268     1.0000 0.08910  0.04455  0.75490  Biso   1.000  H
  O89      1.0000 0.86211  0.43105  0.15833  Biso   1.000  O
  C389     1.0000 0.97893  0.48946  0.02413  Biso   1.000  C
  C390     1.0000 0.90093  0.45046  0.11323  Biso   1.000  C
  C391     1.0000 0.82327  0.41163  0.09363  Biso   1.000  C
  C392     1.0000 0.77677  0.38838  0.13293  Biso   1.000  C
  H269     1.0000 0.75577  0.37788  0.08823  Biso   1.000  H
  O90      1.0000 0.52877  0.76439  0.49167  Biso   1.000  O
  C393     1.0000 0.64559  0.82280  0.35747  Biso   1.000  C
  C394     1.0000 0.56759  0.78380  0.44657  Biso   1.000  C
  C395     1.0000 0.48993  0.74497  0.42697  Biso   1.000  C
  C396     1.0000 0.44343  0.72172  0.46627  Biso   1.000  C
  H270     1.0000 0.42243  0.71122  0.42157  Biso   1.000  H
