data_image0
_cell_length_a       35.8273
_cell_length_b       35.8273
_cell_length_c       15.387
_cell_angle_alpha    90
_cell_angle_beta     90
_cell_angle_gamma    120

_symmetry_space_group_name_H-M    "P 1"
_symmetry_int_tables_number       1

loop_
  _symmetry_equiv_pos_as_xyz
  'x, y, z'

loop_
  _atom_site_label
  _atom_site_occupancy
  _atom_site_fract_x
  _atom_site_fract_y
  _atom_site_fract_z
  _atom_site_thermal_displace_type
  _atom_site_B_iso_or_equiv
  _atom_site_type_symbol
  O1       1.0000 0.55765  0.03818  0.57843  Biso   1.000  O
  O2       1.0000 0.56411  0.05075  0.43404  Biso   1.000  O
  C1       1.0000 0.57855  0.05692  0.50950  Biso   1.000  C
  C2       1.0000 0.62525  0.08898  0.52300  Biso   1.000  C
  C3       1.0000 0.65256  0.10998  0.45560  Biso   1.000  C
  H1       1.0000 0.64190  0.10500  0.39910  Biso   1.000  H
  C4       1.0000 0.69588  0.13854  0.47000  Biso   1.000  C
  H2       1.0000 0.71360  0.15330  0.42330  Biso   1.000  H
  C5       1.0000 0.71314  0.14547  0.55210  Biso   1.000  C
  C6       1.0000 0.68515  0.12570  0.62130  Biso   1.000  C
  H3       1.0000 0.69590  0.13110  0.67770  Biso   1.000  H
  C7       1.0000 0.64190  0.09829  0.60790  Biso   1.000  C
  H4       1.0000 0.62360  0.08590  0.65520  Biso   1.000  H
  C8       1.0000 0.76017  0.17250  0.56950  Biso   1.000  C
  C9       1.0000 0.77997  0.15417  0.61710  Biso   1.000  C
  H5       1.0000 0.76360  0.12540  0.63340  Biso   1.000  H
  H6       1.0000 0.76960  0.27420  0.59550  Biso   1.000  H
  H7       1.0000 0.74620  0.29750  0.47470  Biso   1.000  H
  O3       1.0000 0.22432  0.37151  0.91176  Biso   1.000  O
  O4       1.0000 0.23078  0.38408  0.76737  Biso   1.000  O
  C10      1.0000 0.24522  0.39025  0.84283  Biso   1.000  C
  C11      1.0000 0.29192  0.42231  0.85633  Biso   1.000  C
  C12      1.0000 0.31923  0.44331  0.78893  Biso   1.000  C
  H8       1.0000 0.30857  0.43833  0.73243  Biso   1.000  H
  C13      1.0000 0.36255  0.47187  0.80333  Biso   1.000  C
  H9       1.0000 0.38027  0.48663  0.75663  Biso   1.000  H
  C14      1.0000 0.37981  0.47880  0.88543  Biso   1.000  C
  C15      1.0000 0.35182  0.45903  0.95463  Biso   1.000  C
  H10      1.0000 0.36257  0.46443  0.01103  Biso   1.000  H
  C16      1.0000 0.30857  0.43162  0.94123  Biso   1.000  C
  H11      1.0000 0.29027  0.41923  0.98853  Biso   1.000  H
  C17      1.0000 0.42684  0.50583  0.90283  Biso   1.000  C
  C18      1.0000 0.44664  0.48750  0.95043  Biso   1.000  C
  H12      1.0000 0.43027  0.45873  0.96673  Biso   1.000  H
  H13      1.0000 0.43627  0.60753  0.92883  Biso   1.000  H
  H14      1.0000 0.41287  0.63083  0.80803  Biso   1.000  H
  O5       1.0000 0.89098  0.70485  0.24510  Biso   1.000  O
  O6       1.0000 0.89744  0.71742  0.10071  Biso   1.000  O
  C19      1.0000 0.91188  0.72359  0.17617  Biso   1.000  C
  C20      1.0000 0.95858  0.75565  0.18967  Biso   1.000  C
  C21      1.0000 0.98589  0.77665  0.12227  Biso   1.000  C
  H15      1.0000 0.97523  0.77167  0.06577  Biso   1.000  H
  C22      1.0000 0.02921  0.80521  0.13667  Biso   1.000  C
  H16      1.0000 0.04693  0.81997  0.08997  Biso   1.000  H
  C23      1.0000 0.04647  0.81214  0.21877  Biso   1.000  C
  C24      1.0000 0.01848  0.79237  0.28797  Biso   1.000  C
  H17      1.0000 0.02923  0.79777  0.34437  Biso   1.000  H
  C25      1.0000 0.97523  0.76496  0.27457  Biso   1.000  C
  H18      1.0000 0.95693  0.75257  0.32187  Biso   1.000  H
  C26      1.0000 0.09350  0.83917  0.23617  Biso   1.000  C
  C27      1.0000 0.11330  0.82084  0.28377  Biso   1.000  C
  H19      1.0000 0.09693  0.79207  0.30007  Biso   1.000  H
  H20      1.0000 0.10293  0.94087  0.26217  Biso   1.000  H
  H21      1.0000 0.07953  0.96417  0.14137  Biso   1.000  H
  O7       1.0000 0.96182  0.51947  0.57843  Biso   1.000  O
  O8       1.0000 0.94925  0.51336  0.43404  Biso   1.000  O
  C28      1.0000 0.94308  0.52163  0.50950  Biso   1.000  C
  C29      1.0000 0.91102  0.53627  0.52300  Biso   1.000  C
  C30      1.0000 0.89002  0.54258  0.45560  Biso   1.000  C
  H22      1.0000 0.89500  0.53690  0.39910  Biso   1.000  H
  C31      1.0000 0.86146  0.55734  0.47000  Biso   1.000  C
  H23      1.0000 0.84670  0.56030  0.42330  Biso   1.000  H
  C32      1.0000 0.85453  0.56767  0.55210  Biso   1.000  C
  C33      1.0000 0.87430  0.55945  0.62130  Biso   1.000  C
  H24      1.0000 0.86890  0.56480  0.67770  Biso   1.000  H
  C34      1.0000 0.90171  0.54361  0.60790  Biso   1.000  C
  H25      1.0000 0.91410  0.53770  0.65520  Biso   1.000  H
  C35      1.0000 0.82750  0.58767  0.56950  Biso   1.000  C
  C36      1.0000 0.84583  0.62580  0.61710  Biso   1.000  C
  H26      1.0000 0.87460  0.63820  0.63340  Biso   1.000  H
  H27      1.0000 0.72580  0.49540  0.59550  Biso   1.000  H
  H28      1.0000 0.70250  0.44870  0.47470  Biso   1.000  H
  O9       1.0000 0.62849  0.85280  0.91176  Biso   1.000  O
  O10      1.0000 0.61592  0.84669  0.76737  Biso   1.000  O
  C37      1.0000 0.60975  0.85496  0.84283  Biso   1.000  C
  C38      1.0000 0.57769  0.86960  0.85633  Biso   1.000  C
  C39      1.0000 0.55669  0.87591  0.78893  Biso   1.000  C
  H29      1.0000 0.56167  0.87023  0.73243  Biso   1.000  H
  C40      1.0000 0.52813  0.89067  0.80333  Biso   1.000  C
  H30      1.0000 0.51337  0.89363  0.75663  Biso   1.000  H
  C41      1.0000 0.52120  0.90100  0.88543  Biso   1.000  C
  C42      1.0000 0.54097  0.89278  0.95463  Biso   1.000  C
  H31      1.0000 0.53557  0.89813  0.01103  Biso   1.000  H
  C43      1.0000 0.56838  0.87694  0.94123  Biso   1.000  C
  H32      1.0000 0.58077  0.87103  0.98853  Biso   1.000  H
  C44      1.0000 0.49417  0.92100  0.90283  Biso   1.000  C
  C45      1.0000 0.51250  0.95913  0.95043  Biso   1.000  C
  H33      1.0000 0.54127  0.97153  0.96673  Biso   1.000  H
  H34      1.0000 0.39247  0.82873  0.92883  Biso   1.000  H
  H35      1.0000 0.36917  0.78203  0.80803  Biso   1.000  H
  O11      1.0000 0.29515  0.18614  0.24510  Biso   1.000  O
  O12      1.0000 0.28258  0.18003  0.10071  Biso   1.000  O
  C46      1.0000 0.27641  0.18830  0.17617  Biso   1.000  C
  C47      1.0000 0.24435  0.20294  0.18967  Biso   1.000  C
  C48      1.0000 0.22335  0.20925  0.12227  Biso   1.000  C
  H36      1.0000 0.22833  0.20357  0.06577  Biso   1.000  H
  C49      1.0000 0.19479  0.22401  0.13667  Biso   1.000  C
  H37      1.0000 0.18003  0.22697  0.08997  Biso   1.000  H
  C50      1.0000 0.18786  0.23434  0.21877  Biso   1.000  C
  C51      1.0000 0.20763  0.22612  0.28797  Biso   1.000  C
  H38      1.0000 0.20223  0.23147  0.34437  Biso   1.000  H
  C52      1.0000 0.23504  0.21028  0.27457  Biso   1.000  C
  H39      1.0000 0.24743  0.20437  0.32187  Biso   1.000  H
  C53      1.0000 0.16083  0.25434  0.23617  Biso   1.000  C
  C54      1.0000 0.17916  0.29247  0.28377  Biso   1.000  C
  H40      1.0000 0.20793  0.30487  0.30007  Biso   1.000  H
  H41      1.0000 0.05913  0.16207  0.26217  Biso   1.000  H
  H42      1.0000 0.03583  0.11537  0.14137  Biso   1.000  H
  O13      1.0000 0.48053  0.44235  0.57843  Biso   1.000  O
  O14      1.0000 0.48664  0.43589  0.43404  Biso   1.000  O
  C55      1.0000 0.47837  0.42145  0.50950  Biso   1.000  C
  C56      1.0000 0.46373  0.37475  0.52300  Biso   1.000  C
  C57      1.0000 0.45742  0.34744  0.45560  Biso   1.000  C
  H43      1.0000 0.46310  0.35810  0.39910  Biso   1.000  H
  C58      1.0000 0.44266  0.30412  0.47000  Biso   1.000  C
  H44      1.0000 0.43970  0.28640  0.42330  Biso   1.000  H
  C59      1.0000 0.43233  0.28686  0.55210  Biso   1.000  C
  C60      1.0000 0.44055  0.31485  0.62130  Biso   1.000  C
  H45      1.0000 0.43520  0.30410  0.67770  Biso   1.000  H
  C61      1.0000 0.45639  0.35810  0.60790  Biso   1.000  C
  H46      1.0000 0.46230  0.37640  0.65520  Biso   1.000  H
  C62      1.0000 0.41233  0.23983  0.56950  Biso   1.000  C
  C63      1.0000 0.37420  0.22003  0.61710  Biso   1.000  C
  H47      1.0000 0.36180  0.23640  0.63340  Biso   1.000  H
  H48      1.0000 0.50460  0.23040  0.59550  Biso   1.000  H
  H49      1.0000 0.55130  0.25380  0.47470  Biso   1.000  H
  O15      1.0000 0.14720  0.77568  0.91176  Biso   1.000  O
  O16      1.0000 0.15331  0.76922  0.76737  Biso   1.000  O
  C64      1.0000 0.14504  0.75478  0.84283  Biso   1.000  C
  C65      1.0000 0.13040  0.70808  0.85633  Biso   1.000  C
  C66      1.0000 0.12409  0.68077  0.78893  Biso   1.000  C
  H50      1.0000 0.12977  0.69143  0.73243  Biso   1.000  H
  C67      1.0000 0.10933  0.63745  0.80333  Biso   1.000  C
  H51      1.0000 0.10637  0.61973  0.75663  Biso   1.000  H
  C68      1.0000 0.09900  0.62019  0.88543  Biso   1.000  C
  C69      1.0000 0.10722  0.64818  0.95463  Biso   1.000  C
  H52      1.0000 0.10187  0.63743  0.01103  Biso   1.000  H
  C70      1.0000 0.12306  0.69143  0.94123  Biso   1.000  C
  H53      1.0000 0.12897  0.70973  0.98853  Biso   1.000  H
  C71      1.0000 0.07900  0.57316  0.90283  Biso   1.000  C
  C72      1.0000 0.04087  0.55336  0.95043  Biso   1.000  C
  H54      1.0000 0.02847  0.56973  0.96673  Biso   1.000  H
  H55      1.0000 0.17127  0.56373  0.92883  Biso   1.000  H
  H56      1.0000 0.21797  0.58713  0.80803  Biso   1.000  H
  O17      1.0000 0.81386  0.10902  0.24510  Biso   1.000  O
  O18      1.0000 0.81997  0.10256  0.10071  Biso   1.000  O
  C73      1.0000 0.81170  0.08812  0.17617  Biso   1.000  C
  C74      1.0000 0.79706  0.04142  0.18967  Biso   1.000  C
  C75      1.0000 0.79075  0.01411  0.12227  Biso   1.000  C
  H57      1.0000 0.79643  0.02477  0.06577  Biso   1.000  H
  C76      1.0000 0.77599  0.97079  0.13667  Biso   1.000  C
  H58      1.0000 0.77303  0.95307  0.08997  Biso   1.000  H
  C77      1.0000 0.76566  0.95353  0.21877  Biso   1.000  C
  C78      1.0000 0.77388  0.98152  0.28797  Biso   1.000  C
  H59      1.0000 0.76853  0.97077  0.34437  Biso   1.000  H
  C79      1.0000 0.78972  0.02477  0.27457  Biso   1.000  C
  H60      1.0000 0.79563  0.04307  0.32187  Biso   1.000  H
  C80      1.0000 0.74566  0.90650  0.23617  Biso   1.000  C
  C81      1.0000 0.70753  0.88670  0.28377  Biso   1.000  C
  H61      1.0000 0.69513  0.90307  0.30007  Biso   1.000  H
  H62      1.0000 0.83793  0.89707  0.26217  Biso   1.000  H
  H63      1.0000 0.88463  0.92047  0.14137  Biso   1.000  H
  O19      1.0000 0.03818  0.55765  0.42157  Biso   1.000  O
  O20      1.0000 0.05075  0.56411  0.56596  Biso   1.000  O
  C82      1.0000 0.05692  0.57855  0.49050  Biso   1.000  C
  C83      1.0000 0.08898  0.62525  0.47700  Biso   1.000  C
  C84      1.0000 0.10998  0.65256  0.54440  Biso   1.000  C
  H64      1.0000 0.10500  0.64190  0.60090  Biso   1.000  H
  C85      1.0000 0.13854  0.69588  0.53000  Biso   1.000  C
  H65      1.0000 0.15330  0.71360  0.57670  Biso   1.000  H
  C86      1.0000 0.14547  0.71314  0.44790  Biso   1.000  C
  C87      1.0000 0.12570  0.68515  0.37870  Biso   1.000  C
  H66      1.0000 0.13110  0.69590  0.32230  Biso   1.000  H
  C88      1.0000 0.09829  0.64190  0.39210  Biso   1.000  C
  H67      1.0000 0.08590  0.62360  0.34480  Biso   1.000  H
  C89      1.0000 0.17250  0.76017  0.43050  Biso   1.000  C
  C90      1.0000 0.15417  0.77997  0.38290  Biso   1.000  C
  H68      1.0000 0.12540  0.76360  0.36660  Biso   1.000  H
  H69      1.0000 0.27420  0.76960  0.40450  Biso   1.000  H
  H70      1.0000 0.29750  0.74620  0.52530  Biso   1.000  H
  O21      1.0000 0.70485  0.89098  0.75490  Biso   1.000  O
  O22      1.0000 0.71742  0.89744  0.89929  Biso   1.000  O
  C91      1.0000 0.72359  0.91188  0.82383  Biso   1.000  C
  C92      1.0000 0.75565  0.95858  0.81033  Biso   1.000  C
  C93      1.0000 0.77665  0.98589  0.87773  Biso   1.000  C
  H71      1.0000 0.77167  0.97523  0.93423  Biso   1.000  H
  C94      1.0000 0.80521  0.02921  0.86333  Biso   1.000  C
  H72      1.0000 0.81997  0.04693  0.91003  Biso   1.000  H
  C95      1.0000 0.81214  0.04647  0.78123  Biso   1.000  C
  C96      1.0000 0.79237  0.01848  0.71203  Biso   1.000  C
  H73      1.0000 0.79777  0.02923  0.65563  Biso   1.000  H
  C97      1.0000 0.76496  0.97523  0.72543  Biso   1.000  C
  H74      1.0000 0.75257  0.95693  0.67813  Biso   1.000  H
  C98      1.0000 0.83917  0.09350  0.76383  Biso   1.000  C
  C99      1.0000 0.82084  0.11330  0.71623  Biso   1.000  C
  H75      1.0000 0.79207  0.09693  0.69993  Biso   1.000  H
  H76      1.0000 0.94087  0.10293  0.73783  Biso   1.000  H
  H77      1.0000 0.96417  0.07953  0.85863  Biso   1.000  H
  O23      1.0000 0.37151  0.22432  0.08824  Biso   1.000  O
  O24      1.0000 0.38408  0.23078  0.23263  Biso   1.000  O
  C100     1.0000 0.39025  0.24522  0.15717  Biso   1.000  C
  C101     1.0000 0.42231  0.29192  0.14367  Biso   1.000  C
  C102     1.0000 0.44331  0.31923  0.21107  Biso   1.000  C
  H78      1.0000 0.43833  0.30857  0.26757  Biso   1.000  H
  C103     1.0000 0.47187  0.36255  0.19667  Biso   1.000  C
  H79      1.0000 0.48663  0.38027  0.24337  Biso   1.000  H
  C104     1.0000 0.47880  0.37981  0.11457  Biso   1.000  C
  C105     1.0000 0.45903  0.35182  0.04537  Biso   1.000  C
  H80      1.0000 0.46443  0.36257  0.98897  Biso   1.000  H
  C106     1.0000 0.43162  0.30857  0.05877  Biso   1.000  C
  H81      1.0000 0.41923  0.29027  0.01147  Biso   1.000  H
  C107     1.0000 0.50583  0.42684  0.09717  Biso   1.000  C
  C108     1.0000 0.48750  0.44664  0.04957  Biso   1.000  C
  H82      1.0000 0.45873  0.43027  0.03327  Biso   1.000  H
  H83      1.0000 0.60753  0.43627  0.07117  Biso   1.000  H
  H84      1.0000 0.63083  0.41287  0.19197  Biso   1.000  H
  O25      1.0000 0.51947  0.96182  0.42157  Biso   1.000  O
  O26      1.0000 0.51336  0.94925  0.56596  Biso   1.000  O
  C109     1.0000 0.52163  0.94308  0.49050  Biso   1.000  C
  C110     1.0000 0.53627  0.91102  0.47700  Biso   1.000  C
  C111     1.0000 0.54258  0.89002  0.54440  Biso   1.000  C
  H85      1.0000 0.53690  0.89500  0.60090  Biso   1.000  H
  C112     1.0000 0.55734  0.86146  0.53000  Biso   1.000  C
  H86      1.0000 0.56030  0.84670  0.57670  Biso   1.000  H
  C113     1.0000 0.56767  0.85453  0.44790  Biso   1.000  C
  C114     1.0000 0.55945  0.87430  0.37870  Biso   1.000  C
  H87      1.0000 0.56480  0.86890  0.32230  Biso   1.000  H
  C115     1.0000 0.54361  0.90171  0.39210  Biso   1.000  C
  H88      1.0000 0.53770  0.91410  0.34480  Biso   1.000  H
  C116     1.0000 0.58767  0.82750  0.43050  Biso   1.000  C
  C117     1.0000 0.62580  0.84583  0.38290  Biso   1.000  C
  H89      1.0000 0.63820  0.87460  0.36660  Biso   1.000  H
  H90      1.0000 0.49540  0.72580  0.40450  Biso   1.000  H
  H91      1.0000 0.44870  0.70250  0.52530  Biso   1.000  H
  O27      1.0000 0.18614  0.29515  0.75490  Biso   1.000  O
  O28      1.0000 0.18003  0.28258  0.89929  Biso   1.000  O
  C118     1.0000 0.18830  0.27641  0.82383  Biso   1.000  C
  C119     1.0000 0.20294  0.24435  0.81033  Biso   1.000  C
  C120     1.0000 0.20925  0.22335  0.87773  Biso   1.000  C
  H92      1.0000 0.20357  0.22833  0.93423  Biso   1.000  H
  C121     1.0000 0.22401  0.19479  0.86333  Biso   1.000  C
  H93      1.0000 0.22697  0.18003  0.91003  Biso   1.000  H
  C122     1.0000 0.23434  0.18786  0.78123  Biso   1.000  C
  C123     1.0000 0.22612  0.20763  0.71203  Biso   1.000  C
  H94      1.0000 0.23147  0.20223  0.65563  Biso   1.000  H
  C124     1.0000 0.21028  0.23504  0.72543  Biso   1.000  C
  H95      1.0000 0.20437  0.24743  0.67813  Biso   1.000  H
  C125     1.0000 0.25434  0.16083  0.76383  Biso   1.000  C
  C126     1.0000 0.29247  0.17916  0.71623  Biso   1.000  C
  H96      1.0000 0.30487  0.20793  0.69993  Biso   1.000  H
  H97      1.0000 0.16207  0.05913  0.73783  Biso   1.000  H
  H98      1.0000 0.11537  0.03583  0.85863  Biso   1.000  H
  O29      1.0000 0.85280  0.62849  0.08824  Biso   1.000  O
  O30      1.0000 0.84669  0.61592  0.23263  Biso   1.000  O
  C127     1.0000 0.85496  0.60975  0.15717  Biso   1.000  C
  C128     1.0000 0.86960  0.57769  0.14367  Biso   1.000  C
  C129     1.0000 0.87591  0.55669  0.21107  Biso   1.000  C
  H99      1.0000 0.87023  0.56167  0.26757  Biso   1.000  H
  C130     1.0000 0.89067  0.52813  0.19667  Biso   1.000  C
  H100     1.0000 0.89363  0.51337  0.24337  Biso   1.000  H
  C131     1.0000 0.90100  0.52120  0.11457  Biso   1.000  C
  C132     1.0000 0.89278  0.54097  0.04537  Biso   1.000  C
  H101     1.0000 0.89813  0.53557  0.98897  Biso   1.000  H
  C133     1.0000 0.87694  0.56838  0.05877  Biso   1.000  C
  H102     1.0000 0.87103  0.58077  0.01147  Biso   1.000  H
  C134     1.0000 0.92100  0.49417  0.09717  Biso   1.000  C
  C135     1.0000 0.95913  0.51250  0.04957  Biso   1.000  C
  H103     1.0000 0.97153  0.54127  0.03327  Biso   1.000  H
  H104     1.0000 0.82873  0.39247  0.07117  Biso   1.000  H
  H105     1.0000 0.78203  0.36917  0.19197  Biso   1.000  H
  O31      1.0000 0.44235  0.48053  0.42157  Biso   1.000  O
  O32      1.0000 0.43589  0.48664  0.56596  Biso   1.000  O
  C136     1.0000 0.42145  0.47837  0.49050  Biso   1.000  C
  C137     1.0000 0.37475  0.46373  0.47700  Biso   1.000  C
  C138     1.0000 0.34744  0.45742  0.54440  Biso   1.000  C
  H106     1.0000 0.35810  0.46310  0.60090  Biso   1.000  H
  C139     1.0000 0.30412  0.44266  0.53000  Biso   1.000  C
  H107     1.0000 0.28640  0.43970  0.57670  Biso   1.000  H
  C140     1.0000 0.28686  0.43233  0.44790  Biso   1.000  C
  C141     1.0000 0.31485  0.44055  0.37870  Biso   1.000  C
  H108     1.0000 0.30410  0.43520  0.32230  Biso   1.000  H
  C142     1.0000 0.35810  0.45639  0.39210  Biso   1.000  C
  H109     1.0000 0.37640  0.46230  0.34480  Biso   1.000  H
  C143     1.0000 0.23983  0.41233  0.43050  Biso   1.000  C
  C144     1.0000 0.22003  0.37420  0.38290  Biso   1.000  C
  H110     1.0000 0.23640  0.36180  0.36660  Biso   1.000  H
  H111     1.0000 0.23040  0.50460  0.40450  Biso   1.000  H
  H112     1.0000 0.25380  0.55130  0.52530  Biso   1.000  H
  O33      1.0000 0.10902  0.81386  0.75490  Biso   1.000  O
  O34      1.0000 0.10256  0.81997  0.89929  Biso   1.000  O
  C145     1.0000 0.08812  0.81170  0.82383  Biso   1.000  C
  C146     1.0000 0.04142  0.79706  0.81033  Biso   1.000  C
  C147     1.0000 0.01411  0.79075  0.87773  Biso   1.000  C
  H113     1.0000 0.02477  0.79643  0.93423  Biso   1.000  H
  C148     1.0000 0.97079  0.77599  0.86333  Biso   1.000  C
  H114     1.0000 0.95307  0.77303  0.91003  Biso   1.000  H
  C149     1.0000 0.95353  0.76566  0.78123  Biso   1.000  C
  C150     1.0000 0.98152  0.77388  0.71203  Biso   1.000  C
  H115     1.0000 0.97077  0.76853  0.65563  Biso   1.000  H
  C151     1.0000 0.02477  0.78972  0.72543  Biso   1.000  C
  H116     1.0000 0.04307  0.79563  0.67813  Biso   1.000  H
  C152     1.0000 0.90650  0.74566  0.76383  Biso   1.000  C
  C153     1.0000 0.88670  0.70753  0.71623  Biso   1.000  C
  H117     1.0000 0.90307  0.69513  0.69993  Biso   1.000  H
  H118     1.0000 0.89707  0.83793  0.73783  Biso   1.000  H
  H119     1.0000 0.92047  0.88463  0.85863  Biso   1.000  H
  O35      1.0000 0.77568  0.14720  0.08824  Biso   1.000  O
  O36      1.0000 0.76922  0.15331  0.23263  Biso   1.000  O
  C154     1.0000 0.75478  0.14504  0.15717  Biso   1.000  C
  C155     1.0000 0.70808  0.13040  0.14367  Biso   1.000  C
  C156     1.0000 0.68077  0.12409  0.21107  Biso   1.000  C
  H120     1.0000 0.69143  0.12977  0.26757  Biso   1.000  H
  C157     1.0000 0.63745  0.10933  0.19667  Biso   1.000  C
  H121     1.0000 0.61973  0.10637  0.24337  Biso   1.000  H
  C158     1.0000 0.62019  0.09900  0.11457  Biso   1.000  C
  C159     1.0000 0.64818  0.10722  0.04537  Biso   1.000  C
  H122     1.0000 0.63743  0.10187  0.98897  Biso   1.000  H
  C160     1.0000 0.69143  0.12306  0.05877  Biso   1.000  C
  H123     1.0000 0.70973  0.12897  0.01147  Biso   1.000  H
  C161     1.0000 0.57316  0.07900  0.09717  Biso   1.000  C
  C162     1.0000 0.55336  0.04087  0.04957  Biso   1.000  C
  H124     1.0000 0.56973  0.02847  0.03327  Biso   1.000  H
  H125     1.0000 0.56373  0.17127  0.07117  Biso   1.000  H
  H126     1.0000 0.58713  0.21797  0.19197  Biso   1.000  H
  O37      1.0000 0.44235  0.96182  0.42157  Biso   1.000  O
  O38      1.0000 0.43589  0.94925  0.56596  Biso   1.000  O
  C163     1.0000 0.42145  0.94308  0.49050  Biso   1.000  C
  C164     1.0000 0.37475  0.91102  0.47700  Biso   1.000  C
  C165     1.0000 0.34744  0.89002  0.54440  Biso   1.000  C
  H127     1.0000 0.35810  0.89500  0.60090  Biso   1.000  H
  C166     1.0000 0.30412  0.86146  0.53000  Biso   1.000  C
  H128     1.0000 0.28640  0.84670  0.57670  Biso   1.000  H
  C167     1.0000 0.28686  0.85453  0.44790  Biso   1.000  C
  C168     1.0000 0.31485  0.87430  0.37870  Biso   1.000  C
  H129     1.0000 0.30410  0.86890  0.32230  Biso   1.000  H
  C169     1.0000 0.35810  0.90171  0.39210  Biso   1.000  C
  H130     1.0000 0.37640  0.91410  0.34480  Biso   1.000  H
  C170     1.0000 0.23983  0.82750  0.43050  Biso   1.000  C
  C171     1.0000 0.22003  0.84583  0.38290  Biso   1.000  C
  H131     1.0000 0.23640  0.87460  0.36660  Biso   1.000  H
  H132     1.0000 0.23040  0.72580  0.40450  Biso   1.000  H
  H133     1.0000 0.25380  0.70250  0.52530  Biso   1.000  H
  O39      1.0000 0.10902  0.29515  0.75490  Biso   1.000  O
  O40      1.0000 0.10256  0.28258  0.89929  Biso   1.000  O
  C172     1.0000 0.08812  0.27641  0.82383  Biso   1.000  C
  C173     1.0000 0.04142  0.24435  0.81033  Biso   1.000  C
  C174     1.0000 0.01411  0.22335  0.87773  Biso   1.000  C
  H134     1.0000 0.02477  0.22833  0.93423  Biso   1.000  H
  C175     1.0000 0.97079  0.19479  0.86333  Biso   1.000  C
  H135     1.0000 0.95307  0.18003  0.91003  Biso   1.000  H
  C176     1.0000 0.95353  0.18786  0.78123  Biso   1.000  C
  C177     1.0000 0.98152  0.20763  0.71203  Biso   1.000  C
  H136     1.0000 0.97077  0.20223  0.65563  Biso   1.000  H
  C178     1.0000 0.02477  0.23504  0.72543  Biso   1.000  C
  H137     1.0000 0.04307  0.24743  0.67813  Biso   1.000  H
  C179     1.0000 0.90650  0.16083  0.76383  Biso   1.000  C
  C180     1.0000 0.88670  0.17916  0.71623  Biso   1.000  C
  H138     1.0000 0.90307  0.20793  0.69993  Biso   1.000  H
  H139     1.0000 0.89707  0.05913  0.73783  Biso   1.000  H
  H140     1.0000 0.92047  0.03583  0.85863  Biso   1.000  H
  O41      1.0000 0.77568  0.62849  0.08824  Biso   1.000  O
  O42      1.0000 0.76922  0.61592  0.23263  Biso   1.000  O
  C181     1.0000 0.75478  0.60975  0.15717  Biso   1.000  C
  C182     1.0000 0.70808  0.57769  0.14367  Biso   1.000  C
  C183     1.0000 0.68077  0.55669  0.21107  Biso   1.000  C
  H141     1.0000 0.69143  0.56167  0.26757  Biso   1.000  H
  C184     1.0000 0.63745  0.52813  0.19667  Biso   1.000  C
  H142     1.0000 0.61973  0.51337  0.24337  Biso   1.000  H
  C185     1.0000 0.62019  0.52120  0.11457  Biso   1.000  C
  C186     1.0000 0.64818  0.54097  0.04537  Biso   1.000  C
  H143     1.0000 0.63743  0.53557  0.98897  Biso   1.000  H
  C187     1.0000 0.69143  0.56838  0.05877  Biso   1.000  C
  H144     1.0000 0.70973  0.58077  0.01147  Biso   1.000  H
  C188     1.0000 0.57316  0.49417  0.09717  Biso   1.000  C
  C189     1.0000 0.55336  0.51250  0.04957  Biso   1.000  C
  H145     1.0000 0.56973  0.54127  0.03327  Biso   1.000  H
  H146     1.0000 0.56373  0.39247  0.07117  Biso   1.000  H
  H147     1.0000 0.58713  0.36917  0.19197  Biso   1.000  H
  O43      1.0000 0.03818  0.48053  0.42157  Biso   1.000  O
  O44      1.0000 0.05075  0.48664  0.56596  Biso   1.000  O
  C190     1.0000 0.05692  0.47837  0.49050  Biso   1.000  C
  C191     1.0000 0.08898  0.46373  0.47700  Biso   1.000  C
  C192     1.0000 0.10998  0.45742  0.54440  Biso   1.000  C
  H148     1.0000 0.10500  0.46310  0.60090  Biso   1.000  H
  C193     1.0000 0.13854  0.44266  0.53000  Biso   1.000  C
  H149     1.0000 0.15330  0.43970  0.57670  Biso   1.000  H
  C194     1.0000 0.14547  0.43233  0.44790  Biso   1.000  C
  C195     1.0000 0.12570  0.44055  0.37870  Biso   1.000  C
  H150     1.0000 0.13110  0.43520  0.32230  Biso   1.000  H
  C196     1.0000 0.09829  0.45639  0.39210  Biso   1.000  C
  H151     1.0000 0.08590  0.46230  0.34480  Biso   1.000  H
  C197     1.0000 0.17250  0.41233  0.43050  Biso   1.000  C
  C198     1.0000 0.15417  0.37420  0.38290  Biso   1.000  C
  H152     1.0000 0.12540  0.36180  0.36660  Biso   1.000  H
  H153     1.0000 0.27420  0.50460  0.40450  Biso   1.000  H
  H154     1.0000 0.29750  0.55130  0.52530  Biso   1.000  H
  O45      1.0000 0.70485  0.81386  0.75490  Biso   1.000  O
  O46      1.0000 0.71742  0.81997  0.89929  Biso   1.000  O
  C199     1.0000 0.72359  0.81170  0.82383  Biso   1.000  C
  C200     1.0000 0.75565  0.79706  0.81033  Biso   1.000  C
  C201     1.0000 0.77665  0.79075  0.87773  Biso   1.000  C
  H155     1.0000 0.77167  0.79643  0.93423  Biso   1.000  H
  C202     1.0000 0.80521  0.77599  0.86333  Biso   1.000  C
  H156     1.0000 0.81997  0.77303  0.91003  Biso   1.000  H
  C203     1.0000 0.81214  0.76566  0.78123  Biso   1.000  C
  C204     1.0000 0.79237  0.77388  0.71203  Biso   1.000  C
  H157     1.0000 0.79777  0.76853  0.65563  Biso   1.000  H
  C205     1.0000 0.76496  0.78972  0.72543  Biso   1.000  C
  H158     1.0000 0.75257  0.79563  0.67813  Biso   1.000  H
  C206     1.0000 0.83917  0.74566  0.76383  Biso   1.000  C
  C207     1.0000 0.82084  0.70753  0.71623  Biso   1.000  C
  H159     1.0000 0.79207  0.69513  0.69993  Biso   1.000  H
  H160     1.0000 0.94087  0.83793  0.73783  Biso   1.000  H
  H161     1.0000 0.96417  0.88463  0.85863  Biso   1.000  H
  O47      1.0000 0.37151  0.14720  0.08824  Biso   1.000  O
  O48      1.0000 0.38408  0.15331  0.23263  Biso   1.000  O
  C208     1.0000 0.39025  0.14504  0.15717  Biso   1.000  C
  C209     1.0000 0.42231  0.13040  0.14367  Biso   1.000  C
  C210     1.0000 0.44331  0.12409  0.21107  Biso   1.000  C
  H162     1.0000 0.43833  0.12977  0.26757  Biso   1.000  H
  C211     1.0000 0.47187  0.10933  0.19667  Biso   1.000  C
  H163     1.0000 0.48663  0.10637  0.24337  Biso   1.000  H
  C212     1.0000 0.47880  0.09900  0.11457  Biso   1.000  C
  C213     1.0000 0.45903  0.10722  0.04537  Biso   1.000  C
  H164     1.0000 0.46443  0.10187  0.98897  Biso   1.000  H
  C214     1.0000 0.43162  0.12306  0.05877  Biso   1.000  C
  H165     1.0000 0.41923  0.12897  0.01147  Biso   1.000  H
  C215     1.0000 0.50583  0.07900  0.09717  Biso   1.000  C
  C216     1.0000 0.48750  0.04087  0.04957  Biso   1.000  C
  H166     1.0000 0.45873  0.02847  0.03327  Biso   1.000  H
  H167     1.0000 0.60753  0.17127  0.07117  Biso   1.000  H
  H168     1.0000 0.63083  0.21797  0.19197  Biso   1.000  H
  O49      1.0000 0.51947  0.55765  0.42157  Biso   1.000  O
  O50      1.0000 0.51336  0.56411  0.56596  Biso   1.000  O
  C217     1.0000 0.52163  0.57855  0.49050  Biso   1.000  C
  C218     1.0000 0.53627  0.62525  0.47700  Biso   1.000  C
  C219     1.0000 0.54258  0.65256  0.54440  Biso   1.000  C
  H169     1.0000 0.53690  0.64190  0.60090  Biso   1.000  H
  C220     1.0000 0.55734  0.69588  0.53000  Biso   1.000  C
  H170     1.0000 0.56030  0.71360  0.57670  Biso   1.000  H
  C221     1.0000 0.56767  0.71314  0.44790  Biso   1.000  C
  C222     1.0000 0.55945  0.68515  0.37870  Biso   1.000  C
  H171     1.0000 0.56480  0.69590  0.32230  Biso   1.000  H
  C223     1.0000 0.54361  0.64190  0.39210  Biso   1.000  C
  H172     1.0000 0.53770  0.62360  0.34480  Biso   1.000  H
  C224     1.0000 0.58767  0.76017  0.43050  Biso   1.000  C
  C225     1.0000 0.62580  0.77997  0.38290  Biso   1.000  C
  H173     1.0000 0.63820  0.76360  0.36660  Biso   1.000  H
  H174     1.0000 0.49540  0.76960  0.40450  Biso   1.000  H
  H175     1.0000 0.44870  0.74620  0.52530  Biso   1.000  H
  O51      1.0000 0.18614  0.89098  0.75490  Biso   1.000  O
  O52      1.0000 0.18003  0.89744  0.89929  Biso   1.000  O
  C226     1.0000 0.18830  0.91188  0.82383  Biso   1.000  C
  C227     1.0000 0.20294  0.95858  0.81033  Biso   1.000  C
  C228     1.0000 0.20925  0.98589  0.87773  Biso   1.000  C
  H176     1.0000 0.20357  0.97523  0.93423  Biso   1.000  H
  C229     1.0000 0.22401  0.02921  0.86333  Biso   1.000  C
  H177     1.0000 0.22697  0.04693  0.91003  Biso   1.000  H
  C230     1.0000 0.23434  0.04647  0.78123  Biso   1.000  C
  C231     1.0000 0.22612  0.01848  0.71203  Biso   1.000  C
  H178     1.0000 0.23147  0.02923  0.65563  Biso   1.000  H
  C232     1.0000 0.21028  0.97523  0.72543  Biso   1.000  C
  H179     1.0000 0.20437  0.95693  0.67813  Biso   1.000  H
  C233     1.0000 0.25434  0.09350  0.76383  Biso   1.000  C
  C234     1.0000 0.29247  0.11330  0.71623  Biso   1.000  C
  H180     1.0000 0.30487  0.09693  0.69993  Biso   1.000  H
  H181     1.0000 0.16207  0.10293  0.73783  Biso   1.000  H
  H182     1.0000 0.11537  0.07953  0.85863  Biso   1.000  H
  O53      1.0000 0.85280  0.22432  0.08824  Biso   1.000  O
  O54      1.0000 0.84669  0.23078  0.23263  Biso   1.000  O
  C235     1.0000 0.85496  0.24522  0.15717  Biso   1.000  C
  C236     1.0000 0.86960  0.29192  0.14367  Biso   1.000  C
  C237     1.0000 0.87591  0.31923  0.21107  Biso   1.000  C
  H183     1.0000 0.87023  0.30857  0.26757  Biso   1.000  H
  C238     1.0000 0.89067  0.36255  0.19667  Biso   1.000  C
  H184     1.0000 0.89363  0.38027  0.24337  Biso   1.000  H
  C239     1.0000 0.90100  0.37981  0.11457  Biso   1.000  C
  C240     1.0000 0.89278  0.35182  0.04537  Biso   1.000  C
  H185     1.0000 0.89813  0.36257  0.98897  Biso   1.000  H
  C241     1.0000 0.87694  0.30857  0.05877  Biso   1.000  C
  H186     1.0000 0.87103  0.29027  0.01147  Biso   1.000  H
  C242     1.0000 0.92100  0.42684  0.09717  Biso   1.000  C
  C243     1.0000 0.95913  0.44664  0.04957  Biso   1.000  C
  H187     1.0000 0.97153  0.43027  0.03327  Biso   1.000  H
  H188     1.0000 0.82873  0.43627  0.07117  Biso   1.000  H
  H189     1.0000 0.78203  0.41287  0.19197  Biso   1.000  H
  O55      1.0000 0.96182  0.44235  0.57843  Biso   1.000  O
  O56      1.0000 0.94925  0.43589  0.43404  Biso   1.000  O
  C244     1.0000 0.94308  0.42145  0.50950  Biso   1.000  C
  C245     1.0000 0.91102  0.37475  0.52300  Biso   1.000  C
  C246     1.0000 0.89002  0.34744  0.45560  Biso   1.000  C
  H190     1.0000 0.89500  0.35810  0.39910  Biso   1.000  H
  C247     1.0000 0.86146  0.30412  0.47000  Biso   1.000  C
  H191     1.0000 0.84670  0.28640  0.42330  Biso   1.000  H
  C248     1.0000 0.85453  0.28686  0.55210  Biso   1.000  C
  C249     1.0000 0.87430  0.31485  0.62130  Biso   1.000  C
  H192     1.0000 0.86890  0.30410  0.67770  Biso   1.000  H
  C250     1.0000 0.90171  0.35810  0.60790  Biso   1.000  C
  H193     1.0000 0.91410  0.37640  0.65520  Biso   1.000  H
  C251     1.0000 0.82750  0.23983  0.56950  Biso   1.000  C
  C252     1.0000 0.84583  0.22003  0.61710  Biso   1.000  C
  H194     1.0000 0.87460  0.23640  0.63340  Biso   1.000  H
  H195     1.0000 0.72580  0.23040  0.59550  Biso   1.000  H
  H196     1.0000 0.70250  0.25380  0.47470  Biso   1.000  H
  O57      1.0000 0.62849  0.77568  0.91176  Biso   1.000  O
  O58      1.0000 0.61592  0.76922  0.76737  Biso   1.000  O
  C253     1.0000 0.60975  0.75478  0.84283  Biso   1.000  C
  C254     1.0000 0.57769  0.70808  0.85633  Biso   1.000  C
  C255     1.0000 0.55669  0.68077  0.78893  Biso   1.000  C
  H197     1.0000 0.56167  0.69143  0.73243  Biso   1.000  H
  C256     1.0000 0.52813  0.63745  0.80333  Biso   1.000  C
  H198     1.0000 0.51337  0.61973  0.75663  Biso   1.000  H
  C257     1.0000 0.52120  0.62019  0.88543  Biso   1.000  C
  C258     1.0000 0.54097  0.64818  0.95463  Biso   1.000  C
  H199     1.0000 0.53557  0.63743  0.01103  Biso   1.000  H
  C259     1.0000 0.56838  0.69143  0.94123  Biso   1.000  C
  H200     1.0000 0.58077  0.70973  0.98853  Biso   1.000  H
  C260     1.0000 0.49417  0.57316  0.90283  Biso   1.000  C
  C261     1.0000 0.51250  0.55336  0.95043  Biso   1.000  C
  H201     1.0000 0.54127  0.56973  0.96673  Biso   1.000  H
  H202     1.0000 0.39247  0.56373  0.92883  Biso   1.000  H
  H203     1.0000 0.36917  0.58713  0.80803  Biso   1.000  H
  O59      1.0000 0.29515  0.10902  0.24510  Biso   1.000  O
  O60      1.0000 0.28258  0.10256  0.10071  Biso   1.000  O
  C262     1.0000 0.27641  0.08812  0.17617  Biso   1.000  C
  C263     1.0000 0.24435  0.04142  0.18967  Biso   1.000  C
  C264     1.0000 0.22335  0.01411  0.12227  Biso   1.000  C
  H204     1.0000 0.22833  0.02477  0.06577  Biso   1.000  H
  C265     1.0000 0.19479  0.97079  0.13667  Biso   1.000  C
  H205     1.0000 0.18003  0.95307  0.08997  Biso   1.000  H
  C266     1.0000 0.18786  0.95353  0.21877  Biso   1.000  C
  C267     1.0000 0.20763  0.98152  0.28797  Biso   1.000  C
  H206     1.0000 0.20223  0.97077  0.34437  Biso   1.000  H
  C268     1.0000 0.23504  0.02477  0.27457  Biso   1.000  C
  H207     1.0000 0.24743  0.04307  0.32187  Biso   1.000  H
  C269     1.0000 0.16083  0.90650  0.23617  Biso   1.000  C
  C270     1.0000 0.17916  0.88670  0.28377  Biso   1.000  C
  H208     1.0000 0.20793  0.90307  0.30007  Biso   1.000  H
  H209     1.0000 0.05913  0.89707  0.26217  Biso   1.000  H
  H210     1.0000 0.03583  0.92047  0.14137  Biso   1.000  H
  O61      1.0000 0.48053  0.03818  0.57843  Biso   1.000  O
  O62      1.0000 0.48664  0.05075  0.43404  Biso   1.000  O
  C271     1.0000 0.47837  0.05692  0.50950  Biso   1.000  C
  C272     1.0000 0.46373  0.08898  0.52300  Biso   1.000  C
  C273     1.0000 0.45742  0.10998  0.45560  Biso   1.000  C
  H211     1.0000 0.46310  0.10500  0.39910  Biso   1.000  H
  C274     1.0000 0.44266  0.13854  0.47000  Biso   1.000  C
  H212     1.0000 0.43970  0.15330  0.42330  Biso   1.000  H
  C275     1.0000 0.43233  0.14547  0.55210  Biso   1.000  C
  C276     1.0000 0.44055  0.12570  0.62130  Biso   1.000  C
  H213     1.0000 0.43520  0.13110  0.67770  Biso   1.000  H
  C277     1.0000 0.45639  0.09829  0.60790  Biso   1.000  C
  H214     1.0000 0.46230  0.08590  0.65520  Biso   1.000  H
  C278     1.0000 0.41233  0.17250  0.56950  Biso   1.000  C
  C279     1.0000 0.37420  0.15417  0.61710  Biso   1.000  C
  H215     1.0000 0.36180  0.12540  0.63340  Biso   1.000  H
  H216     1.0000 0.50460  0.27420  0.59550  Biso   1.000  H
  H217     1.0000 0.55130  0.29750  0.47470  Biso   1.000  H
  O63      1.0000 0.14720  0.37151  0.91176  Biso   1.000  O
  O64      1.0000 0.15331  0.38408  0.76737  Biso   1.000  O
  C280     1.0000 0.14504  0.39025  0.84283  Biso   1.000  C
  C281     1.0000 0.13040  0.42231  0.85633  Biso   1.000  C
  C282     1.0000 0.12409  0.44331  0.78893  Biso   1.000  C
  H218     1.0000 0.12977  0.43833  0.73243  Biso   1.000  H
  C283     1.0000 0.10933  0.47187  0.80333  Biso   1.000  C
  H219     1.0000 0.10637  0.48663  0.75663  Biso   1.000  H
  C284     1.0000 0.09900  0.47880  0.88543  Biso   1.000  C
  C285     1.0000 0.10722  0.45903  0.95463  Biso   1.000  C
  H220     1.0000 0.10187  0.46443  0.01103  Biso   1.000  H
  C286     1.0000 0.12306  0.43162  0.94123  Biso   1.000  C
  H221     1.0000 0.12897  0.41923  0.98853  Biso   1.000  H
  C287     1.0000 0.07900  0.50583  0.90283  Biso   1.000  C
  C288     1.0000 0.04087  0.48750  0.95043  Biso   1.000  C
  H222     1.0000 0.02847  0.45873  0.96673  Biso   1.000  H
  H223     1.0000 0.17127  0.60753  0.92883  Biso   1.000  H
  H224     1.0000 0.21797  0.63083  0.80803  Biso   1.000  H
  O65      1.0000 0.81386  0.70485  0.24510  Biso   1.000  O
  O66      1.0000 0.81997  0.71742  0.10071  Biso   1.000  O
  C289     1.0000 0.81170  0.72359  0.17617  Biso   1.000  C
  C290     1.0000 0.79706  0.75565  0.18967  Biso   1.000  C
  C291     1.0000 0.79075  0.77665  0.12227  Biso   1.000  C
  H225     1.0000 0.79643  0.77167  0.06577  Biso   1.000  H
  C292     1.0000 0.77599  0.80521  0.13667  Biso   1.000  C
  H226     1.0000 0.77303  0.81997  0.08997  Biso   1.000  H
  C293     1.0000 0.76566  0.81214  0.21877  Biso   1.000  C
  C294     1.0000 0.77388  0.79237  0.28797  Biso   1.000  C
  H227     1.0000 0.76853  0.79777  0.34437  Biso   1.000  H
  C295     1.0000 0.78972  0.76496  0.27457  Biso   1.000  C
  H228     1.0000 0.79563  0.75257  0.32187  Biso   1.000  H
  C296     1.0000 0.74566  0.83917  0.23617  Biso   1.000  C
  C297     1.0000 0.70753  0.82084  0.28377  Biso   1.000  C
  H229     1.0000 0.69513  0.79207  0.30007  Biso   1.000  H
  H230     1.0000 0.83793  0.94087  0.26217  Biso   1.000  H
  H231     1.0000 0.88463  0.96417  0.14137  Biso   1.000  H
  O67      1.0000 0.55765  0.51947  0.57843  Biso   1.000  O
  O68      1.0000 0.56411  0.51336  0.43404  Biso   1.000  O
  C298     1.0000 0.57855  0.52163  0.50950  Biso   1.000  C
  C299     1.0000 0.62525  0.53627  0.52300  Biso   1.000  C
  C300     1.0000 0.65256  0.54258  0.45560  Biso   1.000  C
  H232     1.0000 0.64190  0.53690  0.39910  Biso   1.000  H
  C301     1.0000 0.69588  0.55734  0.47000  Biso   1.000  C
  H233     1.0000 0.71360  0.56030  0.42330  Biso   1.000  H
  C302     1.0000 0.71314  0.56767  0.55210  Biso   1.000  C
  C303     1.0000 0.68515  0.55945  0.62130  Biso   1.000  C
  H234     1.0000 0.69590  0.56480  0.67770  Biso   1.000  H
  C304     1.0000 0.64190  0.54361  0.60790  Biso   1.000  C
  H235     1.0000 0.62360  0.53770  0.65520  Biso   1.000  H
  C305     1.0000 0.76017  0.58767  0.56950  Biso   1.000  C
  C306     1.0000 0.77997  0.62580  0.61710  Biso   1.000  C
  H236     1.0000 0.76360  0.63820  0.63340  Biso   1.000  H
  H237     1.0000 0.76960  0.49540  0.59550  Biso   1.000  H
  H238     1.0000 0.74620  0.44870  0.47470  Biso   1.000  H
  O69      1.0000 0.22432  0.85280  0.91176  Biso   1.000  O
  O70      1.0000 0.23078  0.84669  0.76737  Biso   1.000  O
  C307     1.0000 0.24522  0.85496  0.84283  Biso   1.000  C
  C308     1.0000 0.29192  0.86960  0.85633  Biso   1.000  C
  C309     1.0000 0.31923  0.87591  0.78893  Biso   1.000  C
  H239     1.0000 0.30857  0.87023  0.73243  Biso   1.000  H
  C310     1.0000 0.36255  0.89067  0.80333  Biso   1.000  C
  H240     1.0000 0.38027  0.89363  0.75663  Biso   1.000  H
  C311     1.0000 0.37981  0.90100  0.88543  Biso   1.000  C
  C312     1.0000 0.35182  0.89278  0.95463  Biso   1.000  C
  H241     1.0000 0.36257  0.89813  0.01103  Biso   1.000  H
  C313     1.0000 0.30857  0.87694  0.94123  Biso   1.000  C
  H242     1.0000 0.29027  0.87103  0.98853  Biso   1.000  H
  C314     1.0000 0.42684  0.92100  0.90283  Biso   1.000  C
  C315     1.0000 0.44664  0.95913  0.95043  Biso   1.000  C
  H243     1.0000 0.43027  0.97153  0.96673  Biso   1.000  H
  H244     1.0000 0.43627  0.82873  0.92883  Biso   1.000  H
  H245     1.0000 0.41287  0.78203  0.80803  Biso   1.000  H
  O71      1.0000 0.89098  0.18614  0.24510  Biso   1.000  O
  O72      1.0000 0.89744  0.18003  0.10071  Biso   1.000  O
  C316     1.0000 0.91188  0.18830  0.17617  Biso   1.000  C
  C317     1.0000 0.95858  0.20294  0.18967  Biso   1.000  C
  C318     1.0000 0.98589  0.20925  0.12227  Biso   1.000  C
  H246     1.0000 0.97523  0.20357  0.06577  Biso   1.000  H
  C319     1.0000 0.02921  0.22401  0.13667  Biso   1.000  C
  H247     1.0000 0.04693  0.22697  0.08997  Biso   1.000  H
  C320     1.0000 0.04647  0.23434  0.21877  Biso   1.000  C
  C321     1.0000 0.01848  0.22612  0.28797  Biso   1.000  C
  H248     1.0000 0.02923  0.23147  0.34437  Biso   1.000  H
  C322     1.0000 0.97523  0.21028  0.27457  Biso   1.000  C
  H249     1.0000 0.95693  0.20437  0.32187  Biso   1.000  H
  C323     1.0000 0.09350  0.25434  0.23617  Biso   1.000  C
  C324     1.0000 0.11330  0.29247  0.28377  Biso   1.000  C
  H250     1.0000 0.09693  0.30487  0.30007  Biso   1.000  H
  H251     1.0000 0.10293  0.16207  0.26217  Biso   1.000  H
  H252     1.0000 0.07953  0.11537  0.14137  Biso   1.000  H
  Cu1      1.0000 0.50342  0.00684  0.41513  Biso   1.000  Cu
  Cu2      1.0000 0.17009  0.34017  0.74846  Biso   1.000  Cu
  Cu3      1.0000 0.83675  0.67351  0.08180  Biso   1.000  Cu
  Cu4      1.0000 0.99316  0.49658  0.41513  Biso   1.000  Cu
  Cu5      1.0000 0.65983  0.82991  0.74846  Biso   1.000  Cu
  Cu6      1.0000 0.32649  0.16325  0.08180  Biso   1.000  Cu
  Cu7      1.0000 0.50342  0.49658  0.41513  Biso   1.000  Cu
  Cu8      1.0000 0.17009  0.82991  0.74846  Biso   1.000  Cu
  Cu9      1.0000 0.83675  0.16325  0.08180  Biso   1.000  Cu
  Cu10     1.0000 0.00684  0.50342  0.58487  Biso   1.000  Cu
  Cu11     1.0000 0.67351  0.83675  0.91820  Biso   1.000  Cu
  Cu12     1.0000 0.34017  0.17009  0.25154  Biso   1.000  Cu
  Cu13     1.0000 0.49658  0.99316  0.58487  Biso   1.000  Cu
  Cu14     1.0000 0.16325  0.32649  0.91820  Biso   1.000  Cu
  Cu15     1.0000 0.82991  0.65983  0.25154  Biso   1.000  Cu
  Cu16     1.0000 0.49658  0.50342  0.58487  Biso   1.000  Cu
  Cu17     1.0000 0.16325  0.83675  0.91820  Biso   1.000  Cu
  Cu18     1.0000 0.82991  0.17009  0.25154  Biso   1.000  Cu
  O73      1.0000 0.76548  0.23452  0.49880  Biso   1.000  O
  C325     1.0000 0.82301  0.17699  0.64120  Biso   1.000  C
  C326     1.0000 0.78459  0.21541  0.54450  Biso   1.000  C
  C327     1.0000 0.74690  0.25310  0.55850  Biso   1.000  C
  C328     1.0000 0.72530  0.27470  0.51050  Biso   1.000  C
  H253     1.0000 0.71380  0.28620  0.55200  Biso   1.000  H
  O74      1.0000 0.43215  0.56785  0.83213  Biso   1.000  O
  C329     1.0000 0.48968  0.51032  0.97453  Biso   1.000  C
  C330     1.0000 0.45126  0.54874  0.87783  Biso   1.000  C
  C331     1.0000 0.41357  0.58643  0.89183  Biso   1.000  C
  C332     1.0000 0.39197  0.60803  0.84383  Biso   1.000  C
  H254     1.0000 0.38047  0.61953  0.88533  Biso   1.000  H
  O75      1.0000 0.09881  0.90119  0.16547  Biso   1.000  O
  C333     1.0000 0.15634  0.84366  0.30787  Biso   1.000  C
  C334     1.0000 0.11792  0.88208  0.21117  Biso   1.000  C
  C335     1.0000 0.08023  0.91977  0.22517  Biso   1.000  C
  C336     1.0000 0.05863  0.94137  0.17717  Biso   1.000  C
  H255     1.0000 0.04713  0.95287  0.21867  Biso   1.000  H
  O76      1.0000 0.76548  0.53096  0.49880  Biso   1.000  O
  C337     1.0000 0.82301  0.64602  0.64120  Biso   1.000  C
  C338     1.0000 0.78459  0.56918  0.54450  Biso   1.000  C
  C339     1.0000 0.74690  0.49380  0.55850  Biso   1.000  C
  C340     1.0000 0.72530  0.45060  0.51050  Biso   1.000  C
  H256     1.0000 0.71380  0.42760  0.55200  Biso   1.000  H
  O77      1.0000 0.43215  0.86429  0.83213  Biso   1.000  O
  C341     1.0000 0.48968  0.97935  0.97453  Biso   1.000  C
  C342     1.0000 0.45126  0.90251  0.87783  Biso   1.000  C
  C343     1.0000 0.41357  0.82713  0.89183  Biso   1.000  C
  C344     1.0000 0.39197  0.78393  0.84383  Biso   1.000  C
  H257     1.0000 0.38047  0.76093  0.88533  Biso   1.000  H
  O78      1.0000 0.09881  0.19763  0.16547  Biso   1.000  O
  C345     1.0000 0.15634  0.31269  0.30787  Biso   1.000  C
  C346     1.0000 0.11792  0.23585  0.21117  Biso   1.000  C
  C347     1.0000 0.08023  0.16047  0.22517  Biso   1.000  C
  C348     1.0000 0.05863  0.11727  0.17717  Biso   1.000  C
  H258     1.0000 0.04713  0.09427  0.21867  Biso   1.000  H
  O79      1.0000 0.46904  0.23452  0.49880  Biso   1.000  O
  C349     1.0000 0.35398  0.17699  0.64120  Biso   1.000  C
  C350     1.0000 0.43082  0.21541  0.54450  Biso   1.000  C
  C351     1.0000 0.50620  0.25310  0.55850  Biso   1.000  C
  C352     1.0000 0.54940  0.27470  0.51050  Biso   1.000  C
  H259     1.0000 0.57240  0.28620  0.55200  Biso   1.000  H
  O80      1.0000 0.13571  0.56785  0.83213  Biso   1.000  O
  C353     1.0000 0.02065  0.51032  0.97453  Biso   1.000  C
  C354     1.0000 0.09749  0.54874  0.87783  Biso   1.000  C
  C355     1.0000 0.17287  0.58643  0.89183  Biso   1.000  C
  C356     1.0000 0.21607  0.60803  0.84383  Biso   1.000  C
  H260     1.0000 0.23907  0.61953  0.88533  Biso   1.000  H
  O81      1.0000 0.80237  0.90119  0.16547  Biso   1.000  O
  C357     1.0000 0.68731  0.84366  0.30787  Biso   1.000  C
  C358     1.0000 0.76415  0.88208  0.21117  Biso   1.000  C
  C359     1.0000 0.83953  0.91977  0.22517  Biso   1.000  C
  C360     1.0000 0.88273  0.94137  0.17717  Biso   1.000  C
  H261     1.0000 0.90573  0.95287  0.21867  Biso   1.000  H
  O82      1.0000 0.23452  0.76548  0.50120  Biso   1.000  O
  C361     1.0000 0.17699  0.82301  0.35880  Biso   1.000  C
  C362     1.0000 0.21541  0.78459  0.45550  Biso   1.000  C
  C363     1.0000 0.25310  0.74690  0.44150  Biso   1.000  C
  C364     1.0000 0.27470  0.72530  0.48950  Biso   1.000  C
  H262     1.0000 0.28620  0.71380  0.44800  Biso   1.000  H
  O83      1.0000 0.90119  0.09881  0.83453  Biso   1.000  O
  C365     1.0000 0.84366  0.15634  0.69213  Biso   1.000  C
  C366     1.0000 0.88208  0.11792  0.78883  Biso   1.000  C
  C367     1.0000 0.91977  0.08023  0.77483  Biso   1.000  C
  C368     1.0000 0.94137  0.05863  0.82283  Biso   1.000  C
  H263     1.0000 0.95287  0.04713  0.78133  Biso   1.000  H
  O84      1.0000 0.56785  0.43215  0.16787  Biso   1.000  O
  C369     1.0000 0.51032  0.48968  0.02547  Biso   1.000  C
  C370     1.0000 0.54874  0.45126  0.12217  Biso   1.000  C
  C371     1.0000 0.58643  0.41357  0.10817  Biso   1.000  C
  C372     1.0000 0.60803  0.39197  0.15617  Biso   1.000  C
  H264     1.0000 0.61953  0.38047  0.11467  Biso   1.000  H
  O85      1.0000 0.53096  0.76548  0.50120  Biso   1.000  O
  C373     1.0000 0.64602  0.82301  0.35880  Biso   1.000  C
  C374     1.0000 0.56918  0.78459  0.45550  Biso   1.000  C
  C375     1.0000 0.49380  0.74690  0.44150  Biso   1.000  C
  C376     1.0000 0.45060  0.72530  0.48950  Biso   1.000  C
  H265     1.0000 0.42760  0.71380  0.44800  Biso   1.000  H
  O86      1.0000 0.19763  0.09881  0.83453  Biso   1.000  O
  C377     1.0000 0.31269  0.15634  0.69213  Biso   1.000  C
  C378     1.0000 0.23585  0.11792  0.78883  Biso   1.000  C
  C379     1.0000 0.16047  0.08023  0.77483  Biso   1.000  C
  C380     1.0000 0.11727  0.05863  0.82283  Biso   1.000  C
  H266     1.0000 0.09427  0.04713  0.78133  Biso   1.000  H
  O87      1.0000 0.86429  0.43215  0.16787  Biso   1.000  O
  C381     1.0000 0.97935  0.48968  0.02547  Biso   1.000  C
  C382     1.0000 0.90251  0.45126  0.12217  Biso   1.000  C
  C383     1.0000 0.82713  0.41357  0.10817  Biso   1.000  C
  C384     1.0000 0.78393  0.39197  0.15617  Biso   1.000  C
  H267     1.0000 0.76093  0.38047  0.11467  Biso   1.000  H
  O88      1.0000 0.23452  0.46904  0.50120  Biso   1.000  O
  C385     1.0000 0.17699  0.35398  0.35880  Biso   1.000  C
  C386     1.0000 0.21541  0.43082  0.45550  Biso   1.000  C
  C387     1.0000 0.25310  0.50620  0.44150  Biso   1.000  C
  C388     1.0000 0.27470  0.54940  0.48950  Biso   1.000  C
  H268     1.0000 0.28620  0.57240  0.44800  Biso   1.000  H
  O89      1.0000 0.90119  0.80237  0.83453  Biso   1.000  O
  C389     1.0000 0.84366  0.68731  0.69213  Biso   1.000  C
  C390     1.0000 0.88208  0.76415  0.78883  Biso   1.000  C
  C391     1.0000 0.91977  0.83953  0.77483  Biso   1.000  C
  C392     1.0000 0.94137  0.88273  0.82283  Biso   1.000  C
  H269     1.0000 0.95287  0.90573  0.78133  Biso   1.000  H
  O90      1.0000 0.56785  0.13571  0.16787  Biso   1.000  O
  C393     1.0000 0.51032  0.02065  0.02547  Biso   1.000  C
  C394     1.0000 0.54874  0.09749  0.12217  Biso   1.000  C
  C395     1.0000 0.58643  0.17287  0.10817  Biso   1.000  C
  C396     1.0000 0.60803  0.21607  0.15617  Biso   1.000  C
  H270     1.0000 0.61953  0.23907  0.11467  Biso   1.000  H
