data_image0
_cell_length_a       35.1397
_cell_length_b       35.1397
_cell_length_c       21.879
_cell_angle_alpha    90
_cell_angle_beta     90
_cell_angle_gamma    120

_symmetry_space_group_name_H-M    "P 1"
_symmetry_int_tables_number       1

loop_
  _symmetry_equiv_pos_as_xyz
  'x, y, z'

loop_
  _atom_site_label
  _atom_site_occupancy
  _atom_site_fract_x
  _atom_site_fract_y
  _atom_site_fract_z
  _atom_site_thermal_displace_type
  _atom_site_B_iso_or_equiv
  _atom_site_type_symbol
  O1       1.0000 0.63751  0.77995  0.40332  Biso   1.000  O
  O2       1.0000 0.61097  0.76636  0.30759  Biso   1.000  O
  C1       1.0000 0.61269  0.75550  0.36085  Biso   1.000  C
  C2       1.0000 0.58058  0.70824  0.37920  Biso   1.000  C
  C3       1.0000 0.55295  0.67884  0.33514  Biso   1.000  C
  H1       1.0000 0.55340  0.68790  0.29510  Biso   1.000  H
  C4       1.0000 0.52455  0.63546  0.35240  Biso   1.000  C
  H2       1.0000 0.50570  0.61590  0.32310  Biso   1.000  H
  C5       1.0000 0.52316  0.62065  0.40940  Biso   1.000  C
  C6       1.0000 0.55036  0.65053  0.45470  Biso   1.000  C
  H3       1.0000 0.54920  0.64150  0.49490  Biso   1.000  H
  C7       1.0000 0.57945  0.69463  0.43720  Biso   1.000  C
  H4       1.0000 0.59810  0.71460  0.46630  Biso   1.000  H
  C8       1.0000 0.49536  0.57361  0.42860  Biso   1.000  C
  C9       1.0000 0.51329  0.55400  0.46360  Biso   1.000  C
  H5       1.0000 0.54240  0.57090  0.47590  Biso   1.000  H
  H6       1.0000 0.37580  0.57950  0.33320  Biso   1.000  H
  H7       1.0000 0.43300  0.61240  0.44170  Biso   1.000  H
  O3       1.0000 0.30418  0.11328  0.73665  Biso   1.000  O
  O4       1.0000 0.27764  0.09969  0.64092  Biso   1.000  O
  C10      1.0000 0.27936  0.08883  0.69418  Biso   1.000  C
  C11      1.0000 0.24725  0.04157  0.71253  Biso   1.000  C
  C12      1.0000 0.21962  0.01217  0.66847  Biso   1.000  C
  H8       1.0000 0.22007  0.02123  0.62843  Biso   1.000  H
  C13      1.0000 0.19122  0.96879  0.68573  Biso   1.000  C
  H9       1.0000 0.17237  0.94923  0.65643  Biso   1.000  H
  C14      1.0000 0.18983  0.95398  0.74273  Biso   1.000  C
  C15      1.0000 0.21703  0.98386  0.78803  Biso   1.000  C
  H10      1.0000 0.21587  0.97483  0.82823  Biso   1.000  H
  C16      1.0000 0.24612  0.02796  0.77053  Biso   1.000  C
  H11      1.0000 0.26477  0.04793  0.79963  Biso   1.000  H
  C17      1.0000 0.16203  0.90694  0.76193  Biso   1.000  C
  C18      1.0000 0.17996  0.88733  0.79693  Biso   1.000  C
  H12      1.0000 0.20907  0.90423  0.80923  Biso   1.000  H
  H13      1.0000 0.04247  0.91283  0.66653  Biso   1.000  H
  H14      1.0000 0.09967  0.94573  0.77503  Biso   1.000  H
  O5       1.0000 0.97084  0.44662  0.06999  Biso   1.000  O
  O6       1.0000 0.94430  0.43303  0.97426  Biso   1.000  O
  C19      1.0000 0.94602  0.42217  0.02752  Biso   1.000  C
  C20      1.0000 0.91391  0.37491  0.04587  Biso   1.000  C
  C21      1.0000 0.88628  0.34551  0.00181  Biso   1.000  C
  H15      1.0000 0.88673  0.35457  0.96177  Biso   1.000  H
  C22      1.0000 0.85788  0.30213  0.01907  Biso   1.000  C
  H16      1.0000 0.83903  0.28257  0.98977  Biso   1.000  H
  C23      1.0000 0.85649  0.28732  0.07607  Biso   1.000  C
  C24      1.0000 0.88369  0.31720  0.12137  Biso   1.000  C
  H17      1.0000 0.88253  0.30817  0.16157  Biso   1.000  H
  C25      1.0000 0.91278  0.36130  0.10387  Biso   1.000  C
  H18      1.0000 0.93143  0.38127  0.13297  Biso   1.000  H
  C26      1.0000 0.82869  0.24028  0.09527  Biso   1.000  C
  C27      1.0000 0.84662  0.22067  0.13027  Biso   1.000  C
  H19      1.0000 0.87573  0.23757  0.14257  Biso   1.000  H
  H20      1.0000 0.70913  0.24617  0.99987  Biso   1.000  H
  H21      1.0000 0.76633  0.27907  0.10837  Biso   1.000  H
  O7       1.0000 0.22005  0.85756  0.40332  Biso   1.000  O
  O8       1.0000 0.23364  0.84461  0.30759  Biso   1.000  O
  C28      1.0000 0.24450  0.85719  0.36085  Biso   1.000  C
  C29      1.0000 0.29176  0.87234  0.37920  Biso   1.000  C
  C30      1.0000 0.32116  0.87411  0.33514  Biso   1.000  C
  H22      1.0000 0.31210  0.86550  0.29510  Biso   1.000  H
  C31      1.0000 0.36454  0.88909  0.35240  Biso   1.000  C
  H23      1.0000 0.38410  0.88980  0.32310  Biso   1.000  H
  C32      1.0000 0.37935  0.90251  0.40940  Biso   1.000  C
  C33      1.0000 0.34947  0.89983  0.45470  Biso   1.000  C
  H24      1.0000 0.35850  0.90770  0.49490  Biso   1.000  H
  C34      1.0000 0.30537  0.88482  0.43720  Biso   1.000  C
  H25      1.0000 0.28540  0.88350  0.46630  Biso   1.000  H
  C35      1.0000 0.42639  0.92175  0.42860  Biso   1.000  C
  C36      1.0000 0.44600  0.95929  0.46360  Biso   1.000  C
  H26      1.0000 0.42910  0.97150  0.47590  Biso   1.000  H
  H27      1.0000 0.42050  0.79630  0.33320  Biso   1.000  H
  H28      1.0000 0.38760  0.82060  0.44170  Biso   1.000  H
  O9       1.0000 0.88672  0.19089  0.73665  Biso   1.000  O
  O10      1.0000 0.90031  0.17794  0.64092  Biso   1.000  O
  C37      1.0000 0.91117  0.19052  0.69418  Biso   1.000  C
  C38      1.0000 0.95843  0.20567  0.71253  Biso   1.000  C
  C39      1.0000 0.98783  0.20744  0.66847  Biso   1.000  C
  H29      1.0000 0.97877  0.19883  0.62843  Biso   1.000  H
  C40      1.0000 0.03121  0.22242  0.68573  Biso   1.000  C
  H30      1.0000 0.05077  0.22313  0.65643  Biso   1.000  H
  C41      1.0000 0.04602  0.23584  0.74273  Biso   1.000  C
  C42      1.0000 0.01614  0.23316  0.78803  Biso   1.000  C
  H31      1.0000 0.02517  0.24103  0.82823  Biso   1.000  H
  C43      1.0000 0.97204  0.21815  0.77053  Biso   1.000  C
  H32      1.0000 0.95207  0.21683  0.79963  Biso   1.000  H
  C44      1.0000 0.09306  0.25508  0.76193  Biso   1.000  C
  C45      1.0000 0.11267  0.29262  0.79693  Biso   1.000  C
  H33      1.0000 0.09577  0.30483  0.80923  Biso   1.000  H
  H34      1.0000 0.08717  0.12963  0.66653  Biso   1.000  H
  H35      1.0000 0.05427  0.15393  0.77503  Biso   1.000  H
  O11      1.0000 0.55338  0.52423  0.06999  Biso   1.000  O
  O12      1.0000 0.56697  0.51128  0.97426  Biso   1.000  O
  C46      1.0000 0.57783  0.52386  0.02752  Biso   1.000  C
  C47      1.0000 0.62509  0.53901  0.04587  Biso   1.000  C
  C48      1.0000 0.65449  0.54078  0.00181  Biso   1.000  C
  H36      1.0000 0.64543  0.53217  0.96177  Biso   1.000  H
  C49      1.0000 0.69787  0.55576  0.01907  Biso   1.000  C
  H37      1.0000 0.71743  0.55647  0.98977  Biso   1.000  H
  C50      1.0000 0.71268  0.56918  0.07607  Biso   1.000  C
  C51      1.0000 0.68280  0.56650  0.12137  Biso   1.000  C
  H38      1.0000 0.69183  0.57437  0.16157  Biso   1.000  H
  C52      1.0000 0.63870  0.55149  0.10387  Biso   1.000  C
  H39      1.0000 0.61873  0.55017  0.13297  Biso   1.000  H
  C53      1.0000 0.75972  0.58842  0.09527  Biso   1.000  C
  C54      1.0000 0.77933  0.62596  0.13027  Biso   1.000  C
  H40      1.0000 0.76243  0.63817  0.14257  Biso   1.000  H
  H41      1.0000 0.75383  0.46297  0.99987  Biso   1.000  H
  H42      1.0000 0.72093  0.48727  0.10837  Biso   1.000  H
  O13      1.0000 0.14244  0.36249  0.40332  Biso   1.000  O
  O14      1.0000 0.15539  0.38903  0.30759  Biso   1.000  O
  C55      1.0000 0.14281  0.38731  0.36085  Biso   1.000  C
  C56      1.0000 0.12766  0.41942  0.37920  Biso   1.000  C
  C57      1.0000 0.12589  0.44705  0.33514  Biso   1.000  C
  H43      1.0000 0.13450  0.44660  0.29510  Biso   1.000  H
  C58      1.0000 0.11091  0.47545  0.35240  Biso   1.000  C
  H44      1.0000 0.11020  0.49430  0.32310  Biso   1.000  H
  C59      1.0000 0.09749  0.47684  0.40940  Biso   1.000  C
  C60      1.0000 0.10017  0.44964  0.45470  Biso   1.000  C
  H45      1.0000 0.09230  0.45080  0.49490  Biso   1.000  H
  C61      1.0000 0.11518  0.42055  0.43720  Biso   1.000  C
  H46      1.0000 0.11650  0.40190  0.46630  Biso   1.000  H
  C62      1.0000 0.07825  0.50464  0.42860  Biso   1.000  C
  C63      1.0000 0.04071  0.48671  0.46360  Biso   1.000  C
  H47      1.0000 0.02850  0.45760  0.47590  Biso   1.000  H
  H48      1.0000 0.20370  0.62420  0.33320  Biso   1.000  H
  H49      1.0000 0.17940  0.56700  0.44170  Biso   1.000  H
  O15      1.0000 0.80911  0.69582  0.73665  Biso   1.000  O
  O16      1.0000 0.82206  0.72236  0.64092  Biso   1.000  O
  C64      1.0000 0.80948  0.72064  0.69418  Biso   1.000  C
  C65      1.0000 0.79433  0.75275  0.71253  Biso   1.000  C
  C66      1.0000 0.79256  0.78038  0.66847  Biso   1.000  C
  H50      1.0000 0.80117  0.77993  0.62843  Biso   1.000  H
  C67      1.0000 0.77758  0.80878  0.68573  Biso   1.000  C
  H51      1.0000 0.77687  0.82763  0.65643  Biso   1.000  H
  C68      1.0000 0.76416  0.81017  0.74273  Biso   1.000  C
  C69      1.0000 0.76684  0.78297  0.78803  Biso   1.000  C
  H52      1.0000 0.75897  0.78413  0.82823  Biso   1.000  H
  C70      1.0000 0.78185  0.75388  0.77053  Biso   1.000  C
  H53      1.0000 0.78317  0.73523  0.79963  Biso   1.000  H
  C71      1.0000 0.74492  0.83797  0.76193  Biso   1.000  C
  C72      1.0000 0.70738  0.82004  0.79693  Biso   1.000  C
  H54      1.0000 0.69517  0.79093  0.80923  Biso   1.000  H
  H55      1.0000 0.87037  0.95753  0.66653  Biso   1.000  H
  H56      1.0000 0.84607  0.90033  0.77503  Biso   1.000  H
  O17      1.0000 0.47577  0.02916  0.06999  Biso   1.000  O
  O18      1.0000 0.48872  0.05570  0.97426  Biso   1.000  O
  C73      1.0000 0.47614  0.05398  0.02752  Biso   1.000  C
  C74      1.0000 0.46099  0.08609  0.04587  Biso   1.000  C
  C75      1.0000 0.45922  0.11372  0.00181  Biso   1.000  C
  H57      1.0000 0.46783  0.11327  0.96177  Biso   1.000  H
  C76      1.0000 0.44424  0.14212  0.01907  Biso   1.000  C
  H58      1.0000 0.44353  0.16097  0.98977  Biso   1.000  H
  C77      1.0000 0.43082  0.14351  0.07607  Biso   1.000  C
  C78      1.0000 0.43350  0.11631  0.12137  Biso   1.000  C
  H59      1.0000 0.42563  0.11747  0.16157  Biso   1.000  H
  C79      1.0000 0.44851  0.08722  0.10387  Biso   1.000  C
  H60      1.0000 0.44983  0.06857  0.13297  Biso   1.000  H
  C80      1.0000 0.41158  0.17131  0.09527  Biso   1.000  C
  C81      1.0000 0.37404  0.15338  0.13027  Biso   1.000  C
  H61      1.0000 0.36183  0.12427  0.14257  Biso   1.000  H
  H62      1.0000 0.53703  0.29087  0.99987  Biso   1.000  H
  H63      1.0000 0.51273  0.23367  0.10837  Biso   1.000  H
  O19      1.0000 0.77995  0.63751  0.59668  Biso   1.000  O
  O20      1.0000 0.76636  0.61097  0.69241  Biso   1.000  O
  C82      1.0000 0.75550  0.61269  0.63915  Biso   1.000  C
  C83      1.0000 0.70824  0.58058  0.62080  Biso   1.000  C
  C84      1.0000 0.67884  0.55295  0.66486  Biso   1.000  C
  H64      1.0000 0.68790  0.55340  0.70490  Biso   1.000  H
  C85      1.0000 0.63546  0.52455  0.64760  Biso   1.000  C
  H65      1.0000 0.61590  0.50570  0.67690  Biso   1.000  H
  C86      1.0000 0.62065  0.52316  0.59060  Biso   1.000  C
  C87      1.0000 0.65053  0.55036  0.54530  Biso   1.000  C
  H66      1.0000 0.64150  0.54920  0.50510  Biso   1.000  H
  C88      1.0000 0.69463  0.57945  0.56280  Biso   1.000  C
  H67      1.0000 0.71460  0.59810  0.53370  Biso   1.000  H
  C89      1.0000 0.57361  0.49536  0.57140  Biso   1.000  C
  C90      1.0000 0.55400  0.51329  0.53640  Biso   1.000  C
  H68      1.0000 0.57090  0.54240  0.52410  Biso   1.000  H
  H69      1.0000 0.57950  0.37580  0.66680  Biso   1.000  H
  H70      1.0000 0.61240  0.43300  0.55830  Biso   1.000  H
  O21      1.0000 0.44662  0.97084  0.93001  Biso   1.000  O
  O22      1.0000 0.43303  0.94430  0.02574  Biso   1.000  O
  C91      1.0000 0.42217  0.94602  0.97248  Biso   1.000  C
  C92      1.0000 0.37491  0.91391  0.95413  Biso   1.000  C
  C93      1.0000 0.34551  0.88628  0.99819  Biso   1.000  C
  H71      1.0000 0.35457  0.88673  0.03823  Biso   1.000  H
  C94      1.0000 0.30213  0.85788  0.98093  Biso   1.000  C
  H72      1.0000 0.28257  0.83903  0.01023  Biso   1.000  H
  C95      1.0000 0.28732  0.85649  0.92393  Biso   1.000  C
  C96      1.0000 0.31720  0.88369  0.87863  Biso   1.000  C
  H73      1.0000 0.30817  0.88253  0.83843  Biso   1.000  H
  C97      1.0000 0.36130  0.91278  0.89613  Biso   1.000  C
  H74      1.0000 0.38127  0.93143  0.86703  Biso   1.000  H
  C98      1.0000 0.24028  0.82869  0.90473  Biso   1.000  C
  C99      1.0000 0.22067  0.84662  0.86973  Biso   1.000  C
  H75      1.0000 0.23757  0.87573  0.85743  Biso   1.000  H
  H76      1.0000 0.24617  0.70913  0.00013  Biso   1.000  H
  H77      1.0000 0.27907  0.76633  0.89163  Biso   1.000  H
  O23      1.0000 0.11328  0.30418  0.26335  Biso   1.000  O
  O24      1.0000 0.09969  0.27764  0.35908  Biso   1.000  O
  C100     1.0000 0.08883  0.27936  0.30582  Biso   1.000  C
  C101     1.0000 0.04157  0.24725  0.28747  Biso   1.000  C
  C102     1.0000 0.01217  0.21962  0.33153  Biso   1.000  C
  H78      1.0000 0.02123  0.22007  0.37157  Biso   1.000  H
  C103     1.0000 0.96879  0.19122  0.31427  Biso   1.000  C
  H79      1.0000 0.94923  0.17237  0.34357  Biso   1.000  H
  C104     1.0000 0.95398  0.18983  0.25727  Biso   1.000  C
  C105     1.0000 0.98386  0.21703  0.21197  Biso   1.000  C
  H80      1.0000 0.97483  0.21587  0.17177  Biso   1.000  H
  C106     1.0000 0.02796  0.24612  0.22947  Biso   1.000  C
  H81      1.0000 0.04793  0.26477  0.20037  Biso   1.000  H
  C107     1.0000 0.90694  0.16203  0.23807  Biso   1.000  C
  C108     1.0000 0.88733  0.17996  0.20307  Biso   1.000  C
  H82      1.0000 0.90423  0.20907  0.19077  Biso   1.000  H
  H83      1.0000 0.91283  0.04247  0.33347  Biso   1.000  H
  H84      1.0000 0.94573  0.09967  0.22497  Biso   1.000  H
  O25      1.0000 0.85756  0.22005  0.59668  Biso   1.000  O
  O26      1.0000 0.84461  0.23364  0.69241  Biso   1.000  O
  C109     1.0000 0.85719  0.24450  0.63915  Biso   1.000  C
  C110     1.0000 0.87234  0.29176  0.62080  Biso   1.000  C
  C111     1.0000 0.87411  0.32116  0.66486  Biso   1.000  C
  H85      1.0000 0.86550  0.31210  0.70490  Biso   1.000  H
  C112     1.0000 0.88909  0.36454  0.64760  Biso   1.000  C
  H86      1.0000 0.88980  0.38410  0.67690  Biso   1.000  H
  C113     1.0000 0.90251  0.37935  0.59060  Biso   1.000  C
  C114     1.0000 0.89983  0.34947  0.54530  Biso   1.000  C
  H87      1.0000 0.90770  0.35850  0.50510  Biso   1.000  H
  C115     1.0000 0.88482  0.30537  0.56280  Biso   1.000  C
  H88      1.0000 0.88350  0.28540  0.53370  Biso   1.000  H
  C116     1.0000 0.92175  0.42639  0.57140  Biso   1.000  C
  C117     1.0000 0.95929  0.44600  0.53640  Biso   1.000  C
  H89      1.0000 0.97150  0.42910  0.52410  Biso   1.000  H
  H90      1.0000 0.79630  0.42050  0.66680  Biso   1.000  H
  H91      1.0000 0.82060  0.38760  0.55830  Biso   1.000  H
  O27      1.0000 0.52423  0.55338  0.93001  Biso   1.000  O
  O28      1.0000 0.51128  0.56697  0.02574  Biso   1.000  O
  C118     1.0000 0.52386  0.57783  0.97248  Biso   1.000  C
  C119     1.0000 0.53901  0.62509  0.95413  Biso   1.000  C
  C120     1.0000 0.54078  0.65449  0.99819  Biso   1.000  C
  H92      1.0000 0.53217  0.64543  0.03823  Biso   1.000  H
  C121     1.0000 0.55576  0.69787  0.98093  Biso   1.000  C
  H93      1.0000 0.55647  0.71743  0.01023  Biso   1.000  H
  C122     1.0000 0.56918  0.71268  0.92393  Biso   1.000  C
  C123     1.0000 0.56650  0.68280  0.87863  Biso   1.000  C
  H94      1.0000 0.57437  0.69183  0.83843  Biso   1.000  H
  C124     1.0000 0.55149  0.63870  0.89613  Biso   1.000  C
  H95      1.0000 0.55017  0.61873  0.86703  Biso   1.000  H
  C125     1.0000 0.58842  0.75972  0.90473  Biso   1.000  C
  C126     1.0000 0.62596  0.77933  0.86973  Biso   1.000  C
  H96      1.0000 0.63817  0.76243  0.85743  Biso   1.000  H
  H97      1.0000 0.46297  0.75383  0.00013  Biso   1.000  H
  H98      1.0000 0.48727  0.72093  0.89163  Biso   1.000  H
  O29      1.0000 0.19089  0.88672  0.26335  Biso   1.000  O
  O30      1.0000 0.17794  0.90031  0.35908  Biso   1.000  O
  C127     1.0000 0.19052  0.91117  0.30582  Biso   1.000  C
  C128     1.0000 0.20567  0.95843  0.28747  Biso   1.000  C
  C129     1.0000 0.20744  0.98783  0.33153  Biso   1.000  C
  H99      1.0000 0.19883  0.97877  0.37157  Biso   1.000  H
  C130     1.0000 0.22242  0.03121  0.31427  Biso   1.000  C
  H100     1.0000 0.22313  0.05077  0.34357  Biso   1.000  H
  C131     1.0000 0.23584  0.04602  0.25727  Biso   1.000  C
  C132     1.0000 0.23316  0.01614  0.21197  Biso   1.000  C
  H101     1.0000 0.24103  0.02517  0.17177  Biso   1.000  H
  C133     1.0000 0.21815  0.97204  0.22947  Biso   1.000  C
  H102     1.0000 0.21683  0.95207  0.20037  Biso   1.000  H
  C134     1.0000 0.25508  0.09306  0.23807  Biso   1.000  C
  C135     1.0000 0.29262  0.11267  0.20307  Biso   1.000  C
  H103     1.0000 0.30483  0.09577  0.19077  Biso   1.000  H
  H104     1.0000 0.12963  0.08717  0.33347  Biso   1.000  H
  H105     1.0000 0.15393  0.05427  0.22497  Biso   1.000  H
  O31      1.0000 0.36249  0.14244  0.59668  Biso   1.000  O
  O32      1.0000 0.38903  0.15539  0.69241  Biso   1.000  O
  C136     1.0000 0.38731  0.14281  0.63915  Biso   1.000  C
  C137     1.0000 0.41942  0.12766  0.62080  Biso   1.000  C
  C138     1.0000 0.44705  0.12589  0.66486  Biso   1.000  C
  H106     1.0000 0.44660  0.13450  0.70490  Biso   1.000  H
  C139     1.0000 0.47545  0.11091  0.64760  Biso   1.000  C
  H107     1.0000 0.49430  0.11020  0.67690  Biso   1.000  H
  C140     1.0000 0.47684  0.09749  0.59060  Biso   1.000  C
  C141     1.0000 0.44964  0.10017  0.54530  Biso   1.000  C
  H108     1.0000 0.45080  0.09230  0.50510  Biso   1.000  H
  C142     1.0000 0.42055  0.11518  0.56280  Biso   1.000  C
  H109     1.0000 0.40190  0.11650  0.53370  Biso   1.000  H
  C143     1.0000 0.50464  0.07825  0.57140  Biso   1.000  C
  C144     1.0000 0.48671  0.04071  0.53640  Biso   1.000  C
  H110     1.0000 0.45760  0.02850  0.52410  Biso   1.000  H
  H111     1.0000 0.62420  0.20370  0.66680  Biso   1.000  H
  H112     1.0000 0.56700  0.17940  0.55830  Biso   1.000  H
  O33      1.0000 0.02916  0.47577  0.93001  Biso   1.000  O
  O34      1.0000 0.05570  0.48872  0.02574  Biso   1.000  O
  C145     1.0000 0.05398  0.47614  0.97248  Biso   1.000  C
  C146     1.0000 0.08609  0.46099  0.95413  Biso   1.000  C
  C147     1.0000 0.11372  0.45922  0.99819  Biso   1.000  C
  H113     1.0000 0.11327  0.46783  0.03823  Biso   1.000  H
  C148     1.0000 0.14212  0.44424  0.98093  Biso   1.000  C
  H114     1.0000 0.16097  0.44353  0.01023  Biso   1.000  H
  C149     1.0000 0.14351  0.43082  0.92393  Biso   1.000  C
  C150     1.0000 0.11631  0.43350  0.87863  Biso   1.000  C
  H115     1.0000 0.11747  0.42563  0.83843  Biso   1.000  H
  C151     1.0000 0.08722  0.44851  0.89613  Biso   1.000  C
  H116     1.0000 0.06857  0.44983  0.86703  Biso   1.000  H
  C152     1.0000 0.17131  0.41158  0.90473  Biso   1.000  C
  C153     1.0000 0.15338  0.37404  0.86973  Biso   1.000  C
  H117     1.0000 0.12427  0.36183  0.85743  Biso   1.000  H
  H118     1.0000 0.29087  0.53703  0.00013  Biso   1.000  H
  H119     1.0000 0.23367  0.51273  0.89163  Biso   1.000  H
  O35      1.0000 0.69582  0.80911  0.26335  Biso   1.000  O
  O36      1.0000 0.72236  0.82206  0.35908  Biso   1.000  O
  C154     1.0000 0.72064  0.80948  0.30582  Biso   1.000  C
  C155     1.0000 0.75275  0.79433  0.28747  Biso   1.000  C
  C156     1.0000 0.78038  0.79256  0.33153  Biso   1.000  C
  H120     1.0000 0.77993  0.80117  0.37157  Biso   1.000  H
  C157     1.0000 0.80878  0.77758  0.31427  Biso   1.000  C
  H121     1.0000 0.82763  0.77687  0.34357  Biso   1.000  H
  C158     1.0000 0.81017  0.76416  0.25727  Biso   1.000  C
  C159     1.0000 0.78297  0.76684  0.21197  Biso   1.000  C
  H122     1.0000 0.78413  0.75897  0.17177  Biso   1.000  H
  C160     1.0000 0.75388  0.78185  0.22947  Biso   1.000  C
  H123     1.0000 0.73523  0.78317  0.20037  Biso   1.000  H
  C161     1.0000 0.83797  0.74492  0.23807  Biso   1.000  C
  C162     1.0000 0.82004  0.70738  0.20307  Biso   1.000  C
  H124     1.0000 0.79093  0.69517  0.19077  Biso   1.000  H
  H125     1.0000 0.95753  0.87037  0.33347  Biso   1.000  H
  H126     1.0000 0.90033  0.84607  0.22497  Biso   1.000  H
  O37      1.0000 0.36249  0.22005  0.59668  Biso   1.000  O
  O38      1.0000 0.38903  0.23364  0.69241  Biso   1.000  O
  C163     1.0000 0.38731  0.24450  0.63915  Biso   1.000  C
  C164     1.0000 0.41942  0.29176  0.62080  Biso   1.000  C
  C165     1.0000 0.44705  0.32116  0.66486  Biso   1.000  C
  H127     1.0000 0.44660  0.31210  0.70490  Biso   1.000  H
  C166     1.0000 0.47545  0.36454  0.64760  Biso   1.000  C
  H128     1.0000 0.49430  0.38410  0.67690  Biso   1.000  H
  C167     1.0000 0.47684  0.37935  0.59060  Biso   1.000  C
  C168     1.0000 0.44964  0.34947  0.54530  Biso   1.000  C
  H129     1.0000 0.45080  0.35850  0.50510  Biso   1.000  H
  C169     1.0000 0.42055  0.30537  0.56280  Biso   1.000  C
  H130     1.0000 0.40190  0.28540  0.53370  Biso   1.000  H
  C170     1.0000 0.50464  0.42639  0.57140  Biso   1.000  C
  C171     1.0000 0.48671  0.44600  0.53640  Biso   1.000  C
  H131     1.0000 0.45760  0.42910  0.52410  Biso   1.000  H
  H132     1.0000 0.62420  0.42050  0.66680  Biso   1.000  H
  H133     1.0000 0.56700  0.38760  0.55830  Biso   1.000  H
  O39      1.0000 0.02916  0.55338  0.93001  Biso   1.000  O
  O40      1.0000 0.05570  0.56697  0.02574  Biso   1.000  O
  C172     1.0000 0.05398  0.57783  0.97248  Biso   1.000  C
  C173     1.0000 0.08609  0.62509  0.95413  Biso   1.000  C
  C174     1.0000 0.11372  0.65449  0.99819  Biso   1.000  C
  H134     1.0000 0.11327  0.64543  0.03823  Biso   1.000  H
  C175     1.0000 0.14212  0.69787  0.98093  Biso   1.000  C
  H135     1.0000 0.16097  0.71743  0.01023  Biso   1.000  H
  C176     1.0000 0.14351  0.71268  0.92393  Biso   1.000  C
  C177     1.0000 0.11631  0.68280  0.87863  Biso   1.000  C
  H136     1.0000 0.11747  0.69183  0.83843  Biso   1.000  H
  C178     1.0000 0.08722  0.63870  0.89613  Biso   1.000  C
  H137     1.0000 0.06857  0.61873  0.86703  Biso   1.000  H
  C179     1.0000 0.17131  0.75972  0.90473  Biso   1.000  C
  C180     1.0000 0.15338  0.77933  0.86973  Biso   1.000  C
  H138     1.0000 0.12427  0.76243  0.85743  Biso   1.000  H
  H139     1.0000 0.29087  0.75383  0.00013  Biso   1.000  H
  H140     1.0000 0.23367  0.72093  0.89163  Biso   1.000  H
  O41      1.0000 0.69582  0.88672  0.26335  Biso   1.000  O
  O42      1.0000 0.72236  0.90031  0.35908  Biso   1.000  O
  C181     1.0000 0.72064  0.91117  0.30582  Biso   1.000  C
  C182     1.0000 0.75275  0.95843  0.28747  Biso   1.000  C
  C183     1.0000 0.78038  0.98783  0.33153  Biso   1.000  C
  H141     1.0000 0.77993  0.97877  0.37157  Biso   1.000  H
  C184     1.0000 0.80878  0.03121  0.31427  Biso   1.000  C
  H142     1.0000 0.82763  0.05077  0.34357  Biso   1.000  H
  C185     1.0000 0.81017  0.04602  0.25727  Biso   1.000  C
  C186     1.0000 0.78297  0.01614  0.21197  Biso   1.000  C
  H143     1.0000 0.78413  0.02517  0.17177  Biso   1.000  H
  C187     1.0000 0.75388  0.97204  0.22947  Biso   1.000  C
  H144     1.0000 0.73523  0.95207  0.20037  Biso   1.000  H
  C188     1.0000 0.83797  0.09306  0.23807  Biso   1.000  C
  C189     1.0000 0.82004  0.11267  0.20307  Biso   1.000  C
  H145     1.0000 0.79093  0.09577  0.19077  Biso   1.000  H
  H146     1.0000 0.95753  0.08717  0.33347  Biso   1.000  H
  H147     1.0000 0.90033  0.05427  0.22497  Biso   1.000  H
  O43      1.0000 0.77995  0.14244  0.59668  Biso   1.000  O
  O44      1.0000 0.76636  0.15539  0.69241  Biso   1.000  O
  C190     1.0000 0.75550  0.14281  0.63915  Biso   1.000  C
  C191     1.0000 0.70824  0.12766  0.62080  Biso   1.000  C
  C192     1.0000 0.67884  0.12589  0.66486  Biso   1.000  C
  H148     1.0000 0.68790  0.13450  0.70490  Biso   1.000  H
  C193     1.0000 0.63546  0.11091  0.64760  Biso   1.000  C
  H149     1.0000 0.61590  0.11020  0.67690  Biso   1.000  H
  C194     1.0000 0.62065  0.09749  0.59060  Biso   1.000  C
  C195     1.0000 0.65053  0.10017  0.54530  Biso   1.000  C
  H150     1.0000 0.64150  0.09230  0.50510  Biso   1.000  H
  C196     1.0000 0.69463  0.11518  0.56280  Biso   1.000  C
  H151     1.0000 0.71460  0.11650  0.53370  Biso   1.000  H
  C197     1.0000 0.57361  0.07825  0.57140  Biso   1.000  C
  C198     1.0000 0.55400  0.04071  0.53640  Biso   1.000  C
  H152     1.0000 0.57090  0.02850  0.52410  Biso   1.000  H
  H153     1.0000 0.57950  0.20370  0.66680  Biso   1.000  H
  H154     1.0000 0.61240  0.17940  0.55830  Biso   1.000  H
  O45      1.0000 0.44662  0.47577  0.93001  Biso   1.000  O
  O46      1.0000 0.43303  0.48872  0.02574  Biso   1.000  O
  C199     1.0000 0.42217  0.47614  0.97248  Biso   1.000  C
  C200     1.0000 0.37491  0.46099  0.95413  Biso   1.000  C
  C201     1.0000 0.34551  0.45922  0.99819  Biso   1.000  C
  H155     1.0000 0.35457  0.46783  0.03823  Biso   1.000  H
  C202     1.0000 0.30213  0.44424  0.98093  Biso   1.000  C
  H156     1.0000 0.28257  0.44353  0.01023  Biso   1.000  H
  C203     1.0000 0.28732  0.43082  0.92393  Biso   1.000  C
  C204     1.0000 0.31720  0.43350  0.87863  Biso   1.000  C
  H157     1.0000 0.30817  0.42563  0.83843  Biso   1.000  H
  C205     1.0000 0.36130  0.44851  0.89613  Biso   1.000  C
  H158     1.0000 0.38127  0.44983  0.86703  Biso   1.000  H
  C206     1.0000 0.24028  0.41158  0.90473  Biso   1.000  C
  C207     1.0000 0.22067  0.37404  0.86973  Biso   1.000  C
  H159     1.0000 0.23757  0.36183  0.85743  Biso   1.000  H
  H160     1.0000 0.24617  0.53703  0.00013  Biso   1.000  H
  H161     1.0000 0.27907  0.51273  0.89163  Biso   1.000  H
  O47      1.0000 0.11328  0.80911  0.26335  Biso   1.000  O
  O48      1.0000 0.09969  0.82206  0.35908  Biso   1.000  O
  C208     1.0000 0.08883  0.80948  0.30582  Biso   1.000  C
  C209     1.0000 0.04157  0.79433  0.28747  Biso   1.000  C
  C210     1.0000 0.01217  0.79256  0.33153  Biso   1.000  C
  H162     1.0000 0.02123  0.80117  0.37157  Biso   1.000  H
  C211     1.0000 0.96879  0.77758  0.31427  Biso   1.000  C
  H163     1.0000 0.94923  0.77687  0.34357  Biso   1.000  H
  C212     1.0000 0.95398  0.76416  0.25727  Biso   1.000  C
  C213     1.0000 0.98386  0.76684  0.21197  Biso   1.000  C
  H164     1.0000 0.97483  0.75897  0.17177  Biso   1.000  H
  C214     1.0000 0.02796  0.78185  0.22947  Biso   1.000  C
  H165     1.0000 0.04793  0.78317  0.20037  Biso   1.000  H
  C215     1.0000 0.90694  0.74492  0.23807  Biso   1.000  C
  C216     1.0000 0.88733  0.70738  0.20307  Biso   1.000  C
  H166     1.0000 0.90423  0.69517  0.19077  Biso   1.000  H
  H167     1.0000 0.91283  0.87037  0.33347  Biso   1.000  H
  H168     1.0000 0.94573  0.84607  0.22497  Biso   1.000  H
  O49      1.0000 0.85756  0.63751  0.59668  Biso   1.000  O
  O50      1.0000 0.84461  0.61097  0.69241  Biso   1.000  O
  C217     1.0000 0.85719  0.61269  0.63915  Biso   1.000  C
  C218     1.0000 0.87234  0.58058  0.62080  Biso   1.000  C
  C219     1.0000 0.87411  0.55295  0.66486  Biso   1.000  C
  H169     1.0000 0.86550  0.55340  0.70490  Biso   1.000  H
  C220     1.0000 0.88909  0.52455  0.64760  Biso   1.000  C
  H170     1.0000 0.88980  0.50570  0.67690  Biso   1.000  H
  C221     1.0000 0.90251  0.52316  0.59060  Biso   1.000  C
  C222     1.0000 0.89983  0.55036  0.54530  Biso   1.000  C
  H171     1.0000 0.90770  0.54920  0.50510  Biso   1.000  H
  C223     1.0000 0.88482  0.57945  0.56280  Biso   1.000  C
  H172     1.0000 0.88350  0.59810  0.53370  Biso   1.000  H
  C224     1.0000 0.92175  0.49536  0.57140  Biso   1.000  C
  C225     1.0000 0.95929  0.51329  0.53640  Biso   1.000  C
  H173     1.0000 0.97150  0.54240  0.52410  Biso   1.000  H
  H174     1.0000 0.79630  0.37580  0.66680  Biso   1.000  H
  H175     1.0000 0.82060  0.43300  0.55830  Biso   1.000  H
  O51      1.0000 0.52423  0.97084  0.93001  Biso   1.000  O
  O52      1.0000 0.51128  0.94430  0.02574  Biso   1.000  O
  C226     1.0000 0.52386  0.94602  0.97248  Biso   1.000  C
  C227     1.0000 0.53901  0.91391  0.95413  Biso   1.000  C
  C228     1.0000 0.54078  0.88628  0.99819  Biso   1.000  C
  H176     1.0000 0.53217  0.88673  0.03823  Biso   1.000  H
  C229     1.0000 0.55576  0.85788  0.98093  Biso   1.000  C
  H177     1.0000 0.55647  0.83903  0.01023  Biso   1.000  H
  C230     1.0000 0.56918  0.85649  0.92393  Biso   1.000  C
  C231     1.0000 0.56650  0.88369  0.87863  Biso   1.000  C
  H178     1.0000 0.57437  0.88253  0.83843  Biso   1.000  H
  C232     1.0000 0.55149  0.91278  0.89613  Biso   1.000  C
  H179     1.0000 0.55017  0.93143  0.86703  Biso   1.000  H
  C233     1.0000 0.58842  0.82869  0.90473  Biso   1.000  C
  C234     1.0000 0.62596  0.84662  0.86973  Biso   1.000  C
  H180     1.0000 0.63817  0.87573  0.85743  Biso   1.000  H
  H181     1.0000 0.46297  0.70913  0.00013  Biso   1.000  H
  H182     1.0000 0.48727  0.76633  0.89163  Biso   1.000  H
  O53      1.0000 0.19089  0.30418  0.26335  Biso   1.000  O
  O54      1.0000 0.17794  0.27764  0.35908  Biso   1.000  O
  C235     1.0000 0.19052  0.27936  0.30582  Biso   1.000  C
  C236     1.0000 0.20567  0.24725  0.28747  Biso   1.000  C
  C237     1.0000 0.20744  0.21962  0.33153  Biso   1.000  C
  H183     1.0000 0.19883  0.22007  0.37157  Biso   1.000  H
  C238     1.0000 0.22242  0.19122  0.31427  Biso   1.000  C
  H184     1.0000 0.22313  0.17237  0.34357  Biso   1.000  H
  C239     1.0000 0.23584  0.18983  0.25727  Biso   1.000  C
  C240     1.0000 0.23316  0.21703  0.21197  Biso   1.000  C
  H185     1.0000 0.24103  0.21587  0.17177  Biso   1.000  H
  C241     1.0000 0.21815  0.24612  0.22947  Biso   1.000  C
  H186     1.0000 0.21683  0.26477  0.20037  Biso   1.000  H
  C242     1.0000 0.25508  0.16203  0.23807  Biso   1.000  C
  C243     1.0000 0.29262  0.17996  0.20307  Biso   1.000  C
  H187     1.0000 0.30483  0.20907  0.19077  Biso   1.000  H
  H188     1.0000 0.12963  0.04247  0.33347  Biso   1.000  H
  H189     1.0000 0.15393  0.09967  0.22497  Biso   1.000  H
  O55      1.0000 0.22005  0.36249  0.40332  Biso   1.000  O
  O56      1.0000 0.23364  0.38903  0.30759  Biso   1.000  O
  C244     1.0000 0.24450  0.38731  0.36085  Biso   1.000  C
  C245     1.0000 0.29176  0.41942  0.37920  Biso   1.000  C
  C246     1.0000 0.32116  0.44705  0.33514  Biso   1.000  C
  H190     1.0000 0.31210  0.44660  0.29510  Biso   1.000  H
  C247     1.0000 0.36454  0.47545  0.35240  Biso   1.000  C
  H191     1.0000 0.38410  0.49430  0.32310  Biso   1.000  H
  C248     1.0000 0.37935  0.47684  0.40940  Biso   1.000  C
  C249     1.0000 0.34947  0.44964  0.45470  Biso   1.000  C
  H192     1.0000 0.35850  0.45080  0.49490  Biso   1.000  H
  C250     1.0000 0.30537  0.42055  0.43720  Biso   1.000  C
  H193     1.0000 0.28540  0.40190  0.46630  Biso   1.000  H
  C251     1.0000 0.42639  0.50464  0.42860  Biso   1.000  C
  C252     1.0000 0.44600  0.48671  0.46360  Biso   1.000  C
  H194     1.0000 0.42910  0.45760  0.47590  Biso   1.000  H
  H195     1.0000 0.42050  0.62420  0.33320  Biso   1.000  H
  H196     1.0000 0.38760  0.56700  0.44170  Biso   1.000  H
  O57      1.0000 0.88672  0.69582  0.73665  Biso   1.000  O
  O58      1.0000 0.90031  0.72236  0.64092  Biso   1.000  O
  C253     1.0000 0.91117  0.72064  0.69418  Biso   1.000  C
  C254     1.0000 0.95843  0.75275  0.71253  Biso   1.000  C
  C255     1.0000 0.98783  0.78038  0.66847  Biso   1.000  C
  H197     1.0000 0.97877  0.77993  0.62843  Biso   1.000  H
  C256     1.0000 0.03121  0.80878  0.68573  Biso   1.000  C
  H198     1.0000 0.05077  0.82763  0.65643  Biso   1.000  H
  C257     1.0000 0.04602  0.81017  0.74273  Biso   1.000  C
  C258     1.0000 0.01614  0.78297  0.78803  Biso   1.000  C
  H199     1.0000 0.02517  0.78413  0.82823  Biso   1.000  H
  C259     1.0000 0.97204  0.75388  0.77053  Biso   1.000  C
  H200     1.0000 0.95207  0.73523  0.79963  Biso   1.000  H
  C260     1.0000 0.09306  0.83797  0.76193  Biso   1.000  C
  C261     1.0000 0.11267  0.82004  0.79693  Biso   1.000  C
  H201     1.0000 0.09577  0.79093  0.80923  Biso   1.000  H
  H202     1.0000 0.08717  0.95753  0.66653  Biso   1.000  H
  H203     1.0000 0.05427  0.90033  0.77503  Biso   1.000  H
  O59      1.0000 0.55338  0.02916  0.06999  Biso   1.000  O
  O60      1.0000 0.56697  0.05570  0.97426  Biso   1.000  O
  C262     1.0000 0.57783  0.05398  0.02752  Biso   1.000  C
  C263     1.0000 0.62509  0.08609  0.04587  Biso   1.000  C
  C264     1.0000 0.65449  0.11372  0.00181  Biso   1.000  C
  H204     1.0000 0.64543  0.11327  0.96177  Biso   1.000  H
  C265     1.0000 0.69787  0.14212  0.01907  Biso   1.000  C
  H205     1.0000 0.71743  0.16097  0.98977  Biso   1.000  H
  C266     1.0000 0.71268  0.14351  0.07607  Biso   1.000  C
  C267     1.0000 0.68280  0.11631  0.12137  Biso   1.000  C
  H206     1.0000 0.69183  0.11747  0.16157  Biso   1.000  H
  C268     1.0000 0.63870  0.08722  0.10387  Biso   1.000  C
  H207     1.0000 0.61873  0.06857  0.13297  Biso   1.000  H
  C269     1.0000 0.75972  0.17131  0.09527  Biso   1.000  C
  C270     1.0000 0.77933  0.15338  0.13027  Biso   1.000  C
  H208     1.0000 0.76243  0.12427  0.14257  Biso   1.000  H
  H209     1.0000 0.75383  0.29087  0.99987  Biso   1.000  H
  H210     1.0000 0.72093  0.23367  0.10837  Biso   1.000  H
  O61      1.0000 0.14244  0.77995  0.40332  Biso   1.000  O
  O62      1.0000 0.15539  0.76636  0.30759  Biso   1.000  O
  C271     1.0000 0.14281  0.75550  0.36085  Biso   1.000  C
  C272     1.0000 0.12766  0.70824  0.37920  Biso   1.000  C
  C273     1.0000 0.12589  0.67884  0.33514  Biso   1.000  C
  H211     1.0000 0.13450  0.68790  0.29510  Biso   1.000  H
  C274     1.0000 0.11091  0.63546  0.35240  Biso   1.000  C
  H212     1.0000 0.11020  0.61590  0.32310  Biso   1.000  H
  C275     1.0000 0.09749  0.62065  0.40940  Biso   1.000  C
  C276     1.0000 0.10017  0.65053  0.45470  Biso   1.000  C
  H213     1.0000 0.09230  0.64150  0.49490  Biso   1.000  H
  C277     1.0000 0.11518  0.69463  0.43720  Biso   1.000  C
  H214     1.0000 0.11650  0.71460  0.46630  Biso   1.000  H
  C278     1.0000 0.07825  0.57361  0.42860  Biso   1.000  C
  C279     1.0000 0.04071  0.55400  0.46360  Biso   1.000  C
  H215     1.0000 0.02850  0.57090  0.47590  Biso   1.000  H
  H216     1.0000 0.20370  0.57950  0.33320  Biso   1.000  H
  H217     1.0000 0.17940  0.61240  0.44170  Biso   1.000  H
  O63      1.0000 0.80911  0.11328  0.73665  Biso   1.000  O
  O64      1.0000 0.82206  0.09969  0.64092  Biso   1.000  O
  C280     1.0000 0.80948  0.08883  0.69418  Biso   1.000  C
  C281     1.0000 0.79433  0.04157  0.71253  Biso   1.000  C
  C282     1.0000 0.79256  0.01217  0.66847  Biso   1.000  C
  H218     1.0000 0.80117  0.02123  0.62843  Biso   1.000  H
  C283     1.0000 0.77758  0.96879  0.68573  Biso   1.000  C
  H219     1.0000 0.77687  0.94923  0.65643  Biso   1.000  H
  C284     1.0000 0.76416  0.95398  0.74273  Biso   1.000  C
  C285     1.0000 0.76684  0.98386  0.78803  Biso   1.000  C
  H220     1.0000 0.75897  0.97483  0.82823  Biso   1.000  H
  C286     1.0000 0.78185  0.02796  0.77053  Biso   1.000  C
  H221     1.0000 0.78317  0.04793  0.79963  Biso   1.000  H
  C287     1.0000 0.74492  0.90694  0.76193  Biso   1.000  C
  C288     1.0000 0.70738  0.88733  0.79693  Biso   1.000  C
  H222     1.0000 0.69517  0.90423  0.80923  Biso   1.000  H
  H223     1.0000 0.87037  0.91283  0.66653  Biso   1.000  H
  H224     1.0000 0.84607  0.94573  0.77503  Biso   1.000  H
  O65      1.0000 0.47577  0.44662  0.06999  Biso   1.000  O
  O66      1.0000 0.48872  0.43303  0.97426  Biso   1.000  O
  C289     1.0000 0.47614  0.42217  0.02752  Biso   1.000  C
  C290     1.0000 0.46099  0.37491  0.04587  Biso   1.000  C
  C291     1.0000 0.45922  0.34551  0.00181  Biso   1.000  C
  H225     1.0000 0.46783  0.35457  0.96177  Biso   1.000  H
  C292     1.0000 0.44424  0.30213  0.01907  Biso   1.000  C
  H226     1.0000 0.44353  0.28257  0.98977  Biso   1.000  H
  C293     1.0000 0.43082  0.28732  0.07607  Biso   1.000  C
  C294     1.0000 0.43350  0.31720  0.12137  Biso   1.000  C
  H227     1.0000 0.42563  0.30817  0.16157  Biso   1.000  H
  C295     1.0000 0.44851  0.36130  0.10387  Biso   1.000  C
  H228     1.0000 0.44983  0.38127  0.13297  Biso   1.000  H
  C296     1.0000 0.41158  0.24028  0.09527  Biso   1.000  C
  C297     1.0000 0.37404  0.22067  0.13027  Biso   1.000  C
  H229     1.0000 0.36183  0.23757  0.14257  Biso   1.000  H
  H230     1.0000 0.53703  0.24617  0.99987  Biso   1.000  H
  H231     1.0000 0.51273  0.27907  0.10837  Biso   1.000  H
  O67      1.0000 0.63751  0.85756  0.40332  Biso   1.000  O
  O68      1.0000 0.61097  0.84461  0.30759  Biso   1.000  O
  C298     1.0000 0.61269  0.85719  0.36085  Biso   1.000  C
  C299     1.0000 0.58058  0.87234  0.37920  Biso   1.000  C
  C300     1.0000 0.55295  0.87411  0.33514  Biso   1.000  C
  H232     1.0000 0.55340  0.86550  0.29510  Biso   1.000  H
  C301     1.0000 0.52455  0.88909  0.35240  Biso   1.000  C
  H233     1.0000 0.50570  0.88980  0.32310  Biso   1.000  H
  C302     1.0000 0.52316  0.90251  0.40940  Biso   1.000  C
  C303     1.0000 0.55036  0.89983  0.45470  Biso   1.000  C
  H234     1.0000 0.54920  0.90770  0.49490  Biso   1.000  H
  C304     1.0000 0.57945  0.88482  0.43720  Biso   1.000  C
  H235     1.0000 0.59810  0.88350  0.46630  Biso   1.000  H
  C305     1.0000 0.49536  0.92175  0.42860  Biso   1.000  C
  C306     1.0000 0.51329  0.95929  0.46360  Biso   1.000  C
  H236     1.0000 0.54240  0.97150  0.47590  Biso   1.000  H
  H237     1.0000 0.37580  0.79630  0.33320  Biso   1.000  H
  H238     1.0000 0.43300  0.82060  0.44170  Biso   1.000  H
  O69      1.0000 0.30418  0.19089  0.73665  Biso   1.000  O
  O70      1.0000 0.27764  0.17794  0.64092  Biso   1.000  O
  C307     1.0000 0.27936  0.19052  0.69418  Biso   1.000  C
  C308     1.0000 0.24725  0.20567  0.71253  Biso   1.000  C
  C309     1.0000 0.21962  0.20744  0.66847  Biso   1.000  C
  H239     1.0000 0.22007  0.19883  0.62843  Biso   1.000  H
  C310     1.0000 0.19122  0.22242  0.68573  Biso   1.000  C
  H240     1.0000 0.17237  0.22313  0.65643  Biso   1.000  H
  C311     1.0000 0.18983  0.23584  0.74273  Biso   1.000  C
  C312     1.0000 0.21703  0.23316  0.78803  Biso   1.000  C
  H241     1.0000 0.21587  0.24103  0.82823  Biso   1.000  H
  C313     1.0000 0.24612  0.21815  0.77053  Biso   1.000  C
  H242     1.0000 0.26477  0.21683  0.79963  Biso   1.000  H
  C314     1.0000 0.16203  0.25508  0.76193  Biso   1.000  C
  C315     1.0000 0.17996  0.29262  0.79693  Biso   1.000  C
  H243     1.0000 0.20907  0.30483  0.80923  Biso   1.000  H
  H244     1.0000 0.04247  0.12963  0.66653  Biso   1.000  H
  H245     1.0000 0.09967  0.15393  0.77503  Biso   1.000  H
  O71      1.0000 0.97084  0.52423  0.06999  Biso   1.000  O
  O72      1.0000 0.94430  0.51128  0.97426  Biso   1.000  O
  C316     1.0000 0.94602  0.52386  0.02752  Biso   1.000  C
  C317     1.0000 0.91391  0.53901  0.04587  Biso   1.000  C
  C318     1.0000 0.88628  0.54078  0.00181  Biso   1.000  C
  H246     1.0000 0.88673  0.53217  0.96177  Biso   1.000  H
  C319     1.0000 0.85788  0.55576  0.01907  Biso   1.000  C
  H247     1.0000 0.83903  0.55647  0.98977  Biso   1.000  H
  C320     1.0000 0.85649  0.56918  0.07607  Biso   1.000  C
  C321     1.0000 0.88369  0.56650  0.12137  Biso   1.000  C
  H248     1.0000 0.88253  0.57437  0.16157  Biso   1.000  H
  C322     1.0000 0.91278  0.55149  0.10387  Biso   1.000  C
  H249     1.0000 0.93143  0.55017  0.13297  Biso   1.000  H
  C323     1.0000 0.82869  0.58842  0.09527  Biso   1.000  C
  C324     1.0000 0.84662  0.62596  0.13027  Biso   1.000  C
  H250     1.0000 0.87573  0.63817  0.14257  Biso   1.000  H
  H251     1.0000 0.70913  0.46297  0.99987  Biso   1.000  H
  H252     1.0000 0.76633  0.48727  0.10837  Biso   1.000  H
  Cu1      1.0000 0.68223  0.84111  0.38963  Biso   1.000  Cu
  Cu2      1.0000 0.34890  0.17445  0.72296  Biso   1.000  Cu
  Cu3      1.0000 0.01556  0.50778  0.05630  Biso   1.000  Cu
  Cu4      1.0000 0.15889  0.84111  0.38963  Biso   1.000  Cu
  Cu5      1.0000 0.82555  0.17445  0.72296  Biso   1.000  Cu
  Cu6      1.0000 0.49222  0.50778  0.05630  Biso   1.000  Cu
  Cu7      1.0000 0.15889  0.31777  0.38963  Biso   1.000  Cu
  Cu8      1.0000 0.82555  0.65110  0.72296  Biso   1.000  Cu
  Cu9      1.0000 0.49222  0.98444  0.05630  Biso   1.000  Cu
  Cu10     1.0000 0.84111  0.68223  0.61037  Biso   1.000  Cu
  Cu11     1.0000 0.50778  0.01556  0.94370  Biso   1.000  Cu
  Cu12     1.0000 0.17445  0.34890  0.27704  Biso   1.000  Cu
  Cu13     1.0000 0.84111  0.15889  0.61037  Biso   1.000  Cu
  Cu14     1.0000 0.50778  0.49222  0.94370  Biso   1.000  Cu
  Cu15     1.0000 0.17445  0.82555  0.27704  Biso   1.000  Cu
  Cu16     1.0000 0.31777  0.15889  0.61037  Biso   1.000  Cu
  Cu17     1.0000 0.98444  0.49222  0.94370  Biso   1.000  Cu
  Cu18     1.0000 0.65110  0.82555  0.27704  Biso   1.000  Cu
  O73      1.0000 0.43257  0.56743  0.37530  Biso   1.000  O
  C325     1.0000 0.48992  0.51008  0.48160  Biso   1.000  C
  C326     1.0000 0.45135  0.54865  0.41080  Biso   1.000  C
  C327     1.0000 0.39542  0.60458  0.35730  Biso   1.000  C
  H253     1.0000 0.38040  0.61960  0.37080  Biso   1.000  H
  C328     1.0000 0.41167  0.58833  0.41680  Biso   1.000  C
  O74      1.0000 0.09924  0.90076  0.70863  Biso   1.000  O
  C329     1.0000 0.15659  0.84341  0.81493  Biso   1.000  C
  C330     1.0000 0.11802  0.88198  0.74413  Biso   1.000  C
  C331     1.0000 0.06209  0.93791  0.69063  Biso   1.000  C
  H254     1.0000 0.04707  0.95293  0.70413  Biso   1.000  H
  C332     1.0000 0.07834  0.92166  0.75013  Biso   1.000  C
  O75      1.0000 0.76590  0.23410  0.04197  Biso   1.000  O
  C333     1.0000 0.82325  0.17675  0.14827  Biso   1.000  C
  C334     1.0000 0.78468  0.21532  0.07747  Biso   1.000  C
  C335     1.0000 0.72875  0.27125  0.02397  Biso   1.000  C
  H255     1.0000 0.71373  0.28627  0.03747  Biso   1.000  H
  C336     1.0000 0.74500  0.25500  0.08347  Biso   1.000  C
  O76      1.0000 0.43257  0.86514  0.37530  Biso   1.000  O
  C337     1.0000 0.48992  0.97984  0.48160  Biso   1.000  C
  C338     1.0000 0.45135  0.90270  0.41080  Biso   1.000  C
  C339     1.0000 0.39542  0.79084  0.35730  Biso   1.000  C
  H256     1.0000 0.38040  0.76080  0.37080  Biso   1.000  H
  C340     1.0000 0.41167  0.82334  0.41680  Biso   1.000  C
  O77      1.0000 0.09924  0.19847  0.70863  Biso   1.000  O
  C341     1.0000 0.15659  0.31317  0.81493  Biso   1.000  C
  C342     1.0000 0.11802  0.23603  0.74413  Biso   1.000  C
  C343     1.0000 0.06209  0.12417  0.69063  Biso   1.000  C
  H257     1.0000 0.04707  0.09413  0.70413  Biso   1.000  H
  C344     1.0000 0.07834  0.15667  0.75013  Biso   1.000  C
  O78      1.0000 0.76590  0.53181  0.04197  Biso   1.000  O
  C345     1.0000 0.82325  0.64651  0.14827  Biso   1.000  C
  C346     1.0000 0.78468  0.56937  0.07747  Biso   1.000  C
  C347     1.0000 0.72875  0.45751  0.02397  Biso   1.000  C
  H258     1.0000 0.71373  0.42747  0.03747  Biso   1.000  H
  C348     1.0000 0.74500  0.49001  0.08347  Biso   1.000  C
  O79      1.0000 0.13486  0.56743  0.37530  Biso   1.000  O
  C349     1.0000 0.02016  0.51008  0.48160  Biso   1.000  C
  C350     1.0000 0.09730  0.54865  0.41080  Biso   1.000  C
  C351     1.0000 0.20916  0.60458  0.35730  Biso   1.000  C
  H259     1.0000 0.23920  0.61960  0.37080  Biso   1.000  H
  C352     1.0000 0.17666  0.58833  0.41680  Biso   1.000  C
  O80      1.0000 0.80153  0.90076  0.70863  Biso   1.000  O
  C353     1.0000 0.68683  0.84341  0.81493  Biso   1.000  C
  C354     1.0000 0.76397  0.88198  0.74413  Biso   1.000  C
  C355     1.0000 0.87583  0.93791  0.69063  Biso   1.000  C
  H260     1.0000 0.90587  0.95293  0.70413  Biso   1.000  H
  C356     1.0000 0.84333  0.92166  0.75013  Biso   1.000  C
  O81      1.0000 0.46819  0.23410  0.04197  Biso   1.000  O
  C357     1.0000 0.35349  0.17675  0.14827  Biso   1.000  C
  C358     1.0000 0.43063  0.21532  0.07747  Biso   1.000  C
  C359     1.0000 0.54249  0.27125  0.02397  Biso   1.000  C
  H261     1.0000 0.57253  0.28627  0.03747  Biso   1.000  H
  C360     1.0000 0.50999  0.25500  0.08347  Biso   1.000  C
  O82      1.0000 0.56743  0.43257  0.62470  Biso   1.000  O
  C361     1.0000 0.51008  0.48992  0.51840  Biso   1.000  C
  C362     1.0000 0.54865  0.45135  0.58920  Biso   1.000  C
  C363     1.0000 0.60458  0.39542  0.64270  Biso   1.000  C
  H262     1.0000 0.61960  0.38040  0.62920  Biso   1.000  H
  C364     1.0000 0.58833  0.41167  0.58320  Biso   1.000  C
  O83      1.0000 0.23410  0.76590  0.95803  Biso   1.000  O
  C365     1.0000 0.17675  0.82325  0.85173  Biso   1.000  C
  C366     1.0000 0.21532  0.78468  0.92253  Biso   1.000  C
  C367     1.0000 0.27125  0.72875  0.97603  Biso   1.000  C
  H263     1.0000 0.28627  0.71373  0.96253  Biso   1.000  H
  C368     1.0000 0.25500  0.74500  0.91653  Biso   1.000  C
  O84      1.0000 0.90076  0.09924  0.29137  Biso   1.000  O
  C369     1.0000 0.84341  0.15659  0.18507  Biso   1.000  C
  C370     1.0000 0.88198  0.11802  0.25587  Biso   1.000  C
  C371     1.0000 0.93791  0.06209  0.30937  Biso   1.000  C
  H264     1.0000 0.95293  0.04707  0.29587  Biso   1.000  H
  C372     1.0000 0.92166  0.07834  0.24987  Biso   1.000  C
  O85      1.0000 0.86514  0.43257  0.62470  Biso   1.000  O
  C373     1.0000 0.97984  0.48992  0.51840  Biso   1.000  C
  C374     1.0000 0.90270  0.45135  0.58920  Biso   1.000  C
  C375     1.0000 0.79084  0.39542  0.64270  Biso   1.000  C
  H265     1.0000 0.76080  0.38040  0.62920  Biso   1.000  H
  C376     1.0000 0.82334  0.41167  0.58320  Biso   1.000  C
  O86      1.0000 0.53181  0.76590  0.95803  Biso   1.000  O
  C377     1.0000 0.64651  0.82325  0.85173  Biso   1.000  C
  C378     1.0000 0.56937  0.78468  0.92253  Biso   1.000  C
  C379     1.0000 0.45751  0.72875  0.97603  Biso   1.000  C
  H266     1.0000 0.42747  0.71373  0.96253  Biso   1.000  H
  C380     1.0000 0.49001  0.74500  0.91653  Biso   1.000  C
  O87      1.0000 0.19847  0.09924  0.29137  Biso   1.000  O
  C381     1.0000 0.31317  0.15659  0.18507  Biso   1.000  C
  C382     1.0000 0.23603  0.11802  0.25587  Biso   1.000  C
  C383     1.0000 0.12417  0.06209  0.30937  Biso   1.000  C
  H267     1.0000 0.09413  0.04707  0.29587  Biso   1.000  H
  C384     1.0000 0.15667  0.07834  0.24987  Biso   1.000  C
  O88      1.0000 0.56743  0.13486  0.62470  Biso   1.000  O
  C385     1.0000 0.51008  0.02016  0.51840  Biso   1.000  C
  C386     1.0000 0.54865  0.09730  0.58920  Biso   1.000  C
  C387     1.0000 0.60458  0.20916  0.64270  Biso   1.000  C
  H268     1.0000 0.61960  0.23920  0.62920  Biso   1.000  H
  C388     1.0000 0.58833  0.17666  0.58320  Biso   1.000  C
  O89      1.0000 0.23410  0.46819  0.95803  Biso   1.000  O
  C389     1.0000 0.17675  0.35349  0.85173  Biso   1.000  C
  C390     1.0000 0.21532  0.43063  0.92253  Biso   1.000  C
  C391     1.0000 0.27125  0.54249  0.97603  Biso   1.000  C
  H269     1.0000 0.28627  0.57253  0.96253  Biso   1.000  H
  C392     1.0000 0.25500  0.50999  0.91653  Biso   1.000  C
  O90      1.0000 0.90076  0.80153  0.29137  Biso   1.000  O
  C393     1.0000 0.84341  0.68683  0.18507  Biso   1.000  C
  C394     1.0000 0.88198  0.76397  0.25587  Biso   1.000  C
  C395     1.0000 0.93791  0.87583  0.30937  Biso   1.000  C
  H270     1.0000 0.95293  0.90587  0.29587  Biso   1.000  H
  C396     1.0000 0.92166  0.84333  0.24987  Biso   1.000  C
