data_image0
_cell_length_a       34.9447
_cell_length_b       34.9447
_cell_length_c       23.333
_cell_angle_alpha    90
_cell_angle_beta     90
_cell_angle_gamma    120

_symmetry_space_group_name_H-M    "P 1"
_symmetry_int_tables_number       1

loop_
  _symmetry_equiv_pos_as_xyz
  'x, y, z'

loop_
  _atom_site_label
  _atom_site_occupancy
  _atom_site_fract_x
  _atom_site_fract_y
  _atom_site_fract_z
  _atom_site_thermal_displace_type
  _atom_site_B_iso_or_equiv
  _atom_site_type_symbol
  O1       1.0000 0.55323  0.02771  0.56690  Biso   1.000  O
  O2       1.0000 0.56740  0.05623  0.47791  Biso   1.000  O
  C1       1.0000 0.57817  0.05398  0.52759  Biso   1.000  C
  C2       1.0000 0.62523  0.08534  0.54635  Biso   1.000  C
  C3       1.0000 0.65592  0.11361  0.50489  Biso   1.000  C
  H1       1.0000 0.64730  0.11310  0.46700  Biso   1.000  H
  C4       1.0000 0.69897  0.14201  0.52192  Biso   1.000  C
  H2       1.0000 0.71910  0.16160  0.49530  Biso   1.000  H
  C5       1.0000 0.71287  0.14210  0.57713  Biso   1.000  C
  C6       1.0000 0.68236  0.11405  0.61772  Biso   1.000  C
  H3       1.0000 0.69120  0.11460  0.65540  Biso   1.000  H
  C7       1.0000 0.63861  0.08524  0.60187  Biso   1.000  C
  H4       1.0000 0.61850  0.06600  0.62870  Biso   1.000  H
  C8       1.0000 0.75981  0.17058  0.59678  Biso   1.000  C
  C9       1.0000 0.77954  0.15268  0.63071  Biso   1.000  C
  H5       1.0000 0.76270  0.12350  0.64280  Biso   1.000  H
  H6       1.0000 0.72310  0.23200  0.60440  Biso   1.000  H
  H7       1.0000 0.74910  0.29580  0.52360  Biso   1.000  H
  O3       1.0000 0.21990  0.36104  0.90023  Biso   1.000  O
  O4       1.0000 0.23407  0.38956  0.81124  Biso   1.000  O
  C10      1.0000 0.24484  0.38731  0.86092  Biso   1.000  C
  C11      1.0000 0.29190  0.41867  0.87968  Biso   1.000  C
  C12      1.0000 0.32259  0.44694  0.83822  Biso   1.000  C
  H8       1.0000 0.31397  0.44643  0.80033  Biso   1.000  H
  C13      1.0000 0.36564  0.47534  0.85525  Biso   1.000  C
  H9       1.0000 0.38577  0.49493  0.82863  Biso   1.000  H
  C14      1.0000 0.37954  0.47543  0.91046  Biso   1.000  C
  C15      1.0000 0.34903  0.44738  0.95105  Biso   1.000  C
  H10      1.0000 0.35787  0.44793  0.98873  Biso   1.000  H
  C16      1.0000 0.30528  0.41857  0.93520  Biso   1.000  C
  H11      1.0000 0.28517  0.39933  0.96203  Biso   1.000  H
  C17      1.0000 0.42648  0.50391  0.93011  Biso   1.000  C
  C18      1.0000 0.44621  0.48601  0.96404  Biso   1.000  C
  H12      1.0000 0.42937  0.45683  0.97613  Biso   1.000  H
  H13      1.0000 0.38977  0.56533  0.93773  Biso   1.000  H
  H14      1.0000 0.41577  0.62913  0.85693  Biso   1.000  H
  O5       1.0000 0.88656  0.69438  0.23357  Biso   1.000  O
  O6       1.0000 0.90073  0.72290  0.14458  Biso   1.000  O
  C19      1.0000 0.91150  0.72065  0.19426  Biso   1.000  C
  C20      1.0000 0.95856  0.75201  0.21302  Biso   1.000  C
  C21      1.0000 0.98925  0.78028  0.17156  Biso   1.000  C
  H15      1.0000 0.98063  0.77977  0.13367  Biso   1.000  H
  C22      1.0000 0.03230  0.80868  0.18859  Biso   1.000  C
  H16      1.0000 0.05243  0.82827  0.16197  Biso   1.000  H
  C23      1.0000 0.04620  0.80877  0.24380  Biso   1.000  C
  C24      1.0000 0.01569  0.78072  0.28439  Biso   1.000  C
  H17      1.0000 0.02453  0.78127  0.32207  Biso   1.000  H
  C25      1.0000 0.97194  0.75191  0.26854  Biso   1.000  C
  H18      1.0000 0.95183  0.73267  0.29537  Biso   1.000  H
  C26      1.0000 0.09314  0.83725  0.26345  Biso   1.000  C
  C27      1.0000 0.11287  0.81935  0.29738  Biso   1.000  C
  H19      1.0000 0.09603  0.79017  0.30947  Biso   1.000  H
  H20      1.0000 0.05643  0.89867  0.27107  Biso   1.000  H
  H21      1.0000 0.08243  0.96247  0.19027  Biso   1.000  H
  O7       1.0000 0.97229  0.52552  0.56690  Biso   1.000  O
  O8       1.0000 0.94377  0.51117  0.47791  Biso   1.000  O
  C28      1.0000 0.94602  0.52419  0.52759  Biso   1.000  C
  C29      1.0000 0.91466  0.53989  0.54635  Biso   1.000  C
  C30      1.0000 0.88639  0.54231  0.50489  Biso   1.000  C
  H22      1.0000 0.88690  0.53420  0.46700  Biso   1.000  H
  C31      1.0000 0.85799  0.55696  0.52192  Biso   1.000  C
  H23      1.0000 0.83840  0.55750  0.49530  Biso   1.000  H
  C32      1.0000 0.85790  0.57077  0.57713  Biso   1.000  C
  C33      1.0000 0.88595  0.56831  0.61772  Biso   1.000  C
  H24      1.0000 0.88540  0.57660  0.65540  Biso   1.000  H
  C34      1.0000 0.91476  0.55337  0.60187  Biso   1.000  C
  H25      1.0000 0.93400  0.55250  0.62870  Biso   1.000  H
  C35      1.0000 0.82942  0.58923  0.59678  Biso   1.000  C
  C36      1.0000 0.84732  0.62686  0.63071  Biso   1.000  C
  H26      1.0000 0.87650  0.63920  0.64280  Biso   1.000  H
  H27      1.0000 0.76800  0.49110  0.60440  Biso   1.000  H
  H28      1.0000 0.70420  0.45330  0.52360  Biso   1.000  H
  O9       1.0000 0.63896  0.85885  0.90023  Biso   1.000  O
  O10      1.0000 0.61044  0.84450  0.81124  Biso   1.000  O
  C37      1.0000 0.61269  0.85752  0.86092  Biso   1.000  C
  C38      1.0000 0.58133  0.87322  0.87968  Biso   1.000  C
  C39      1.0000 0.55306  0.87564  0.83822  Biso   1.000  C
  H29      1.0000 0.55357  0.86753  0.80033  Biso   1.000  H
  C40      1.0000 0.52466  0.89029  0.85525  Biso   1.000  C
  H30      1.0000 0.50507  0.89083  0.82863  Biso   1.000  H
  C41      1.0000 0.52457  0.90410  0.91046  Biso   1.000  C
  C42      1.0000 0.55262  0.90164  0.95105  Biso   1.000  C
  H31      1.0000 0.55207  0.90993  0.98873  Biso   1.000  H
  C43      1.0000 0.58143  0.88670  0.93520  Biso   1.000  C
  H32      1.0000 0.60067  0.88583  0.96203  Biso   1.000  H
  C44      1.0000 0.49609  0.92256  0.93011  Biso   1.000  C
  C45      1.0000 0.51399  0.96019  0.96404  Biso   1.000  C
  H33      1.0000 0.54317  0.97253  0.97613  Biso   1.000  H
  H34      1.0000 0.43467  0.82443  0.93773  Biso   1.000  H
  H35      1.0000 0.37087  0.78663  0.85693  Biso   1.000  H
  O11      1.0000 0.30562  0.19219  0.23357  Biso   1.000  O
  O12      1.0000 0.27710  0.17784  0.14458  Biso   1.000  O
  C46      1.0000 0.27935  0.19086  0.19426  Biso   1.000  C
  C47      1.0000 0.24799  0.20656  0.21302  Biso   1.000  C
  C48      1.0000 0.21972  0.20898  0.17156  Biso   1.000  C
  H36      1.0000 0.22023  0.20087  0.13367  Biso   1.000  H
  C49      1.0000 0.19132  0.22363  0.18859  Biso   1.000  C
  H37      1.0000 0.17173  0.22417  0.16197  Biso   1.000  H
  C50      1.0000 0.19123  0.23744  0.24380  Biso   1.000  C
  C51      1.0000 0.21928  0.23498  0.28439  Biso   1.000  C
  H38      1.0000 0.21873  0.24327  0.32207  Biso   1.000  H
  C52      1.0000 0.24809  0.22004  0.26854  Biso   1.000  C
  H39      1.0000 0.26733  0.21917  0.29537  Biso   1.000  H
  C53      1.0000 0.16275  0.25590  0.26345  Biso   1.000  C
  C54      1.0000 0.18065  0.29353  0.29738  Biso   1.000  C
  H40      1.0000 0.20983  0.30587  0.30947  Biso   1.000  H
  H41      1.0000 0.10133  0.15777  0.27107  Biso   1.000  H
  H42      1.0000 0.03753  0.11997  0.19027  Biso   1.000  H
  O13      1.0000 0.47448  0.44677  0.56690  Biso   1.000  O
  O14      1.0000 0.48883  0.43260  0.47791  Biso   1.000  O
  C55      1.0000 0.47581  0.42183  0.52759  Biso   1.000  C
  C56      1.0000 0.46011  0.37477  0.54635  Biso   1.000  C
  C57      1.0000 0.45769  0.34408  0.50489  Biso   1.000  C
  H43      1.0000 0.46580  0.35270  0.46700  Biso   1.000  H
  C58      1.0000 0.44304  0.30103  0.52192  Biso   1.000  C
  H44      1.0000 0.44250  0.28090  0.49530  Biso   1.000  H
  C59      1.0000 0.42923  0.28713  0.57713  Biso   1.000  C
  C60      1.0000 0.43169  0.31764  0.61772  Biso   1.000  C
  H45      1.0000 0.42340  0.30880  0.65540  Biso   1.000  H
  C61      1.0000 0.44663  0.36139  0.60187  Biso   1.000  C
  H46      1.0000 0.44750  0.38150  0.62870  Biso   1.000  H
  C62      1.0000 0.41077  0.24019  0.59678  Biso   1.000  C
  C63      1.0000 0.37314  0.22046  0.63071  Biso   1.000  C
  H47      1.0000 0.36080  0.23730  0.64280  Biso   1.000  H
  H48      1.0000 0.50890  0.27690  0.60440  Biso   1.000  H
  H49      1.0000 0.54670  0.25090  0.52360  Biso   1.000  H
  O15      1.0000 0.14115  0.78010  0.90023  Biso   1.000  O
  O16      1.0000 0.15550  0.76593  0.81124  Biso   1.000  O
  C64      1.0000 0.14248  0.75516  0.86092  Biso   1.000  C
  C65      1.0000 0.12678  0.70810  0.87968  Biso   1.000  C
  C66      1.0000 0.12436  0.67741  0.83822  Biso   1.000  C
  H50      1.0000 0.13247  0.68603  0.80033  Biso   1.000  H
  C67      1.0000 0.10971  0.63436  0.85525  Biso   1.000  C
  H51      1.0000 0.10917  0.61423  0.82863  Biso   1.000  H
  C68      1.0000 0.09590  0.62046  0.91046  Biso   1.000  C
  C69      1.0000 0.09836  0.65097  0.95105  Biso   1.000  C
  H52      1.0000 0.09007  0.64213  0.98873  Biso   1.000  H
  C70      1.0000 0.11330  0.69472  0.93520  Biso   1.000  C
  H53      1.0000 0.11417  0.71483  0.96203  Biso   1.000  H
  C71      1.0000 0.07744  0.57352  0.93011  Biso   1.000  C
  C72      1.0000 0.03981  0.55379  0.96404  Biso   1.000  C
  H54      1.0000 0.02747  0.57063  0.97613  Biso   1.000  H
  H55      1.0000 0.17557  0.61023  0.93773  Biso   1.000  H
  H56      1.0000 0.21337  0.58423  0.85693  Biso   1.000  H
  O17      1.0000 0.80781  0.11344  0.23357  Biso   1.000  O
  O18      1.0000 0.82216  0.09927  0.14458  Biso   1.000  O
  C73      1.0000 0.80914  0.08850  0.19426  Biso   1.000  C
  C74      1.0000 0.79344  0.04144  0.21302  Biso   1.000  C
  C75      1.0000 0.79102  0.01075  0.17156  Biso   1.000  C
  H57      1.0000 0.79913  0.01937  0.13367  Biso   1.000  H
  C76      1.0000 0.77637  0.96770  0.18859  Biso   1.000  C
  H58      1.0000 0.77583  0.94757  0.16197  Biso   1.000  H
  C77      1.0000 0.76256  0.95380  0.24380  Biso   1.000  C
  C78      1.0000 0.76502  0.98431  0.28439  Biso   1.000  C
  H59      1.0000 0.75673  0.97547  0.32207  Biso   1.000  H
  C79      1.0000 0.77996  0.02806  0.26854  Biso   1.000  C
  H60      1.0000 0.78083  0.04817  0.29537  Biso   1.000  H
  C80      1.0000 0.74410  0.90686  0.26345  Biso   1.000  C
  C81      1.0000 0.70647  0.88713  0.29738  Biso   1.000  C
  H61      1.0000 0.69413  0.90397  0.30947  Biso   1.000  H
  H62      1.0000 0.84223  0.94357  0.27107  Biso   1.000  H
  H63      1.0000 0.88003  0.91757  0.19027  Biso   1.000  H
  O19      1.0000 0.02771  0.55323  0.43310  Biso   1.000  O
  O20      1.0000 0.05623  0.56740  0.52209  Biso   1.000  O
  C82      1.0000 0.05398  0.57817  0.47241  Biso   1.000  C
  C83      1.0000 0.08534  0.62523  0.45365  Biso   1.000  C
  C84      1.0000 0.11361  0.65592  0.49511  Biso   1.000  C
  H64      1.0000 0.11310  0.64730  0.53300  Biso   1.000  H
  C85      1.0000 0.14201  0.69897  0.47808  Biso   1.000  C
  H65      1.0000 0.16160  0.71910  0.50470  Biso   1.000  H
  C86      1.0000 0.14210  0.71287  0.42287  Biso   1.000  C
  C87      1.0000 0.11405  0.68236  0.38228  Biso   1.000  C
  H66      1.0000 0.11460  0.69120  0.34460  Biso   1.000  H
  C88      1.0000 0.08524  0.63861  0.39813  Biso   1.000  C
  H67      1.0000 0.06600  0.61850  0.37130  Biso   1.000  H
  C89      1.0000 0.17058  0.75981  0.40322  Biso   1.000  C
  C90      1.0000 0.15268  0.77954  0.36929  Biso   1.000  C
  H68      1.0000 0.12350  0.76270  0.35720  Biso   1.000  H
  H69      1.0000 0.23200  0.72310  0.39560  Biso   1.000  H
  H70      1.0000 0.29580  0.74910  0.47640  Biso   1.000  H
  O21      1.0000 0.69438  0.88656  0.76643  Biso   1.000  O
  O22      1.0000 0.72290  0.90073  0.85542  Biso   1.000  O
  C91      1.0000 0.72065  0.91150  0.80574  Biso   1.000  C
  C92      1.0000 0.75201  0.95856  0.78698  Biso   1.000  C
  C93      1.0000 0.78028  0.98925  0.82844  Biso   1.000  C
  H71      1.0000 0.77977  0.98063  0.86633  Biso   1.000  H
  C94      1.0000 0.80868  0.03230  0.81141  Biso   1.000  C
  H72      1.0000 0.82827  0.05243  0.83803  Biso   1.000  H
  C95      1.0000 0.80877  0.04620  0.75620  Biso   1.000  C
  C96      1.0000 0.78072  0.01569  0.71561  Biso   1.000  C
  H73      1.0000 0.78127  0.02453  0.67793  Biso   1.000  H
  C97      1.0000 0.75191  0.97194  0.73146  Biso   1.000  C
  H74      1.0000 0.73267  0.95183  0.70463  Biso   1.000  H
  C98      1.0000 0.83725  0.09314  0.73655  Biso   1.000  C
  C99      1.0000 0.81935  0.11287  0.70262  Biso   1.000  C
  H75      1.0000 0.79017  0.09603  0.69053  Biso   1.000  H
  H76      1.0000 0.89867  0.05643  0.72893  Biso   1.000  H
  H77      1.0000 0.96247  0.08243  0.80973  Biso   1.000  H
  O23      1.0000 0.36104  0.21990  0.09977  Biso   1.000  O
  O24      1.0000 0.38956  0.23407  0.18876  Biso   1.000  O
  C100     1.0000 0.38731  0.24484  0.13908  Biso   1.000  C
  C101     1.0000 0.41867  0.29190  0.12032  Biso   1.000  C
  C102     1.0000 0.44694  0.32259  0.16178  Biso   1.000  C
  H78      1.0000 0.44643  0.31397  0.19967  Biso   1.000  H
  C103     1.0000 0.47534  0.36564  0.14475  Biso   1.000  C
  H79      1.0000 0.49493  0.38577  0.17137  Biso   1.000  H
  C104     1.0000 0.47543  0.37954  0.08954  Biso   1.000  C
  C105     1.0000 0.44738  0.34903  0.04895  Biso   1.000  C
  H80      1.0000 0.44793  0.35787  0.01127  Biso   1.000  H
  C106     1.0000 0.41857  0.30528  0.06480  Biso   1.000  C
  H81      1.0000 0.39933  0.28517  0.03797  Biso   1.000  H
  C107     1.0000 0.50391  0.42648  0.06989  Biso   1.000  C
  C108     1.0000 0.48601  0.44621  0.03596  Biso   1.000  C
  H82      1.0000 0.45683  0.42937  0.02387  Biso   1.000  H
  H83      1.0000 0.56533  0.38977  0.06227  Biso   1.000  H
  H84      1.0000 0.62913  0.41577  0.14307  Biso   1.000  H
  O25      1.0000 0.52552  0.97229  0.43310  Biso   1.000  O
  O26      1.0000 0.51117  0.94377  0.52209  Biso   1.000  O
  C109     1.0000 0.52419  0.94602  0.47241  Biso   1.000  C
  C110     1.0000 0.53989  0.91466  0.45365  Biso   1.000  C
  C111     1.0000 0.54231  0.88639  0.49511  Biso   1.000  C
  H85      1.0000 0.53420  0.88690  0.53300  Biso   1.000  H
  C112     1.0000 0.55696  0.85799  0.47808  Biso   1.000  C
  H86      1.0000 0.55750  0.83840  0.50470  Biso   1.000  H
  C113     1.0000 0.57077  0.85790  0.42287  Biso   1.000  C
  C114     1.0000 0.56831  0.88595  0.38228  Biso   1.000  C
  H87      1.0000 0.57660  0.88540  0.34460  Biso   1.000  H
  C115     1.0000 0.55337  0.91476  0.39813  Biso   1.000  C
  H88      1.0000 0.55250  0.93400  0.37130  Biso   1.000  H
  C116     1.0000 0.58923  0.82942  0.40322  Biso   1.000  C
  C117     1.0000 0.62686  0.84732  0.36929  Biso   1.000  C
  H89      1.0000 0.63920  0.87650  0.35720  Biso   1.000  H
  H90      1.0000 0.49110  0.76800  0.39560  Biso   1.000  H
  H91      1.0000 0.45330  0.70420  0.47640  Biso   1.000  H
  O27      1.0000 0.19219  0.30562  0.76643  Biso   1.000  O
  O28      1.0000 0.17784  0.27710  0.85542  Biso   1.000  O
  C118     1.0000 0.19086  0.27935  0.80574  Biso   1.000  C
  C119     1.0000 0.20656  0.24799  0.78698  Biso   1.000  C
  C120     1.0000 0.20898  0.21972  0.82844  Biso   1.000  C
  H92      1.0000 0.20087  0.22023  0.86633  Biso   1.000  H
  C121     1.0000 0.22363  0.19132  0.81141  Biso   1.000  C
  H93      1.0000 0.22417  0.17173  0.83803  Biso   1.000  H
  C122     1.0000 0.23744  0.19123  0.75620  Biso   1.000  C
  C123     1.0000 0.23498  0.21928  0.71561  Biso   1.000  C
  H94      1.0000 0.24327  0.21873  0.67793  Biso   1.000  H
  C124     1.0000 0.22004  0.24809  0.73146  Biso   1.000  C
  H95      1.0000 0.21917  0.26733  0.70463  Biso   1.000  H
  C125     1.0000 0.25590  0.16275  0.73655  Biso   1.000  C
  C126     1.0000 0.29353  0.18065  0.70262  Biso   1.000  C
  H96      1.0000 0.30587  0.20983  0.69053  Biso   1.000  H
  H97      1.0000 0.15777  0.10133  0.72893  Biso   1.000  H
  H98      1.0000 0.11997  0.03753  0.80973  Biso   1.000  H
  O29      1.0000 0.85885  0.63896  0.09977  Biso   1.000  O
  O30      1.0000 0.84450  0.61044  0.18876  Biso   1.000  O
  C127     1.0000 0.85752  0.61269  0.13908  Biso   1.000  C
  C128     1.0000 0.87322  0.58133  0.12032  Biso   1.000  C
  C129     1.0000 0.87564  0.55306  0.16178  Biso   1.000  C
  H99      1.0000 0.86753  0.55357  0.19967  Biso   1.000  H
  C130     1.0000 0.89029  0.52466  0.14475  Biso   1.000  C
  H100     1.0000 0.89083  0.50507  0.17137  Biso   1.000  H
  C131     1.0000 0.90410  0.52457  0.08954  Biso   1.000  C
  C132     1.0000 0.90164  0.55262  0.04895  Biso   1.000  C
  H101     1.0000 0.90993  0.55207  0.01127  Biso   1.000  H
  C133     1.0000 0.88670  0.58143  0.06480  Biso   1.000  C
  H102     1.0000 0.88583  0.60067  0.03797  Biso   1.000  H
  C134     1.0000 0.92256  0.49609  0.06989  Biso   1.000  C
  C135     1.0000 0.96019  0.51399  0.03596  Biso   1.000  C
  H103     1.0000 0.97253  0.54317  0.02387  Biso   1.000  H
  H104     1.0000 0.82443  0.43467  0.06227  Biso   1.000  H
  H105     1.0000 0.78663  0.37087  0.14307  Biso   1.000  H
  O31      1.0000 0.44677  0.47448  0.43310  Biso   1.000  O
  O32      1.0000 0.43260  0.48883  0.52209  Biso   1.000  O
  C136     1.0000 0.42183  0.47581  0.47241  Biso   1.000  C
  C137     1.0000 0.37477  0.46011  0.45365  Biso   1.000  C
  C138     1.0000 0.34408  0.45769  0.49511  Biso   1.000  C
  H106     1.0000 0.35270  0.46580  0.53300  Biso   1.000  H
  C139     1.0000 0.30103  0.44304  0.47808  Biso   1.000  C
  H107     1.0000 0.28090  0.44250  0.50470  Biso   1.000  H
  C140     1.0000 0.28713  0.42923  0.42287  Biso   1.000  C
  C141     1.0000 0.31764  0.43169  0.38228  Biso   1.000  C
  H108     1.0000 0.30880  0.42340  0.34460  Biso   1.000  H
  C142     1.0000 0.36139  0.44663  0.39813  Biso   1.000  C
  H109     1.0000 0.38150  0.44750  0.37130  Biso   1.000  H
  C143     1.0000 0.24019  0.41077  0.40322  Biso   1.000  C
  C144     1.0000 0.22046  0.37314  0.36929  Biso   1.000  C
  H110     1.0000 0.23730  0.36080  0.35720  Biso   1.000  H
  H111     1.0000 0.27690  0.50890  0.39560  Biso   1.000  H
  H112     1.0000 0.25090  0.54670  0.47640  Biso   1.000  H
  O33      1.0000 0.11344  0.80781  0.76643  Biso   1.000  O
  O34      1.0000 0.09927  0.82216  0.85542  Biso   1.000  O
  C145     1.0000 0.08850  0.80914  0.80574  Biso   1.000  C
  C146     1.0000 0.04144  0.79344  0.78698  Biso   1.000  C
  C147     1.0000 0.01075  0.79102  0.82844  Biso   1.000  C
  H113     1.0000 0.01937  0.79913  0.86633  Biso   1.000  H
  C148     1.0000 0.96770  0.77637  0.81141  Biso   1.000  C
  H114     1.0000 0.94757  0.77583  0.83803  Biso   1.000  H
  C149     1.0000 0.95380  0.76256  0.75620  Biso   1.000  C
  C150     1.0000 0.98431  0.76502  0.71561  Biso   1.000  C
  H115     1.0000 0.97547  0.75673  0.67793  Biso   1.000  H
  C151     1.0000 0.02806  0.77996  0.73146  Biso   1.000  C
  H116     1.0000 0.04817  0.78083  0.70463  Biso   1.000  H
  C152     1.0000 0.90686  0.74410  0.73655  Biso   1.000  C
  C153     1.0000 0.88713  0.70647  0.70262  Biso   1.000  C
  H117     1.0000 0.90397  0.69413  0.69053  Biso   1.000  H
  H118     1.0000 0.94357  0.84223  0.72893  Biso   1.000  H
  H119     1.0000 0.91757  0.88003  0.80973  Biso   1.000  H
  O35      1.0000 0.78010  0.14115  0.09977  Biso   1.000  O
  O36      1.0000 0.76593  0.15550  0.18876  Biso   1.000  O
  C154     1.0000 0.75516  0.14248  0.13908  Biso   1.000  C
  C155     1.0000 0.70810  0.12678  0.12032  Biso   1.000  C
  C156     1.0000 0.67741  0.12436  0.16178  Biso   1.000  C
  H120     1.0000 0.68603  0.13247  0.19967  Biso   1.000  H
  C157     1.0000 0.63436  0.10971  0.14475  Biso   1.000  C
  H121     1.0000 0.61423  0.10917  0.17137  Biso   1.000  H
  C158     1.0000 0.62046  0.09590  0.08954  Biso   1.000  C
  C159     1.0000 0.65097  0.09836  0.04895  Biso   1.000  C
  H122     1.0000 0.64213  0.09007  0.01127  Biso   1.000  H
  C160     1.0000 0.69472  0.11330  0.06480  Biso   1.000  C
  H123     1.0000 0.71483  0.11417  0.03797  Biso   1.000  H
  C161     1.0000 0.57352  0.07744  0.06989  Biso   1.000  C
  C162     1.0000 0.55379  0.03981  0.03596  Biso   1.000  C
  H124     1.0000 0.57063  0.02747  0.02387  Biso   1.000  H
  H125     1.0000 0.61023  0.17557  0.06227  Biso   1.000  H
  H126     1.0000 0.58423  0.21337  0.14307  Biso   1.000  H
  O37      1.0000 0.44677  0.97229  0.43310  Biso   1.000  O
  O38      1.0000 0.43260  0.94377  0.52209  Biso   1.000  O
  C163     1.0000 0.42183  0.94602  0.47241  Biso   1.000  C
  C164     1.0000 0.37477  0.91466  0.45365  Biso   1.000  C
  C165     1.0000 0.34408  0.88639  0.49511  Biso   1.000  C
  H127     1.0000 0.35270  0.88690  0.53300  Biso   1.000  H
  C166     1.0000 0.30103  0.85799  0.47808  Biso   1.000  C
  H128     1.0000 0.28090  0.83840  0.50470  Biso   1.000  H
  C167     1.0000 0.28713  0.85790  0.42287  Biso   1.000  C
  C168     1.0000 0.31764  0.88595  0.38228  Biso   1.000  C
  H129     1.0000 0.30880  0.88540  0.34460  Biso   1.000  H
  C169     1.0000 0.36139  0.91476  0.39813  Biso   1.000  C
  H130     1.0000 0.38150  0.93400  0.37130  Biso   1.000  H
  C170     1.0000 0.24019  0.82942  0.40322  Biso   1.000  C
  C171     1.0000 0.22046  0.84732  0.36929  Biso   1.000  C
  H131     1.0000 0.23730  0.87650  0.35720  Biso   1.000  H
  H132     1.0000 0.27690  0.76800  0.39560  Biso   1.000  H
  H133     1.0000 0.25090  0.70420  0.47640  Biso   1.000  H
  O39      1.0000 0.11344  0.30562  0.76643  Biso   1.000  O
  O40      1.0000 0.09927  0.27710  0.85542  Biso   1.000  O
  C172     1.0000 0.08850  0.27935  0.80574  Biso   1.000  C
  C173     1.0000 0.04144  0.24799  0.78698  Biso   1.000  C
  C174     1.0000 0.01075  0.21972  0.82844  Biso   1.000  C
  H134     1.0000 0.01937  0.22023  0.86633  Biso   1.000  H
  C175     1.0000 0.96770  0.19132  0.81141  Biso   1.000  C
  H135     1.0000 0.94757  0.17173  0.83803  Biso   1.000  H
  C176     1.0000 0.95380  0.19123  0.75620  Biso   1.000  C
  C177     1.0000 0.98431  0.21928  0.71561  Biso   1.000  C
  H136     1.0000 0.97547  0.21873  0.67793  Biso   1.000  H
  C178     1.0000 0.02806  0.24809  0.73146  Biso   1.000  C
  H137     1.0000 0.04817  0.26733  0.70463  Biso   1.000  H
  C179     1.0000 0.90686  0.16275  0.73655  Biso   1.000  C
  C180     1.0000 0.88713  0.18065  0.70262  Biso   1.000  C
  H138     1.0000 0.90397  0.20983  0.69053  Biso   1.000  H
  H139     1.0000 0.94357  0.10133  0.72893  Biso   1.000  H
  H140     1.0000 0.91757  0.03753  0.80973  Biso   1.000  H
  O41      1.0000 0.78010  0.63896  0.09977  Biso   1.000  O
  O42      1.0000 0.76593  0.61044  0.18876  Biso   1.000  O
  C181     1.0000 0.75516  0.61269  0.13908  Biso   1.000  C
  C182     1.0000 0.70810  0.58133  0.12032  Biso   1.000  C
  C183     1.0000 0.67741  0.55306  0.16178  Biso   1.000  C
  H141     1.0000 0.68603  0.55357  0.19967  Biso   1.000  H
  C184     1.0000 0.63436  0.52466  0.14475  Biso   1.000  C
  H142     1.0000 0.61423  0.50507  0.17137  Biso   1.000  H
  C185     1.0000 0.62046  0.52457  0.08954  Biso   1.000  C
  C186     1.0000 0.65097  0.55262  0.04895  Biso   1.000  C
  H143     1.0000 0.64213  0.55207  0.01127  Biso   1.000  H
  C187     1.0000 0.69472  0.58143  0.06480  Biso   1.000  C
  H144     1.0000 0.71483  0.60067  0.03797  Biso   1.000  H
  C188     1.0000 0.57352  0.49609  0.06989  Biso   1.000  C
  C189     1.0000 0.55379  0.51399  0.03596  Biso   1.000  C
  H145     1.0000 0.57063  0.54317  0.02387  Biso   1.000  H
  H146     1.0000 0.61023  0.43467  0.06227  Biso   1.000  H
  H147     1.0000 0.58423  0.37087  0.14307  Biso   1.000  H
  O43      1.0000 0.02771  0.47448  0.43310  Biso   1.000  O
  O44      1.0000 0.05623  0.48883  0.52209  Biso   1.000  O
  C190     1.0000 0.05398  0.47581  0.47241  Biso   1.000  C
  C191     1.0000 0.08534  0.46011  0.45365  Biso   1.000  C
  C192     1.0000 0.11361  0.45769  0.49511  Biso   1.000  C
  H148     1.0000 0.11310  0.46580  0.53300  Biso   1.000  H
  C193     1.0000 0.14201  0.44304  0.47808  Biso   1.000  C
  H149     1.0000 0.16160  0.44250  0.50470  Biso   1.000  H
  C194     1.0000 0.14210  0.42923  0.42287  Biso   1.000  C
  C195     1.0000 0.11405  0.43169  0.38228  Biso   1.000  C
  H150     1.0000 0.11460  0.42340  0.34460  Biso   1.000  H
  C196     1.0000 0.08524  0.44663  0.39813  Biso   1.000  C
  H151     1.0000 0.06600  0.44750  0.37130  Biso   1.000  H
  C197     1.0000 0.17058  0.41077  0.40322  Biso   1.000  C
  C198     1.0000 0.15268  0.37314  0.36929  Biso   1.000  C
  H152     1.0000 0.12350  0.36080  0.35720  Biso   1.000  H
  H153     1.0000 0.23200  0.50890  0.39560  Biso   1.000  H
  H154     1.0000 0.29580  0.54670  0.47640  Biso   1.000  H
  O45      1.0000 0.69438  0.80781  0.76643  Biso   1.000  O
  O46      1.0000 0.72290  0.82216  0.85542  Biso   1.000  O
  C199     1.0000 0.72065  0.80914  0.80574  Biso   1.000  C
  C200     1.0000 0.75201  0.79344  0.78698  Biso   1.000  C
  C201     1.0000 0.78028  0.79102  0.82844  Biso   1.000  C
  H155     1.0000 0.77977  0.79913  0.86633  Biso   1.000  H
  C202     1.0000 0.80868  0.77637  0.81141  Biso   1.000  C
  H156     1.0000 0.82827  0.77583  0.83803  Biso   1.000  H
  C203     1.0000 0.80877  0.76256  0.75620  Biso   1.000  C
  C204     1.0000 0.78072  0.76502  0.71561  Biso   1.000  C
  H157     1.0000 0.78127  0.75673  0.67793  Biso   1.000  H
  C205     1.0000 0.75191  0.77996  0.73146  Biso   1.000  C
  H158     1.0000 0.73267  0.78083  0.70463  Biso   1.000  H
  C206     1.0000 0.83725  0.74410  0.73655  Biso   1.000  C
  C207     1.0000 0.81935  0.70647  0.70262  Biso   1.000  C
  H159     1.0000 0.79017  0.69413  0.69053  Biso   1.000  H
  H160     1.0000 0.89867  0.84223  0.72893  Biso   1.000  H
  H161     1.0000 0.96247  0.88003  0.80973  Biso   1.000  H
  O47      1.0000 0.36104  0.14115  0.09977  Biso   1.000  O
  O48      1.0000 0.38956  0.15550  0.18876  Biso   1.000  O
  C208     1.0000 0.38731  0.14248  0.13908  Biso   1.000  C
  C209     1.0000 0.41867  0.12678  0.12032  Biso   1.000  C
  C210     1.0000 0.44694  0.12436  0.16178  Biso   1.000  C
  H162     1.0000 0.44643  0.13247  0.19967  Biso   1.000  H
  C211     1.0000 0.47534  0.10971  0.14475  Biso   1.000  C
  H163     1.0000 0.49493  0.10917  0.17137  Biso   1.000  H
  C212     1.0000 0.47543  0.09590  0.08954  Biso   1.000  C
  C213     1.0000 0.44738  0.09836  0.04895  Biso   1.000  C
  H164     1.0000 0.44793  0.09007  0.01127  Biso   1.000  H
  C214     1.0000 0.41857  0.11330  0.06480  Biso   1.000  C
  H165     1.0000 0.39933  0.11417  0.03797  Biso   1.000  H
  C215     1.0000 0.50391  0.07744  0.06989  Biso   1.000  C
  C216     1.0000 0.48601  0.03981  0.03596  Biso   1.000  C
  H166     1.0000 0.45683  0.02747  0.02387  Biso   1.000  H
  H167     1.0000 0.56533  0.17557  0.06227  Biso   1.000  H
  H168     1.0000 0.62913  0.21337  0.14307  Biso   1.000  H
  O49      1.0000 0.52552  0.55323  0.43310  Biso   1.000  O
  O50      1.0000 0.51117  0.56740  0.52209  Biso   1.000  O
  C217     1.0000 0.52419  0.57817  0.47241  Biso   1.000  C
  C218     1.0000 0.53989  0.62523  0.45365  Biso   1.000  C
  C219     1.0000 0.54231  0.65592  0.49511  Biso   1.000  C
  H169     1.0000 0.53420  0.64730  0.53300  Biso   1.000  H
  C220     1.0000 0.55696  0.69897  0.47808  Biso   1.000  C
  H170     1.0000 0.55750  0.71910  0.50470  Biso   1.000  H
  C221     1.0000 0.57077  0.71287  0.42287  Biso   1.000  C
  C222     1.0000 0.56831  0.68236  0.38228  Biso   1.000  C
  H171     1.0000 0.57660  0.69120  0.34460  Biso   1.000  H
  C223     1.0000 0.55337  0.63861  0.39813  Biso   1.000  C
  H172     1.0000 0.55250  0.61850  0.37130  Biso   1.000  H
  C224     1.0000 0.58923  0.75981  0.40322  Biso   1.000  C
  C225     1.0000 0.62686  0.77954  0.36929  Biso   1.000  C
  H173     1.0000 0.63920  0.76270  0.35720  Biso   1.000  H
  H174     1.0000 0.49110  0.72310  0.39560  Biso   1.000  H
  H175     1.0000 0.45330  0.74910  0.47640  Biso   1.000  H
  O51      1.0000 0.19219  0.88656  0.76643  Biso   1.000  O
  O52      1.0000 0.17784  0.90073  0.85542  Biso   1.000  O
  C226     1.0000 0.19086  0.91150  0.80574  Biso   1.000  C
  C227     1.0000 0.20656  0.95856  0.78698  Biso   1.000  C
  C228     1.0000 0.20898  0.98925  0.82844  Biso   1.000  C
  H176     1.0000 0.20087  0.98063  0.86633  Biso   1.000  H
  C229     1.0000 0.22363  0.03230  0.81141  Biso   1.000  C
  H177     1.0000 0.22417  0.05243  0.83803  Biso   1.000  H
  C230     1.0000 0.23744  0.04620  0.75620  Biso   1.000  C
  C231     1.0000 0.23498  0.01569  0.71561  Biso   1.000  C
  H178     1.0000 0.24327  0.02453  0.67793  Biso   1.000  H
  C232     1.0000 0.22004  0.97194  0.73146  Biso   1.000  C
  H179     1.0000 0.21917  0.95183  0.70463  Biso   1.000  H
  C233     1.0000 0.25590  0.09314  0.73655  Biso   1.000  C
  C234     1.0000 0.29353  0.11287  0.70262  Biso   1.000  C
  H180     1.0000 0.30587  0.09603  0.69053  Biso   1.000  H
  H181     1.0000 0.15777  0.05643  0.72893  Biso   1.000  H
  H182     1.0000 0.11997  0.08243  0.80973  Biso   1.000  H
  O53      1.0000 0.85885  0.21990  0.09977  Biso   1.000  O
  O54      1.0000 0.84450  0.23407  0.18876  Biso   1.000  O
  C235     1.0000 0.85752  0.24484  0.13908  Biso   1.000  C
  C236     1.0000 0.87322  0.29190  0.12032  Biso   1.000  C
  C237     1.0000 0.87564  0.32259  0.16178  Biso   1.000  C
  H183     1.0000 0.86753  0.31397  0.19967  Biso   1.000  H
  C238     1.0000 0.89029  0.36564  0.14475  Biso   1.000  C
  H184     1.0000 0.89083  0.38577  0.17137  Biso   1.000  H
  C239     1.0000 0.90410  0.37954  0.08954  Biso   1.000  C
  C240     1.0000 0.90164  0.34903  0.04895  Biso   1.000  C
  H185     1.0000 0.90993  0.35787  0.01127  Biso   1.000  H
  C241     1.0000 0.88670  0.30528  0.06480  Biso   1.000  C
  H186     1.0000 0.88583  0.28517  0.03797  Biso   1.000  H
  C242     1.0000 0.92256  0.42648  0.06989  Biso   1.000  C
  C243     1.0000 0.96019  0.44621  0.03596  Biso   1.000  C
  H187     1.0000 0.97253  0.42937  0.02387  Biso   1.000  H
  H188     1.0000 0.82443  0.38977  0.06227  Biso   1.000  H
  H189     1.0000 0.78663  0.41577  0.14307  Biso   1.000  H
  O55      1.0000 0.97229  0.44677  0.56690  Biso   1.000  O
  O56      1.0000 0.94377  0.43260  0.47791  Biso   1.000  O
  C244     1.0000 0.94602  0.42183  0.52759  Biso   1.000  C
  C245     1.0000 0.91466  0.37477  0.54635  Biso   1.000  C
  C246     1.0000 0.88639  0.34408  0.50489  Biso   1.000  C
  H190     1.0000 0.88690  0.35270  0.46700  Biso   1.000  H
  C247     1.0000 0.85799  0.30103  0.52192  Biso   1.000  C
  H191     1.0000 0.83840  0.28090  0.49530  Biso   1.000  H
  C248     1.0000 0.85790  0.28713  0.57713  Biso   1.000  C
  C249     1.0000 0.88595  0.31764  0.61772  Biso   1.000  C
  H192     1.0000 0.88540  0.30880  0.65540  Biso   1.000  H
  C250     1.0000 0.91476  0.36139  0.60187  Biso   1.000  C
  H193     1.0000 0.93400  0.38150  0.62870  Biso   1.000  H
  C251     1.0000 0.82942  0.24019  0.59678  Biso   1.000  C
  C252     1.0000 0.84732  0.22046  0.63071  Biso   1.000  C
  H194     1.0000 0.87650  0.23730  0.64280  Biso   1.000  H
  H195     1.0000 0.76800  0.27690  0.60440  Biso   1.000  H
  H196     1.0000 0.70420  0.25090  0.52360  Biso   1.000  H
  O57      1.0000 0.63896  0.78010  0.90023  Biso   1.000  O
  O58      1.0000 0.61044  0.76593  0.81124  Biso   1.000  O
  C253     1.0000 0.61269  0.75516  0.86092  Biso   1.000  C
  C254     1.0000 0.58133  0.70810  0.87968  Biso   1.000  C
  C255     1.0000 0.55306  0.67741  0.83822  Biso   1.000  C
  H197     1.0000 0.55357  0.68603  0.80033  Biso   1.000  H
  C256     1.0000 0.52466  0.63436  0.85525  Biso   1.000  C
  H198     1.0000 0.50507  0.61423  0.82863  Biso   1.000  H
  C257     1.0000 0.52457  0.62046  0.91046  Biso   1.000  C
  C258     1.0000 0.55262  0.65097  0.95105  Biso   1.000  C
  H199     1.0000 0.55207  0.64213  0.98873  Biso   1.000  H
  C259     1.0000 0.58143  0.69472  0.93520  Biso   1.000  C
  H200     1.0000 0.60067  0.71483  0.96203  Biso   1.000  H
  C260     1.0000 0.49609  0.57352  0.93011  Biso   1.000  C
  C261     1.0000 0.51399  0.55379  0.96404  Biso   1.000  C
  H201     1.0000 0.54317  0.57063  0.97613  Biso   1.000  H
  H202     1.0000 0.43467  0.61023  0.93773  Biso   1.000  H
  H203     1.0000 0.37087  0.58423  0.85693  Biso   1.000  H
  O59      1.0000 0.30562  0.11344  0.23357  Biso   1.000  O
  O60      1.0000 0.27710  0.09927  0.14458  Biso   1.000  O
  C262     1.0000 0.27935  0.08850  0.19426  Biso   1.000  C
  C263     1.0000 0.24799  0.04144  0.21302  Biso   1.000  C
  C264     1.0000 0.21972  0.01075  0.17156  Biso   1.000  C
  H204     1.0000 0.22023  0.01937  0.13367  Biso   1.000  H
  C265     1.0000 0.19132  0.96770  0.18859  Biso   1.000  C
  H205     1.0000 0.17173  0.94757  0.16197  Biso   1.000  H
  C266     1.0000 0.19123  0.95380  0.24380  Biso   1.000  C
  C267     1.0000 0.21928  0.98431  0.28439  Biso   1.000  C
  H206     1.0000 0.21873  0.97547  0.32207  Biso   1.000  H
  C268     1.0000 0.24809  0.02806  0.26854  Biso   1.000  C
  H207     1.0000 0.26733  0.04817  0.29537  Biso   1.000  H
  C269     1.0000 0.16275  0.90686  0.26345  Biso   1.000  C
  C270     1.0000 0.18065  0.88713  0.29738  Biso   1.000  C
  H208     1.0000 0.20983  0.90397  0.30947  Biso   1.000  H
  H209     1.0000 0.10133  0.94357  0.27107  Biso   1.000  H
  H210     1.0000 0.03753  0.91757  0.19027  Biso   1.000  H
  O61      1.0000 0.47448  0.02771  0.56690  Biso   1.000  O
  O62      1.0000 0.48883  0.05623  0.47791  Biso   1.000  O
  C271     1.0000 0.47581  0.05398  0.52759  Biso   1.000  C
  C272     1.0000 0.46011  0.08534  0.54635  Biso   1.000  C
  C273     1.0000 0.45769  0.11361  0.50489  Biso   1.000  C
  H211     1.0000 0.46580  0.11310  0.46700  Biso   1.000  H
  C274     1.0000 0.44304  0.14201  0.52192  Biso   1.000  C
  H212     1.0000 0.44250  0.16160  0.49530  Biso   1.000  H
  C275     1.0000 0.42923  0.14210  0.57713  Biso   1.000  C
  C276     1.0000 0.43169  0.11405  0.61772  Biso   1.000  C
  H213     1.0000 0.42340  0.11460  0.65540  Biso   1.000  H
  C277     1.0000 0.44663  0.08524  0.60187  Biso   1.000  C
  H214     1.0000 0.44750  0.06600  0.62870  Biso   1.000  H
  C278     1.0000 0.41077  0.17058  0.59678  Biso   1.000  C
  C279     1.0000 0.37314  0.15268  0.63071  Biso   1.000  C
  H215     1.0000 0.36080  0.12350  0.64280  Biso   1.000  H
  H216     1.0000 0.50890  0.23200  0.60440  Biso   1.000  H
  H217     1.0000 0.54670  0.29580  0.52360  Biso   1.000  H
  O63      1.0000 0.14115  0.36104  0.90023  Biso   1.000  O
  O64      1.0000 0.15550  0.38956  0.81124  Biso   1.000  O
  C280     1.0000 0.14248  0.38731  0.86092  Biso   1.000  C
  C281     1.0000 0.12678  0.41867  0.87968  Biso   1.000  C
  C282     1.0000 0.12436  0.44694  0.83822  Biso   1.000  C
  H218     1.0000 0.13247  0.44643  0.80033  Biso   1.000  H
  C283     1.0000 0.10971  0.47534  0.85525  Biso   1.000  C
  H219     1.0000 0.10917  0.49493  0.82863  Biso   1.000  H
  C284     1.0000 0.09590  0.47543  0.91046  Biso   1.000  C
  C285     1.0000 0.09836  0.44738  0.95105  Biso   1.000  C
  H220     1.0000 0.09007  0.44793  0.98873  Biso   1.000  H
  C286     1.0000 0.11330  0.41857  0.93520  Biso   1.000  C
  H221     1.0000 0.11417  0.39933  0.96203  Biso   1.000  H
  C287     1.0000 0.07744  0.50391  0.93011  Biso   1.000  C
  C288     1.0000 0.03981  0.48601  0.96404  Biso   1.000  C
  H222     1.0000 0.02747  0.45683  0.97613  Biso   1.000  H
  H223     1.0000 0.17557  0.56533  0.93773  Biso   1.000  H
  H224     1.0000 0.21337  0.62913  0.85693  Biso   1.000  H
  O65      1.0000 0.80781  0.69438  0.23357  Biso   1.000  O
  O66      1.0000 0.82216  0.72290  0.14458  Biso   1.000  O
  C289     1.0000 0.80914  0.72065  0.19426  Biso   1.000  C
  C290     1.0000 0.79344  0.75201  0.21302  Biso   1.000  C
  C291     1.0000 0.79102  0.78028  0.17156  Biso   1.000  C
  H225     1.0000 0.79913  0.77977  0.13367  Biso   1.000  H
  C292     1.0000 0.77637  0.80868  0.18859  Biso   1.000  C
  H226     1.0000 0.77583  0.82827  0.16197  Biso   1.000  H
  C293     1.0000 0.76256  0.80877  0.24380  Biso   1.000  C
  C294     1.0000 0.76502  0.78072  0.28439  Biso   1.000  C
  H227     1.0000 0.75673  0.78127  0.32207  Biso   1.000  H
  C295     1.0000 0.77996  0.75191  0.26854  Biso   1.000  C
  H228     1.0000 0.78083  0.73267  0.29537  Biso   1.000  H
  C296     1.0000 0.74410  0.83725  0.26345  Biso   1.000  C
  C297     1.0000 0.70647  0.81935  0.29738  Biso   1.000  C
  H229     1.0000 0.69413  0.79017  0.30947  Biso   1.000  H
  H230     1.0000 0.84223  0.89867  0.27107  Biso   1.000  H
  H231     1.0000 0.88003  0.96247  0.19027  Biso   1.000  H
  O67      1.0000 0.55323  0.52552  0.56690  Biso   1.000  O
  O68      1.0000 0.56740  0.51117  0.47791  Biso   1.000  O
  C298     1.0000 0.57817  0.52419  0.52759  Biso   1.000  C
  C299     1.0000 0.62523  0.53989  0.54635  Biso   1.000  C
  C300     1.0000 0.65592  0.54231  0.50489  Biso   1.000  C
  H232     1.0000 0.64730  0.53420  0.46700  Biso   1.000  H
  C301     1.0000 0.69897  0.55696  0.52192  Biso   1.000  C
  H233     1.0000 0.71910  0.55750  0.49530  Biso   1.000  H
  C302     1.0000 0.71287  0.57077  0.57713  Biso   1.000  C
  C303     1.0000 0.68236  0.56831  0.61772  Biso   1.000  C
  H234     1.0000 0.69120  0.57660  0.65540  Biso   1.000  H
  C304     1.0000 0.63861  0.55337  0.60187  Biso   1.000  C
  H235     1.0000 0.61850  0.55250  0.62870  Biso   1.000  H
  C305     1.0000 0.75981  0.58923  0.59678  Biso   1.000  C
  C306     1.0000 0.77954  0.62686  0.63071  Biso   1.000  C
  H236     1.0000 0.76270  0.63920  0.64280  Biso   1.000  H
  H237     1.0000 0.72310  0.49110  0.60440  Biso   1.000  H
  H238     1.0000 0.74910  0.45330  0.52360  Biso   1.000  H
  O69      1.0000 0.21990  0.85885  0.90023  Biso   1.000  O
  O70      1.0000 0.23407  0.84450  0.81124  Biso   1.000  O
  C307     1.0000 0.24484  0.85752  0.86092  Biso   1.000  C
  C308     1.0000 0.29190  0.87322  0.87968  Biso   1.000  C
  C309     1.0000 0.32259  0.87564  0.83822  Biso   1.000  C
  H239     1.0000 0.31397  0.86753  0.80033  Biso   1.000  H
  C310     1.0000 0.36564  0.89029  0.85525  Biso   1.000  C
  H240     1.0000 0.38577  0.89083  0.82863  Biso   1.000  H
  C311     1.0000 0.37954  0.90410  0.91046  Biso   1.000  C
  C312     1.0000 0.34903  0.90164  0.95105  Biso   1.000  C
  H241     1.0000 0.35787  0.90993  0.98873  Biso   1.000  H
  C313     1.0000 0.30528  0.88670  0.93520  Biso   1.000  C
  H242     1.0000 0.28517  0.88583  0.96203  Biso   1.000  H
  C314     1.0000 0.42648  0.92256  0.93011  Biso   1.000  C
  C315     1.0000 0.44621  0.96019  0.96404  Biso   1.000  C
  H243     1.0000 0.42937  0.97253  0.97613  Biso   1.000  H
  H244     1.0000 0.38977  0.82443  0.93773  Biso   1.000  H
  H245     1.0000 0.41577  0.78663  0.85693  Biso   1.000  H
  O71      1.0000 0.88656  0.19219  0.23357  Biso   1.000  O
  O72      1.0000 0.90073  0.17784  0.14458  Biso   1.000  O
  C316     1.0000 0.91150  0.19086  0.19426  Biso   1.000  C
  C317     1.0000 0.95856  0.20656  0.21302  Biso   1.000  C
  C318     1.0000 0.98925  0.20898  0.17156  Biso   1.000  C
  H246     1.0000 0.98063  0.20087  0.13367  Biso   1.000  H
  C319     1.0000 0.03230  0.22363  0.18859  Biso   1.000  C
  H247     1.0000 0.05243  0.22417  0.16197  Biso   1.000  H
  C320     1.0000 0.04620  0.23744  0.24380  Biso   1.000  C
  C321     1.0000 0.01569  0.23498  0.28439  Biso   1.000  C
  H248     1.0000 0.02453  0.24327  0.32207  Biso   1.000  H
  C322     1.0000 0.97194  0.22004  0.26854  Biso   1.000  C
  H249     1.0000 0.95183  0.21917  0.29537  Biso   1.000  H
  C323     1.0000 0.09314  0.25590  0.26345  Biso   1.000  C
  C324     1.0000 0.11287  0.29353  0.29738  Biso   1.000  C
  H250     1.0000 0.09603  0.30587  0.30947  Biso   1.000  H
  H251     1.0000 0.05643  0.15777  0.27107  Biso   1.000  H
  H252     1.0000 0.08243  0.11997  0.19027  Biso   1.000  H
  Cu1      1.0000 0.50837  0.01674  0.44765  Biso   1.000  Cu
  Cu2      1.0000 0.17504  0.35007  0.78098  Biso   1.000  Cu
  Cu3      1.0000 0.84170  0.68341  0.11432  Biso   1.000  Cu
  Cu4      1.0000 0.98326  0.49163  0.44765  Biso   1.000  Cu
  Cu5      1.0000 0.64993  0.82496  0.78098  Biso   1.000  Cu
  Cu6      1.0000 0.31659  0.15830  0.11432  Biso   1.000  Cu
  Cu7      1.0000 0.50837  0.49163  0.44765  Biso   1.000  Cu
  Cu8      1.0000 0.17504  0.82496  0.78098  Biso   1.000  Cu
  Cu9      1.0000 0.84170  0.15830  0.11432  Biso   1.000  Cu
  Cu10     1.0000 0.01674  0.50837  0.55235  Biso   1.000  Cu
  Cu11     1.0000 0.68341  0.84170  0.88568  Biso   1.000  Cu
  Cu12     1.0000 0.35007  0.17504  0.21902  Biso   1.000  Cu
  Cu13     1.0000 0.49163  0.98326  0.55235  Biso   1.000  Cu
  Cu14     1.0000 0.15830  0.31659  0.88568  Biso   1.000  Cu
  Cu15     1.0000 0.82496  0.64993  0.21902  Biso   1.000  Cu
  Cu16     1.0000 0.49163  0.50837  0.55235  Biso   1.000  Cu
  Cu17     1.0000 0.15830  0.84170  0.88568  Biso   1.000  Cu
  Cu18     1.0000 0.82496  0.17504  0.21902  Biso   1.000  Cu
  O73      1.0000 0.76643  0.23357  0.54467  Biso   1.000  O
  C325     1.0000 0.82336  0.17664  0.64720  Biso   1.000  C
  C326     1.0000 0.78514  0.21486  0.58010  Biso   1.000  C
  C327     1.0000 0.74561  0.25439  0.57990  Biso   1.000  C
  C328     1.0000 0.72687  0.27313  0.54740  Biso   1.000  C
  H253     1.0000 0.71420  0.28580  0.57200  Biso   1.000  H
  O74      1.0000 0.43310  0.56690  0.87800  Biso   1.000  O
  C329     1.0000 0.49003  0.50997  0.98053  Biso   1.000  C
  C330     1.0000 0.45181  0.54819  0.91343  Biso   1.000  C
  C331     1.0000 0.41228  0.58772  0.91323  Biso   1.000  C
  C332     1.0000 0.39354  0.60646  0.88073  Biso   1.000  C
  H254     1.0000 0.38087  0.61913  0.90533  Biso   1.000  H
  O75      1.0000 0.09976  0.90024  0.21134  Biso   1.000  O
  C333     1.0000 0.15669  0.84331  0.31387  Biso   1.000  C
  C334     1.0000 0.11847  0.88153  0.24677  Biso   1.000  C
  C335     1.0000 0.07894  0.92106  0.24657  Biso   1.000  C
  C336     1.0000 0.06020  0.93980  0.21407  Biso   1.000  C
  H255     1.0000 0.04753  0.95247  0.23867  Biso   1.000  H
  O76      1.0000 0.76643  0.53286  0.54467  Biso   1.000  O
  C337     1.0000 0.82336  0.64672  0.64720  Biso   1.000  C
  C338     1.0000 0.78514  0.57028  0.58010  Biso   1.000  C
  C339     1.0000 0.74561  0.49122  0.57990  Biso   1.000  C
  C340     1.0000 0.72687  0.45374  0.54740  Biso   1.000  C
  H256     1.0000 0.71420  0.42840  0.57200  Biso   1.000  H
  O77      1.0000 0.43310  0.86619  0.87800  Biso   1.000  O
  C341     1.0000 0.49003  0.98005  0.98053  Biso   1.000  C
  C342     1.0000 0.45181  0.90361  0.91343  Biso   1.000  C
  C343     1.0000 0.41228  0.82455  0.91323  Biso   1.000  C
  C344     1.0000 0.39354  0.78707  0.88073  Biso   1.000  C
  H257     1.0000 0.38087  0.76173  0.90533  Biso   1.000  H
  O78      1.0000 0.09976  0.19953  0.21134  Biso   1.000  O
  C345     1.0000 0.15669  0.31339  0.31387  Biso   1.000  C
  C346     1.0000 0.11847  0.23695  0.24677  Biso   1.000  C
  C347     1.0000 0.07894  0.15789  0.24657  Biso   1.000  C
  C348     1.0000 0.06020  0.12041  0.21407  Biso   1.000  C
  H258     1.0000 0.04753  0.09507  0.23867  Biso   1.000  H
  O79      1.0000 0.46714  0.23357  0.54467  Biso   1.000  O
  C349     1.0000 0.35328  0.17664  0.64720  Biso   1.000  C
  C350     1.0000 0.42972  0.21486  0.58010  Biso   1.000  C
  C351     1.0000 0.50878  0.25439  0.57990  Biso   1.000  C
  C352     1.0000 0.54626  0.27313  0.54740  Biso   1.000  C
  H259     1.0000 0.57160  0.28580  0.57200  Biso   1.000  H
  O80      1.0000 0.13381  0.56690  0.87800  Biso   1.000  O
  C353     1.0000 0.01995  0.50997  0.98053  Biso   1.000  C
  C354     1.0000 0.09639  0.54819  0.91343  Biso   1.000  C
  C355     1.0000 0.17545  0.58772  0.91323  Biso   1.000  C
  C356     1.0000 0.21293  0.60646  0.88073  Biso   1.000  C
  H260     1.0000 0.23827  0.61913  0.90533  Biso   1.000  H
  O81      1.0000 0.80047  0.90024  0.21134  Biso   1.000  O
  C357     1.0000 0.68661  0.84331  0.31387  Biso   1.000  C
  C358     1.0000 0.76305  0.88153  0.24677  Biso   1.000  C
  C359     1.0000 0.84211  0.92106  0.24657  Biso   1.000  C
  C360     1.0000 0.87959  0.93980  0.21407  Biso   1.000  C
  H261     1.0000 0.90493  0.95247  0.23867  Biso   1.000  H
  O82      1.0000 0.23357  0.76643  0.45533  Biso   1.000  O
  C361     1.0000 0.17664  0.82336  0.35280  Biso   1.000  C
  C362     1.0000 0.21486  0.78514  0.41990  Biso   1.000  C
  C363     1.0000 0.25439  0.74561  0.42010  Biso   1.000  C
  C364     1.0000 0.27313  0.72687  0.45260  Biso   1.000  C
  H262     1.0000 0.28580  0.71420  0.42800  Biso   1.000  H
  O83      1.0000 0.90024  0.09976  0.78866  Biso   1.000  O
  C365     1.0000 0.84331  0.15669  0.68613  Biso   1.000  C
  C366     1.0000 0.88153  0.11847  0.75323  Biso   1.000  C
  C367     1.0000 0.92106  0.07894  0.75343  Biso   1.000  C
  C368     1.0000 0.93980  0.06020  0.78593  Biso   1.000  C
  H263     1.0000 0.95247  0.04753  0.76133  Biso   1.000  H
  O84      1.0000 0.56690  0.43310  0.12200  Biso   1.000  O
  C369     1.0000 0.50997  0.49003  0.01947  Biso   1.000  C
  C370     1.0000 0.54819  0.45181  0.08657  Biso   1.000  C
  C371     1.0000 0.58772  0.41228  0.08677  Biso   1.000  C
  C372     1.0000 0.60646  0.39354  0.11927  Biso   1.000  C
  H264     1.0000 0.61913  0.38087  0.09467  Biso   1.000  H
  O85      1.0000 0.53286  0.76643  0.45533  Biso   1.000  O
  C373     1.0000 0.64672  0.82336  0.35280  Biso   1.000  C
  C374     1.0000 0.57028  0.78514  0.41990  Biso   1.000  C
  C375     1.0000 0.49122  0.74561  0.42010  Biso   1.000  C
  C376     1.0000 0.45374  0.72687  0.45260  Biso   1.000  C
  H265     1.0000 0.42840  0.71420  0.42800  Biso   1.000  H
  O86      1.0000 0.19953  0.09976  0.78866  Biso   1.000  O
  C377     1.0000 0.31339  0.15669  0.68613  Biso   1.000  C
  C378     1.0000 0.23695  0.11847  0.75323  Biso   1.000  C
  C379     1.0000 0.15789  0.07894  0.75343  Biso   1.000  C
  C380     1.0000 0.12041  0.06020  0.78593  Biso   1.000  C
  H266     1.0000 0.09507  0.04753  0.76133  Biso   1.000  H
  O87      1.0000 0.86619  0.43310  0.12200  Biso   1.000  O
  C381     1.0000 0.98005  0.49003  0.01947  Biso   1.000  C
  C382     1.0000 0.90361  0.45181  0.08657  Biso   1.000  C
  C383     1.0000 0.82455  0.41228  0.08677  Biso   1.000  C
  C384     1.0000 0.78707  0.39354  0.11927  Biso   1.000  C
  H267     1.0000 0.76173  0.38087  0.09467  Biso   1.000  H
  O88      1.0000 0.23357  0.46714  0.45533  Biso   1.000  O
  C385     1.0000 0.17664  0.35328  0.35280  Biso   1.000  C
  C386     1.0000 0.21486  0.42972  0.41990  Biso   1.000  C
  C387     1.0000 0.25439  0.50878  0.42010  Biso   1.000  C
  C388     1.0000 0.27313  0.54626  0.45260  Biso   1.000  C
  H268     1.0000 0.28580  0.57160  0.42800  Biso   1.000  H
  O89      1.0000 0.90024  0.80047  0.78866  Biso   1.000  O
  C389     1.0000 0.84331  0.68661  0.68613  Biso   1.000  C
  C390     1.0000 0.88153  0.76305  0.75323  Biso   1.000  C
  C391     1.0000 0.92106  0.84211  0.75343  Biso   1.000  C
  C392     1.0000 0.93980  0.87959  0.78593  Biso   1.000  C
  H269     1.0000 0.95247  0.90493  0.76133  Biso   1.000  H
  O90      1.0000 0.56690  0.13381  0.12200  Biso   1.000  O
  C393     1.0000 0.50997  0.01995  0.01947  Biso   1.000  C
  C394     1.0000 0.54819  0.09639  0.08657  Biso   1.000  C
  C395     1.0000 0.58772  0.17545  0.08677  Biso   1.000  C
  C396     1.0000 0.60646  0.21293  0.11927  Biso   1.000  C
  H270     1.0000 0.61913  0.23827  0.09467  Biso   1.000  H
