data_image0
_cell_length_a       35.0659
_cell_length_b       35.0659
_cell_length_c       22.266
_cell_angle_alpha    90
_cell_angle_beta     90
_cell_angle_gamma    120

_symmetry_space_group_name_H-M    "P 1"
_symmetry_int_tables_number       1

loop_
  _symmetry_equiv_pos_as_xyz
  'x, y, z'

loop_
  _atom_site_label
  _atom_site_occupancy
  _atom_site_fract_x
  _atom_site_fract_y
  _atom_site_fract_z
  _atom_site_thermal_displace_type
  _atom_site_B_iso_or_equiv
  _atom_site_type_symbol
  O1       1.0000 0.52524  0.55354  0.43271  Biso   1.000  O
  O2       1.0000 0.51086  0.56709  0.52277  Biso   1.000  O
  C1       1.0000 0.52354  0.57761  0.47200  Biso   1.000  C
  C2       1.0000 0.53901  0.62520  0.45376  Biso   1.000  C
  C3       1.0000 0.54129  0.65520  0.49545  Biso   1.000  C
  H1       1.0000 0.53210  0.64600  0.53560  Biso   1.000  H
  C4       1.0000 0.55696  0.69880  0.47940  Biso   1.000  C
  H2       1.0000 0.55870  0.71910  0.50900  Biso   1.000  H
  C5       1.0000 0.56963  0.71280  0.42300  Biso   1.000  C
  C6       1.0000 0.56740  0.68239  0.38070  Biso   1.000  C
  H3       1.0000 0.57610  0.69140  0.34040  Biso   1.000  H
  C7       1.0000 0.55240  0.63857  0.39730  Biso   1.000  C
  H4       1.0000 0.55170  0.61830  0.36840  Biso   1.000  H
  C8       1.0000 0.58859  0.75969  0.40330  Biso   1.000  C
  C9       1.0000 0.62608  0.77939  0.36890  Biso   1.000  C
  H5       1.0000 0.63830  0.76210  0.35540  Biso   1.000  H
  H6       1.0000 0.48950  0.76760  0.39280  Biso   1.000  H
  H7       1.0000 0.45490  0.70460  0.48190  Biso   1.000  H
  O3       1.0000 0.19191  0.88687  0.76604  Biso   1.000  O
  O4       1.0000 0.17753  0.90042  0.85610  Biso   1.000  O
  C10      1.0000 0.19021  0.91094  0.80533  Biso   1.000  C
  C11      1.0000 0.20568  0.95853  0.78709  Biso   1.000  C
  C12      1.0000 0.20796  0.98853  0.82878  Biso   1.000  C
  H8       1.0000 0.19877  0.97933  0.86893  Biso   1.000  H
  C13      1.0000 0.22363  0.03213  0.81273  Biso   1.000  C
  H9       1.0000 0.22537  0.05243  0.84233  Biso   1.000  H
  C14      1.0000 0.23630  0.04613  0.75633  Biso   1.000  C
  C15      1.0000 0.23407  0.01572  0.71403  Biso   1.000  C
  H10      1.0000 0.24277  0.02473  0.67373  Biso   1.000  H
  C16      1.0000 0.21907  0.97190  0.73063  Biso   1.000  C
  H11      1.0000 0.21837  0.95163  0.70173  Biso   1.000  H
  C17      1.0000 0.25526  0.09302  0.73663  Biso   1.000  C
  C18      1.0000 0.29275  0.11272  0.70223  Biso   1.000  C
  H12      1.0000 0.30497  0.09543  0.68873  Biso   1.000  H
  H13      1.0000 0.15617  0.10093  0.72613  Biso   1.000  H
  H14      1.0000 0.12157  0.03793  0.81523  Biso   1.000  H
  O5       1.0000 0.85857  0.22021  0.09938  Biso   1.000  O
  O6       1.0000 0.84419  0.23376  0.18944  Biso   1.000  O
  C19      1.0000 0.85687  0.24428  0.13867  Biso   1.000  C
  C20      1.0000 0.87234  0.29187  0.12043  Biso   1.000  C
  C21      1.0000 0.87462  0.32187  0.16212  Biso   1.000  C
  H15      1.0000 0.86543  0.31267  0.20227  Biso   1.000  H
  C22      1.0000 0.89029  0.36547  0.14607  Biso   1.000  C
  H16      1.0000 0.89203  0.38577  0.17567  Biso   1.000  H
  C23      1.0000 0.90296  0.37947  0.08967  Biso   1.000  C
  C24      1.0000 0.90073  0.34906  0.04737  Biso   1.000  C
  H17      1.0000 0.90943  0.35807  0.00707  Biso   1.000  H
  C25      1.0000 0.88573  0.30524  0.06397  Biso   1.000  C
  H18      1.0000 0.88503  0.28497  0.03507  Biso   1.000  H
  C26      1.0000 0.92192  0.42636  0.06997  Biso   1.000  C
  C27      1.0000 0.95941  0.44606  0.03557  Biso   1.000  C
  H19      1.0000 0.97163  0.42877  0.02207  Biso   1.000  H
  H20      1.0000 0.82283  0.43427  0.05947  Biso   1.000  H
  H21      1.0000 0.78823  0.37127  0.14857  Biso   1.000  H
  O7       1.0000 0.44646  0.97170  0.43271  Biso   1.000  O
  O8       1.0000 0.43291  0.94377  0.52277  Biso   1.000  O
  C28      1.0000 0.42239  0.94593  0.47200  Biso   1.000  C
  C29      1.0000 0.37480  0.91381  0.45376  Biso   1.000  C
  C30      1.0000 0.34480  0.88609  0.49545  Biso   1.000  C
  H22      1.0000 0.35400  0.88610  0.53560  Biso   1.000  H
  C31      1.0000 0.30120  0.85816  0.47940  Biso   1.000  C
  H23      1.0000 0.28090  0.83960  0.50900  Biso   1.000  H
  C32      1.0000 0.28720  0.85683  0.42300  Biso   1.000  C
  C33      1.0000 0.31761  0.88501  0.38070  Biso   1.000  C
  H24      1.0000 0.30860  0.88470  0.34040  Biso   1.000  H
  C34      1.0000 0.36143  0.91383  0.39730  Biso   1.000  C
  H25      1.0000 0.38170  0.93340  0.36840  Biso   1.000  H
  C35      1.0000 0.24031  0.82890  0.40330  Biso   1.000  C
  C36      1.0000 0.22061  0.84669  0.36890  Biso   1.000  C
  H26      1.0000 0.23790  0.87620  0.35540  Biso   1.000  H
  H27      1.0000 0.23240  0.72190  0.39280  Biso   1.000  H
  H28      1.0000 0.29540  0.75030  0.48190  Biso   1.000  H
  O9       1.0000 0.11313  0.30503  0.76604  Biso   1.000  O
  O10      1.0000 0.09958  0.27710  0.85610  Biso   1.000  O
  C37      1.0000 0.08906  0.27926  0.80533  Biso   1.000  C
  C38      1.0000 0.04147  0.24714  0.78709  Biso   1.000  C
  C39      1.0000 0.01147  0.21942  0.82878  Biso   1.000  C
  H29      1.0000 0.02067  0.21943  0.86893  Biso   1.000  H
  C40      1.0000 0.96787  0.19149  0.81273  Biso   1.000  C
  H30      1.0000 0.94757  0.17293  0.84233  Biso   1.000  H
  C41      1.0000 0.95387  0.19016  0.75633  Biso   1.000  C
  C42      1.0000 0.98428  0.21834  0.71403  Biso   1.000  C
  H31      1.0000 0.97527  0.21803  0.67373  Biso   1.000  H
  C43      1.0000 0.02810  0.24716  0.73063  Biso   1.000  C
  H32      1.0000 0.04837  0.26673  0.70173  Biso   1.000  H
  C44      1.0000 0.90698  0.16223  0.73663  Biso   1.000  C
  C45      1.0000 0.88728  0.18002  0.70223  Biso   1.000  C
  H33      1.0000 0.90457  0.20953  0.68873  Biso   1.000  H
  H34      1.0000 0.89907  0.05523  0.72613  Biso   1.000  H
  H35      1.0000 0.96207  0.08363  0.81523  Biso   1.000  H
  O11      1.0000 0.77979  0.63837  0.09938  Biso   1.000  O
  O12      1.0000 0.76624  0.61044  0.18944  Biso   1.000  O
  C46      1.0000 0.75572  0.61260  0.13867  Biso   1.000  C
  C47      1.0000 0.70813  0.58048  0.12043  Biso   1.000  C
  C48      1.0000 0.67813  0.55276  0.16212  Biso   1.000  C
  H36      1.0000 0.68733  0.55277  0.20227  Biso   1.000  H
  C49      1.0000 0.63453  0.52483  0.14607  Biso   1.000  C
  H37      1.0000 0.61423  0.50627  0.17567  Biso   1.000  H
  C50      1.0000 0.62053  0.52350  0.08967  Biso   1.000  C
  C51      1.0000 0.65094  0.55168  0.04737  Biso   1.000  C
  H38      1.0000 0.64193  0.55137  0.00707  Biso   1.000  H
  C52      1.0000 0.69476  0.58050  0.06397  Biso   1.000  C
  H39      1.0000 0.71503  0.60007  0.03507  Biso   1.000  H
  C53      1.0000 0.57364  0.49557  0.06997  Biso   1.000  C
  C54      1.0000 0.55394  0.51336  0.03557  Biso   1.000  C
  H40      1.0000 0.57123  0.54287  0.02207  Biso   1.000  H
  H41      1.0000 0.56573  0.38857  0.05947  Biso   1.000  H
  H42      1.0000 0.62873  0.41697  0.14857  Biso   1.000  H
  O13      1.0000 0.02830  0.47476  0.43271  Biso   1.000  O
  O14      1.0000 0.05623  0.48914  0.52277  Biso   1.000  O
  C55      1.0000 0.05407  0.47646  0.47200  Biso   1.000  C
  C56      1.0000 0.08619  0.46099  0.45376  Biso   1.000  C
  C57      1.0000 0.11391  0.45871  0.49545  Biso   1.000  C
  H43      1.0000 0.11390  0.46790  0.53560  Biso   1.000  H
  C58      1.0000 0.14184  0.44304  0.47940  Biso   1.000  C
  H44      1.0000 0.16040  0.44130  0.50900  Biso   1.000  H
  C59      1.0000 0.14317  0.43037  0.42300  Biso   1.000  C
  C60      1.0000 0.11499  0.43260  0.38070  Biso   1.000  C
  H45      1.0000 0.11530  0.42390  0.34040  Biso   1.000  H
  C61      1.0000 0.08617  0.44760  0.39730  Biso   1.000  C
  H46      1.0000 0.06660  0.44830  0.36840  Biso   1.000  H
  C62      1.0000 0.17110  0.41141  0.40330  Biso   1.000  C
  C63      1.0000 0.15331  0.37392  0.36890  Biso   1.000  C
  H47      1.0000 0.12380  0.36170  0.35540  Biso   1.000  H
  H48      1.0000 0.27810  0.51050  0.39280  Biso   1.000  H
  H49      1.0000 0.24970  0.54510  0.48190  Biso   1.000  H
  O15      1.0000 0.69497  0.80809  0.76604  Biso   1.000  O
  O16      1.0000 0.72290  0.82247  0.85610  Biso   1.000  O
  C64      1.0000 0.72074  0.80979  0.80533  Biso   1.000  C
  C65      1.0000 0.75286  0.79432  0.78709  Biso   1.000  C
  C66      1.0000 0.78058  0.79204  0.82878  Biso   1.000  C
  H50      1.0000 0.78057  0.80123  0.86893  Biso   1.000  H
  C67      1.0000 0.80851  0.77637  0.81273  Biso   1.000  C
  H51      1.0000 0.82707  0.77463  0.84233  Biso   1.000  H
  C68      1.0000 0.80984  0.76370  0.75633  Biso   1.000  C
  C69      1.0000 0.78166  0.76593  0.71403  Biso   1.000  C
  H52      1.0000 0.78197  0.75723  0.67373  Biso   1.000  H
  C70      1.0000 0.75284  0.78093  0.73063  Biso   1.000  C
  H53      1.0000 0.73327  0.78163  0.70173  Biso   1.000  H
  C71      1.0000 0.83777  0.74474  0.73663  Biso   1.000  C
  C72      1.0000 0.81998  0.70725  0.70223  Biso   1.000  C
  H54      1.0000 0.79047  0.69503  0.68873  Biso   1.000  H
  H55      1.0000 0.94477  0.84383  0.72613  Biso   1.000  H
  H56      1.0000 0.91637  0.87843  0.81523  Biso   1.000  H
  O17      1.0000 0.36163  0.14143  0.09938  Biso   1.000  O
  O18      1.0000 0.38956  0.15581  0.18944  Biso   1.000  O
  C73      1.0000 0.38740  0.14313  0.13867  Biso   1.000  C
  C74      1.0000 0.41952  0.12766  0.12043  Biso   1.000  C
  C75      1.0000 0.44724  0.12538  0.16212  Biso   1.000  C
  H57      1.0000 0.44723  0.13457  0.20227  Biso   1.000  H
  C76      1.0000 0.47517  0.10971  0.14607  Biso   1.000  C
  H58      1.0000 0.49373  0.10797  0.17567  Biso   1.000  H
  C77      1.0000 0.47650  0.09704  0.08967  Biso   1.000  C
  C78      1.0000 0.44832  0.09927  0.04737  Biso   1.000  C
  H59      1.0000 0.44863  0.09057  0.00707  Biso   1.000  H
  C79      1.0000 0.41950  0.11427  0.06397  Biso   1.000  C
  H60      1.0000 0.39993  0.11497  0.03507  Biso   1.000  H
  C80      1.0000 0.50443  0.07808  0.06997  Biso   1.000  C
  C81      1.0000 0.48664  0.04059  0.03557  Biso   1.000  C
  H61      1.0000 0.45713  0.02837  0.02207  Biso   1.000  H
  H62      1.0000 0.61143  0.17717  0.05947  Biso   1.000  H
  H63      1.0000 0.58303  0.21177  0.14857  Biso   1.000  H
  O19      1.0000 0.55354  0.52524  0.56729  Biso   1.000  O
  O20      1.0000 0.56709  0.51086  0.47723  Biso   1.000  O
  C82      1.0000 0.57761  0.52354  0.52800  Biso   1.000  C
  C83      1.0000 0.62520  0.53901  0.54624  Biso   1.000  C
  C84      1.0000 0.65520  0.54129  0.50455  Biso   1.000  C
  H64      1.0000 0.64600  0.53210  0.46440  Biso   1.000  H
  C85      1.0000 0.69880  0.55696  0.52060  Biso   1.000  C
  H65      1.0000 0.71910  0.55870  0.49100  Biso   1.000  H
  C86      1.0000 0.71280  0.56963  0.57700  Biso   1.000  C
  C87      1.0000 0.68239  0.56740  0.61930  Biso   1.000  C
  H66      1.0000 0.69140  0.57610  0.65960  Biso   1.000  H
  C88      1.0000 0.63857  0.55240  0.60270  Biso   1.000  C
  H67      1.0000 0.61830  0.55170  0.63160  Biso   1.000  H
  C89      1.0000 0.75969  0.58859  0.59670  Biso   1.000  C
  C90      1.0000 0.77939  0.62608  0.63110  Biso   1.000  C
  H68      1.0000 0.76210  0.63830  0.64460  Biso   1.000  H
  H69      1.0000 0.76760  0.48950  0.60720  Biso   1.000  H
  H70      1.0000 0.70460  0.45490  0.51810  Biso   1.000  H
  O21      1.0000 0.22021  0.85857  0.90062  Biso   1.000  O
  O22      1.0000 0.23376  0.84419  0.81056  Biso   1.000  O
  C91      1.0000 0.24428  0.85687  0.86133  Biso   1.000  C
  C92      1.0000 0.29187  0.87234  0.87957  Biso   1.000  C
  C93      1.0000 0.32187  0.87462  0.83788  Biso   1.000  C
  H71      1.0000 0.31267  0.86543  0.79773  Biso   1.000  H
  C94      1.0000 0.36547  0.89029  0.85393  Biso   1.000  C
  H72      1.0000 0.38577  0.89203  0.82433  Biso   1.000  H
  C95      1.0000 0.37947  0.90296  0.91033  Biso   1.000  C
  C96      1.0000 0.34906  0.90073  0.95263  Biso   1.000  C
  H73      1.0000 0.35807  0.90943  0.99293  Biso   1.000  H
  C97      1.0000 0.30524  0.88573  0.93603  Biso   1.000  C
  H74      1.0000 0.28497  0.88503  0.96493  Biso   1.000  H
  C98      1.0000 0.42636  0.92192  0.93003  Biso   1.000  C
  C99      1.0000 0.44606  0.95941  0.96443  Biso   1.000  C
  H75      1.0000 0.42877  0.97163  0.97793  Biso   1.000  H
  H76      1.0000 0.43427  0.82283  0.94053  Biso   1.000  H
  H77      1.0000 0.37127  0.78823  0.85143  Biso   1.000  H
  O23      1.0000 0.88687  0.19191  0.23396  Biso   1.000  O
  O24      1.0000 0.90042  0.17753  0.14390  Biso   1.000  O
  C100     1.0000 0.91094  0.19021  0.19467  Biso   1.000  C
  C101     1.0000 0.95853  0.20568  0.21291  Biso   1.000  C
  C102     1.0000 0.98853  0.20796  0.17122  Biso   1.000  C
  H78      1.0000 0.97933  0.19877  0.13107  Biso   1.000  H
  C103     1.0000 0.03213  0.22363  0.18727  Biso   1.000  C
  H79      1.0000 0.05243  0.22537  0.15767  Biso   1.000  H
  C104     1.0000 0.04613  0.23630  0.24367  Biso   1.000  C
  C105     1.0000 0.01572  0.23407  0.28597  Biso   1.000  C
  H80      1.0000 0.02473  0.24277  0.32627  Biso   1.000  H
  C106     1.0000 0.97190  0.21907  0.26937  Biso   1.000  C
  H81      1.0000 0.95163  0.21837  0.29827  Biso   1.000  H
  C107     1.0000 0.09302  0.25526  0.26337  Biso   1.000  C
  C108     1.0000 0.11272  0.29275  0.29777  Biso   1.000  C
  H82      1.0000 0.09543  0.30497  0.31127  Biso   1.000  H
  H83      1.0000 0.10093  0.15617  0.27387  Biso   1.000  H
  H84      1.0000 0.03793  0.12157  0.18477  Biso   1.000  H
  O25      1.0000 0.97170  0.44646  0.56729  Biso   1.000  O
  O26      1.0000 0.94377  0.43291  0.47723  Biso   1.000  O
  C109     1.0000 0.94593  0.42239  0.52800  Biso   1.000  C
  C110     1.0000 0.91381  0.37480  0.54624  Biso   1.000  C
  C111     1.0000 0.88609  0.34480  0.50455  Biso   1.000  C
  H85      1.0000 0.88610  0.35400  0.46440  Biso   1.000  H
  C112     1.0000 0.85816  0.30120  0.52060  Biso   1.000  C
  H86      1.0000 0.83960  0.28090  0.49100  Biso   1.000  H
  C113     1.0000 0.85683  0.28720  0.57700  Biso   1.000  C
  C114     1.0000 0.88501  0.31761  0.61930  Biso   1.000  C
  H87      1.0000 0.88470  0.30860  0.65960  Biso   1.000  H
  C115     1.0000 0.91383  0.36143  0.60270  Biso   1.000  C
  H88      1.0000 0.93340  0.38170  0.63160  Biso   1.000  H
  C116     1.0000 0.82890  0.24031  0.59670  Biso   1.000  C
  C117     1.0000 0.84669  0.22061  0.63110  Biso   1.000  C
  H89      1.0000 0.87620  0.23790  0.64460  Biso   1.000  H
  H90      1.0000 0.72190  0.23240  0.60720  Biso   1.000  H
  H91      1.0000 0.75030  0.29540  0.51810  Biso   1.000  H
  O27      1.0000 0.63837  0.77979  0.90062  Biso   1.000  O
  O28      1.0000 0.61044  0.76624  0.81056  Biso   1.000  O
  C118     1.0000 0.61260  0.75572  0.86133  Biso   1.000  C
  C119     1.0000 0.58048  0.70813  0.87957  Biso   1.000  C
  C120     1.0000 0.55276  0.67813  0.83788  Biso   1.000  C
  H92      1.0000 0.55277  0.68733  0.79773  Biso   1.000  H
  C121     1.0000 0.52483  0.63453  0.85393  Biso   1.000  C
  H93      1.0000 0.50627  0.61423  0.82433  Biso   1.000  H
  C122     1.0000 0.52350  0.62053  0.91033  Biso   1.000  C
  C123     1.0000 0.55168  0.65094  0.95263  Biso   1.000  C
  H94      1.0000 0.55137  0.64193  0.99293  Biso   1.000  H
  C124     1.0000 0.58050  0.69476  0.93603  Biso   1.000  C
  H95      1.0000 0.60007  0.71503  0.96493  Biso   1.000  H
  C125     1.0000 0.49557  0.57364  0.93003  Biso   1.000  C
  C126     1.0000 0.51336  0.55394  0.96443  Biso   1.000  C
  H96      1.0000 0.54287  0.57123  0.97793  Biso   1.000  H
  H97      1.0000 0.38857  0.56573  0.94053  Biso   1.000  H
  H98      1.0000 0.41697  0.62873  0.85143  Biso   1.000  H
  O29      1.0000 0.30503  0.11313  0.23396  Biso   1.000  O
  O30      1.0000 0.27710  0.09958  0.14390  Biso   1.000  O
  C127     1.0000 0.27926  0.08906  0.19467  Biso   1.000  C
  C128     1.0000 0.24714  0.04147  0.21291  Biso   1.000  C
  C129     1.0000 0.21942  0.01147  0.17122  Biso   1.000  C
  H99      1.0000 0.21943  0.02067  0.13107  Biso   1.000  H
  C130     1.0000 0.19149  0.96787  0.18727  Biso   1.000  C
  H100     1.0000 0.17293  0.94757  0.15767  Biso   1.000  H
  C131     1.0000 0.19016  0.95387  0.24367  Biso   1.000  C
  C132     1.0000 0.21834  0.98428  0.28597  Biso   1.000  C
  H101     1.0000 0.21803  0.97527  0.32627  Biso   1.000  H
  C133     1.0000 0.24716  0.02810  0.26937  Biso   1.000  C
  H102     1.0000 0.26673  0.04837  0.29827  Biso   1.000  H
  C134     1.0000 0.16223  0.90698  0.26337  Biso   1.000  C
  C135     1.0000 0.18002  0.88728  0.29777  Biso   1.000  C
  H103     1.0000 0.20953  0.90457  0.31127  Biso   1.000  H
  H104     1.0000 0.05523  0.89907  0.27387  Biso   1.000  H
  H105     1.0000 0.08363  0.96207  0.18477  Biso   1.000  H
  O31      1.0000 0.47476  0.02830  0.56729  Biso   1.000  O
  O32      1.0000 0.48914  0.05623  0.47723  Biso   1.000  O
  C136     1.0000 0.47646  0.05407  0.52800  Biso   1.000  C
  C137     1.0000 0.46099  0.08619  0.54624  Biso   1.000  C
  C138     1.0000 0.45871  0.11391  0.50455  Biso   1.000  C
  H106     1.0000 0.46790  0.11390  0.46440  Biso   1.000  H
  C139     1.0000 0.44304  0.14184  0.52060  Biso   1.000  C
  H107     1.0000 0.44130  0.16040  0.49100  Biso   1.000  H
  C140     1.0000 0.43037  0.14317  0.57700  Biso   1.000  C
  C141     1.0000 0.43260  0.11499  0.61930  Biso   1.000  C
  H108     1.0000 0.42390  0.11530  0.65960  Biso   1.000  H
  C142     1.0000 0.44760  0.08617  0.60270  Biso   1.000  C
  H109     1.0000 0.44830  0.06660  0.63160  Biso   1.000  H
  C143     1.0000 0.41141  0.17110  0.59670  Biso   1.000  C
  C144     1.0000 0.37392  0.15331  0.63110  Biso   1.000  C
  H110     1.0000 0.36170  0.12380  0.64460  Biso   1.000  H
  H111     1.0000 0.51050  0.27810  0.60720  Biso   1.000  H
  H112     1.0000 0.54510  0.24970  0.51810  Biso   1.000  H
  O33      1.0000 0.14143  0.36163  0.90062  Biso   1.000  O
  O34      1.0000 0.15581  0.38956  0.81056  Biso   1.000  O
  C145     1.0000 0.14313  0.38740  0.86133  Biso   1.000  C
  C146     1.0000 0.12766  0.41952  0.87957  Biso   1.000  C
  C147     1.0000 0.12538  0.44724  0.83788  Biso   1.000  C
  H113     1.0000 0.13457  0.44723  0.79773  Biso   1.000  H
  C148     1.0000 0.10971  0.47517  0.85393  Biso   1.000  C
  H114     1.0000 0.10797  0.49373  0.82433  Biso   1.000  H
  C149     1.0000 0.09704  0.47650  0.91033  Biso   1.000  C
  C150     1.0000 0.09927  0.44832  0.95263  Biso   1.000  C
  H115     1.0000 0.09057  0.44863  0.99293  Biso   1.000  H
  C151     1.0000 0.11427  0.41950  0.93603  Biso   1.000  C
  H116     1.0000 0.11497  0.39993  0.96493  Biso   1.000  H
  C152     1.0000 0.07808  0.50443  0.93003  Biso   1.000  C
  C153     1.0000 0.04059  0.48664  0.96443  Biso   1.000  C
  H117     1.0000 0.02837  0.45713  0.97793  Biso   1.000  H
  H118     1.0000 0.17717  0.61143  0.94053  Biso   1.000  H
  H119     1.0000 0.21177  0.58303  0.85143  Biso   1.000  H
  O35      1.0000 0.80809  0.69497  0.23396  Biso   1.000  O
  O36      1.0000 0.82247  0.72290  0.14390  Biso   1.000  O
  C154     1.0000 0.80979  0.72074  0.19467  Biso   1.000  C
  C155     1.0000 0.79432  0.75286  0.21291  Biso   1.000  C
  C156     1.0000 0.79204  0.78058  0.17122  Biso   1.000  C
  H120     1.0000 0.80123  0.78057  0.13107  Biso   1.000  H
  C157     1.0000 0.77637  0.80851  0.18727  Biso   1.000  C
  H121     1.0000 0.77463  0.82707  0.15767  Biso   1.000  H
  C158     1.0000 0.76370  0.80984  0.24367  Biso   1.000  C
  C159     1.0000 0.76593  0.78166  0.28597  Biso   1.000  C
  H122     1.0000 0.75723  0.78197  0.32627  Biso   1.000  H
  C160     1.0000 0.78093  0.75284  0.26937  Biso   1.000  C
  H123     1.0000 0.78163  0.73327  0.29827  Biso   1.000  H
  C161     1.0000 0.74474  0.83777  0.26337  Biso   1.000  C
  C162     1.0000 0.70725  0.81998  0.29777  Biso   1.000  C
  H124     1.0000 0.69503  0.79047  0.31127  Biso   1.000  H
  H125     1.0000 0.84383  0.94477  0.27387  Biso   1.000  H
  H126     1.0000 0.87843  0.91637  0.18477  Biso   1.000  H
  O37      1.0000 0.47476  0.44646  0.56729  Biso   1.000  O
  O38      1.0000 0.48914  0.43291  0.47723  Biso   1.000  O
  C163     1.0000 0.47646  0.42239  0.52800  Biso   1.000  C
  C164     1.0000 0.46099  0.37480  0.54624  Biso   1.000  C
  C165     1.0000 0.45871  0.34480  0.50455  Biso   1.000  C
  H127     1.0000 0.46790  0.35400  0.46440  Biso   1.000  H
  C166     1.0000 0.44304  0.30120  0.52060  Biso   1.000  C
  H128     1.0000 0.44130  0.28090  0.49100  Biso   1.000  H
  C167     1.0000 0.43037  0.28720  0.57700  Biso   1.000  C
  C168     1.0000 0.43260  0.31761  0.61930  Biso   1.000  C
  H129     1.0000 0.42390  0.30860  0.65960  Biso   1.000  H
  C169     1.0000 0.44760  0.36143  0.60270  Biso   1.000  C
  H130     1.0000 0.44830  0.38170  0.63160  Biso   1.000  H
  C170     1.0000 0.41141  0.24031  0.59670  Biso   1.000  C
  C171     1.0000 0.37392  0.22061  0.63110  Biso   1.000  C
  H131     1.0000 0.36170  0.23790  0.64460  Biso   1.000  H
  H132     1.0000 0.51050  0.23240  0.60720  Biso   1.000  H
  H133     1.0000 0.54510  0.29540  0.51810  Biso   1.000  H
  O39      1.0000 0.14143  0.77979  0.90062  Biso   1.000  O
  O40      1.0000 0.15581  0.76624  0.81056  Biso   1.000  O
  C172     1.0000 0.14313  0.75572  0.86133  Biso   1.000  C
  C173     1.0000 0.12766  0.70813  0.87957  Biso   1.000  C
  C174     1.0000 0.12538  0.67813  0.83788  Biso   1.000  C
  H134     1.0000 0.13457  0.68733  0.79773  Biso   1.000  H
  C175     1.0000 0.10971  0.63453  0.85393  Biso   1.000  C
  H135     1.0000 0.10797  0.61423  0.82433  Biso   1.000  H
  C176     1.0000 0.09704  0.62053  0.91033  Biso   1.000  C
  C177     1.0000 0.09927  0.65094  0.95263  Biso   1.000  C
  H136     1.0000 0.09057  0.64193  0.99293  Biso   1.000  H
  C178     1.0000 0.11427  0.69476  0.93603  Biso   1.000  C
  H137     1.0000 0.11497  0.71503  0.96493  Biso   1.000  H
  C179     1.0000 0.07808  0.57364  0.93003  Biso   1.000  C
  C180     1.0000 0.04059  0.55394  0.96443  Biso   1.000  C
  H138     1.0000 0.02837  0.57123  0.97793  Biso   1.000  H
  H139     1.0000 0.17717  0.56573  0.94053  Biso   1.000  H
  H140     1.0000 0.21177  0.62873  0.85143  Biso   1.000  H
  O41      1.0000 0.80809  0.11313  0.23396  Biso   1.000  O
  O42      1.0000 0.82247  0.09958  0.14390  Biso   1.000  O
  C181     1.0000 0.80979  0.08906  0.19467  Biso   1.000  C
  C182     1.0000 0.79432  0.04147  0.21291  Biso   1.000  C
  C183     1.0000 0.79204  0.01147  0.17122  Biso   1.000  C
  H141     1.0000 0.80123  0.02067  0.13107  Biso   1.000  H
  C184     1.0000 0.77637  0.96787  0.18727  Biso   1.000  C
  H142     1.0000 0.77463  0.94757  0.15767  Biso   1.000  H
  C185     1.0000 0.76370  0.95387  0.24367  Biso   1.000  C
  C186     1.0000 0.76593  0.98428  0.28597  Biso   1.000  C
  H143     1.0000 0.75723  0.97527  0.32627  Biso   1.000  H
  C187     1.0000 0.78093  0.02810  0.26937  Biso   1.000  C
  H144     1.0000 0.78163  0.04837  0.29827  Biso   1.000  H
  C188     1.0000 0.74474  0.90698  0.26337  Biso   1.000  C
  C189     1.0000 0.70725  0.88728  0.29777  Biso   1.000  C
  H145     1.0000 0.69503  0.90457  0.31127  Biso   1.000  H
  H146     1.0000 0.84383  0.89907  0.27387  Biso   1.000  H
  H147     1.0000 0.87843  0.96207  0.18477  Biso   1.000  H
  O43      1.0000 0.55354  0.02830  0.56729  Biso   1.000  O
  O44      1.0000 0.56709  0.05623  0.47723  Biso   1.000  O
  C190     1.0000 0.57761  0.05407  0.52800  Biso   1.000  C
  C191     1.0000 0.62520  0.08619  0.54624  Biso   1.000  C
  C192     1.0000 0.65520  0.11391  0.50455  Biso   1.000  C
  H148     1.0000 0.64600  0.11390  0.46440  Biso   1.000  H
  C193     1.0000 0.69880  0.14184  0.52060  Biso   1.000  C
  H149     1.0000 0.71910  0.16040  0.49100  Biso   1.000  H
  C194     1.0000 0.71280  0.14317  0.57700  Biso   1.000  C
  C195     1.0000 0.68239  0.11499  0.61930  Biso   1.000  C
  H150     1.0000 0.69140  0.11530  0.65960  Biso   1.000  H
  C196     1.0000 0.63857  0.08617  0.60270  Biso   1.000  C
  H151     1.0000 0.61830  0.06660  0.63160  Biso   1.000  H
  C197     1.0000 0.75969  0.17110  0.59670  Biso   1.000  C
  C198     1.0000 0.77939  0.15331  0.63110  Biso   1.000  C
  H152     1.0000 0.76210  0.12380  0.64460  Biso   1.000  H
  H153     1.0000 0.76760  0.27810  0.60720  Biso   1.000  H
  H154     1.0000 0.70460  0.24970  0.51810  Biso   1.000  H
  O45      1.0000 0.22021  0.36163  0.90062  Biso   1.000  O
  O46      1.0000 0.23376  0.38956  0.81056  Biso   1.000  O
  C199     1.0000 0.24428  0.38740  0.86133  Biso   1.000  C
  C200     1.0000 0.29187  0.41952  0.87957  Biso   1.000  C
  C201     1.0000 0.32187  0.44724  0.83788  Biso   1.000  C
  H155     1.0000 0.31267  0.44723  0.79773  Biso   1.000  H
  C202     1.0000 0.36547  0.47517  0.85393  Biso   1.000  C
  H156     1.0000 0.38577  0.49373  0.82433  Biso   1.000  H
  C203     1.0000 0.37947  0.47650  0.91033  Biso   1.000  C
  C204     1.0000 0.34906  0.44832  0.95263  Biso   1.000  C
  H157     1.0000 0.35807  0.44863  0.99293  Biso   1.000  H
  C205     1.0000 0.30524  0.41950  0.93603  Biso   1.000  C
  H158     1.0000 0.28497  0.39993  0.96493  Biso   1.000  H
  C206     1.0000 0.42636  0.50443  0.93003  Biso   1.000  C
  C207     1.0000 0.44606  0.48664  0.96443  Biso   1.000  C
  H159     1.0000 0.42877  0.45713  0.97793  Biso   1.000  H
  H160     1.0000 0.43427  0.61143  0.94053  Biso   1.000  H
  H161     1.0000 0.37127  0.58303  0.85143  Biso   1.000  H
  O47      1.0000 0.88687  0.69497  0.23396  Biso   1.000  O
  O48      1.0000 0.90042  0.72290  0.14390  Biso   1.000  O
  C208     1.0000 0.91094  0.72074  0.19467  Biso   1.000  C
  C209     1.0000 0.95853  0.75286  0.21291  Biso   1.000  C
  C210     1.0000 0.98853  0.78058  0.17122  Biso   1.000  C
  H162     1.0000 0.97933  0.78057  0.13107  Biso   1.000  H
  C211     1.0000 0.03213  0.80851  0.18727  Biso   1.000  C
  H163     1.0000 0.05243  0.82707  0.15767  Biso   1.000  H
  C212     1.0000 0.04613  0.80984  0.24367  Biso   1.000  C
  C213     1.0000 0.01572  0.78166  0.28597  Biso   1.000  C
  H164     1.0000 0.02473  0.78197  0.32627  Biso   1.000  H
  C214     1.0000 0.97190  0.75284  0.26937  Biso   1.000  C
  H165     1.0000 0.95163  0.73327  0.29827  Biso   1.000  H
  C215     1.0000 0.09302  0.83777  0.26337  Biso   1.000  C
  C216     1.0000 0.11272  0.81998  0.29777  Biso   1.000  C
  H166     1.0000 0.09543  0.79047  0.31127  Biso   1.000  H
  H167     1.0000 0.10093  0.94477  0.27387  Biso   1.000  H
  H168     1.0000 0.03793  0.91637  0.18477  Biso   1.000  H
  O49      1.0000 0.97170  0.52524  0.56729  Biso   1.000  O
  O50      1.0000 0.94377  0.51086  0.47723  Biso   1.000  O
  C217     1.0000 0.94593  0.52354  0.52800  Biso   1.000  C
  C218     1.0000 0.91381  0.53901  0.54624  Biso   1.000  C
  C219     1.0000 0.88609  0.54129  0.50455  Biso   1.000  C
  H169     1.0000 0.88610  0.53210  0.46440  Biso   1.000  H
  C220     1.0000 0.85816  0.55696  0.52060  Biso   1.000  C
  H170     1.0000 0.83960  0.55870  0.49100  Biso   1.000  H
  C221     1.0000 0.85683  0.56963  0.57700  Biso   1.000  C
  C222     1.0000 0.88501  0.56740  0.61930  Biso   1.000  C
  H171     1.0000 0.88470  0.57610  0.65960  Biso   1.000  H
  C223     1.0000 0.91383  0.55240  0.60270  Biso   1.000  C
  H172     1.0000 0.93340  0.55170  0.63160  Biso   1.000  H
  C224     1.0000 0.82890  0.58859  0.59670  Biso   1.000  C
  C225     1.0000 0.84669  0.62608  0.63110  Biso   1.000  C
  H173     1.0000 0.87620  0.63830  0.64460  Biso   1.000  H
  H174     1.0000 0.72190  0.48950  0.60720  Biso   1.000  H
  H175     1.0000 0.75030  0.45490  0.51810  Biso   1.000  H
  O51      1.0000 0.63837  0.85857  0.90062  Biso   1.000  O
  O52      1.0000 0.61044  0.84419  0.81056  Biso   1.000  O
  C226     1.0000 0.61260  0.85687  0.86133  Biso   1.000  C
  C227     1.0000 0.58048  0.87234  0.87957  Biso   1.000  C
  C228     1.0000 0.55276  0.87462  0.83788  Biso   1.000  C
  H176     1.0000 0.55277  0.86543  0.79773  Biso   1.000  H
  C229     1.0000 0.52483  0.89029  0.85393  Biso   1.000  C
  H177     1.0000 0.50627  0.89203  0.82433  Biso   1.000  H
  C230     1.0000 0.52350  0.90296  0.91033  Biso   1.000  C
  C231     1.0000 0.55168  0.90073  0.95263  Biso   1.000  C
  H178     1.0000 0.55137  0.90943  0.99293  Biso   1.000  H
  C232     1.0000 0.58050  0.88573  0.93603  Biso   1.000  C
  H179     1.0000 0.60007  0.88503  0.96493  Biso   1.000  H
  C233     1.0000 0.49557  0.92192  0.93003  Biso   1.000  C
  C234     1.0000 0.51336  0.95941  0.96443  Biso   1.000  C
  H180     1.0000 0.54287  0.97163  0.97793  Biso   1.000  H
  H181     1.0000 0.38857  0.82283  0.94053  Biso   1.000  H
  H182     1.0000 0.41697  0.78823  0.85143  Biso   1.000  H
  O53      1.0000 0.30503  0.19191  0.23396  Biso   1.000  O
  O54      1.0000 0.27710  0.17753  0.14390  Biso   1.000  O
  C235     1.0000 0.27926  0.19021  0.19467  Biso   1.000  C
  C236     1.0000 0.24714  0.20568  0.21291  Biso   1.000  C
  C237     1.0000 0.21942  0.20796  0.17122  Biso   1.000  C
  H183     1.0000 0.21943  0.19877  0.13107  Biso   1.000  H
  C238     1.0000 0.19149  0.22363  0.18727  Biso   1.000  C
  H184     1.0000 0.17293  0.22537  0.15767  Biso   1.000  H
  C239     1.0000 0.19016  0.23630  0.24367  Biso   1.000  C
  C240     1.0000 0.21834  0.23407  0.28597  Biso   1.000  C
  H185     1.0000 0.21803  0.24277  0.32627  Biso   1.000  H
  C241     1.0000 0.24716  0.21907  0.26937  Biso   1.000  C
  H186     1.0000 0.26673  0.21837  0.29827  Biso   1.000  H
  C242     1.0000 0.16223  0.25526  0.26337  Biso   1.000  C
  C243     1.0000 0.18002  0.29275  0.29777  Biso   1.000  C
  H187     1.0000 0.20953  0.30497  0.31127  Biso   1.000  H
  H188     1.0000 0.05523  0.15617  0.27387  Biso   1.000  H
  H189     1.0000 0.08363  0.12157  0.18477  Biso   1.000  H
  O55      1.0000 0.44646  0.47476  0.43271  Biso   1.000  O
  O56      1.0000 0.43291  0.48914  0.52277  Biso   1.000  O
  C244     1.0000 0.42239  0.47646  0.47200  Biso   1.000  C
  C245     1.0000 0.37480  0.46099  0.45376  Biso   1.000  C
  C246     1.0000 0.34480  0.45871  0.49545  Biso   1.000  C
  H190     1.0000 0.35400  0.46790  0.53560  Biso   1.000  H
  C247     1.0000 0.30120  0.44304  0.47940  Biso   1.000  C
  H191     1.0000 0.28090  0.44130  0.50900  Biso   1.000  H
  C248     1.0000 0.28720  0.43037  0.42300  Biso   1.000  C
  C249     1.0000 0.31761  0.43260  0.38070  Biso   1.000  C
  H192     1.0000 0.30860  0.42390  0.34040  Biso   1.000  H
  C250     1.0000 0.36143  0.44760  0.39730  Biso   1.000  C
  H193     1.0000 0.38170  0.44830  0.36840  Biso   1.000  H
  C251     1.0000 0.24031  0.41141  0.40330  Biso   1.000  C
  C252     1.0000 0.22061  0.37392  0.36890  Biso   1.000  C
  H194     1.0000 0.23790  0.36170  0.35540  Biso   1.000  H
  H195     1.0000 0.23240  0.51050  0.39280  Biso   1.000  H
  H196     1.0000 0.29540  0.54510  0.48190  Biso   1.000  H
  O57      1.0000 0.11313  0.80809  0.76604  Biso   1.000  O
  O58      1.0000 0.09958  0.82247  0.85610  Biso   1.000  O
  C253     1.0000 0.08906  0.80979  0.80533  Biso   1.000  C
  C254     1.0000 0.04147  0.79432  0.78709  Biso   1.000  C
  C255     1.0000 0.01147  0.79204  0.82878  Biso   1.000  C
  H197     1.0000 0.02067  0.80123  0.86893  Biso   1.000  H
  C256     1.0000 0.96787  0.77637  0.81273  Biso   1.000  C
  H198     1.0000 0.94757  0.77463  0.84233  Biso   1.000  H
  C257     1.0000 0.95387  0.76370  0.75633  Biso   1.000  C
  C258     1.0000 0.98428  0.76593  0.71403  Biso   1.000  C
  H199     1.0000 0.97527  0.75723  0.67373  Biso   1.000  H
  C259     1.0000 0.02810  0.78093  0.73063  Biso   1.000  C
  H200     1.0000 0.04837  0.78163  0.70173  Biso   1.000  H
  C260     1.0000 0.90698  0.74474  0.73663  Biso   1.000  C
  C261     1.0000 0.88728  0.70725  0.70223  Biso   1.000  C
  H201     1.0000 0.90457  0.69503  0.68873  Biso   1.000  H
  H202     1.0000 0.89907  0.84383  0.72613  Biso   1.000  H
  H203     1.0000 0.96207  0.87843  0.81523  Biso   1.000  H
  O59      1.0000 0.77979  0.14143  0.09938  Biso   1.000  O
  O60      1.0000 0.76624  0.15581  0.18944  Biso   1.000  O
  C262     1.0000 0.75572  0.14313  0.13867  Biso   1.000  C
  C263     1.0000 0.70813  0.12766  0.12043  Biso   1.000  C
  C264     1.0000 0.67813  0.12538  0.16212  Biso   1.000  C
  H204     1.0000 0.68733  0.13457  0.20227  Biso   1.000  H
  C265     1.0000 0.63453  0.10971  0.14607  Biso   1.000  C
  H205     1.0000 0.61423  0.10797  0.17567  Biso   1.000  H
  C266     1.0000 0.62053  0.09704  0.08967  Biso   1.000  C
  C267     1.0000 0.65094  0.09927  0.04737  Biso   1.000  C
  H206     1.0000 0.64193  0.09057  0.00707  Biso   1.000  H
  C268     1.0000 0.69476  0.11427  0.06397  Biso   1.000  C
  H207     1.0000 0.71503  0.11497  0.03507  Biso   1.000  H
  C269     1.0000 0.57364  0.07808  0.06997  Biso   1.000  C
  C270     1.0000 0.55394  0.04059  0.03557  Biso   1.000  C
  H208     1.0000 0.57123  0.02837  0.02207  Biso   1.000  H
  H209     1.0000 0.56573  0.17717  0.05947  Biso   1.000  H
  H210     1.0000 0.62873  0.21177  0.14857  Biso   1.000  H
  O61      1.0000 0.02830  0.55354  0.43271  Biso   1.000  O
  O62      1.0000 0.05623  0.56709  0.52277  Biso   1.000  O
  C271     1.0000 0.05407  0.57761  0.47200  Biso   1.000  C
  C272     1.0000 0.08619  0.62520  0.45376  Biso   1.000  C
  C273     1.0000 0.11391  0.65520  0.49545  Biso   1.000  C
  H211     1.0000 0.11390  0.64600  0.53560  Biso   1.000  H
  C274     1.0000 0.14184  0.69880  0.47940  Biso   1.000  C
  H212     1.0000 0.16040  0.71910  0.50900  Biso   1.000  H
  C275     1.0000 0.14317  0.71280  0.42300  Biso   1.000  C
  C276     1.0000 0.11499  0.68239  0.38070  Biso   1.000  C
  H213     1.0000 0.11530  0.69140  0.34040  Biso   1.000  H
  C277     1.0000 0.08617  0.63857  0.39730  Biso   1.000  C
  H214     1.0000 0.06660  0.61830  0.36840  Biso   1.000  H
  C278     1.0000 0.17110  0.75969  0.40330  Biso   1.000  C
  C279     1.0000 0.15331  0.77939  0.36890  Biso   1.000  C
  H215     1.0000 0.12380  0.76210  0.35540  Biso   1.000  H
  H216     1.0000 0.27810  0.76760  0.39280  Biso   1.000  H
  H217     1.0000 0.24970  0.70460  0.48190  Biso   1.000  H
  O63      1.0000 0.69497  0.88687  0.76604  Biso   1.000  O
  O64      1.0000 0.72290  0.90042  0.85610  Biso   1.000  O
  C280     1.0000 0.72074  0.91094  0.80533  Biso   1.000  C
  C281     1.0000 0.75286  0.95853  0.78709  Biso   1.000  C
  C282     1.0000 0.78058  0.98853  0.82878  Biso   1.000  C
  H218     1.0000 0.78057  0.97933  0.86893  Biso   1.000  H
  C283     1.0000 0.80851  0.03213  0.81273  Biso   1.000  C
  H219     1.0000 0.82707  0.05243  0.84233  Biso   1.000  H
  C284     1.0000 0.80984  0.04613  0.75633  Biso   1.000  C
  C285     1.0000 0.78166  0.01572  0.71403  Biso   1.000  C
  H220     1.0000 0.78197  0.02473  0.67373  Biso   1.000  H
  C286     1.0000 0.75284  0.97190  0.73063  Biso   1.000  C
  H221     1.0000 0.73327  0.95163  0.70173  Biso   1.000  H
  C287     1.0000 0.83777  0.09302  0.73663  Biso   1.000  C
  C288     1.0000 0.81998  0.11272  0.70223  Biso   1.000  C
  H222     1.0000 0.79047  0.09543  0.68873  Biso   1.000  H
  H223     1.0000 0.94477  0.10093  0.72613  Biso   1.000  H
  H224     1.0000 0.91637  0.03793  0.81523  Biso   1.000  H
  O65      1.0000 0.36163  0.22021  0.09938  Biso   1.000  O
  O66      1.0000 0.38956  0.23376  0.18944  Biso   1.000  O
  C289     1.0000 0.38740  0.24428  0.13867  Biso   1.000  C
  C290     1.0000 0.41952  0.29187  0.12043  Biso   1.000  C
  C291     1.0000 0.44724  0.32187  0.16212  Biso   1.000  C
  H225     1.0000 0.44723  0.31267  0.20227  Biso   1.000  H
  C292     1.0000 0.47517  0.36547  0.14607  Biso   1.000  C
  H226     1.0000 0.49373  0.38577  0.17567  Biso   1.000  H
  C293     1.0000 0.47650  0.37947  0.08967  Biso   1.000  C
  C294     1.0000 0.44832  0.34906  0.04737  Biso   1.000  C
  H227     1.0000 0.44863  0.35807  0.00707  Biso   1.000  H
  C295     1.0000 0.41950  0.30524  0.06397  Biso   1.000  C
  H228     1.0000 0.39993  0.28497  0.03507  Biso   1.000  H
  C296     1.0000 0.50443  0.42636  0.06997  Biso   1.000  C
  C297     1.0000 0.48664  0.44606  0.03557  Biso   1.000  C
  H229     1.0000 0.45713  0.42877  0.02207  Biso   1.000  H
  H230     1.0000 0.61143  0.43427  0.05947  Biso   1.000  H
  H231     1.0000 0.58303  0.37127  0.14857  Biso   1.000  H
  O67      1.0000 0.52524  0.97170  0.43271  Biso   1.000  O
  O68      1.0000 0.51086  0.94377  0.52277  Biso   1.000  O
  C298     1.0000 0.52354  0.94593  0.47200  Biso   1.000  C
  C299     1.0000 0.53901  0.91381  0.45376  Biso   1.000  C
  C300     1.0000 0.54129  0.88609  0.49545  Biso   1.000  C
  H232     1.0000 0.53210  0.88610  0.53560  Biso   1.000  H
  C301     1.0000 0.55696  0.85816  0.47940  Biso   1.000  C
  H233     1.0000 0.55870  0.83960  0.50900  Biso   1.000  H
  C302     1.0000 0.56963  0.85683  0.42300  Biso   1.000  C
  C303     1.0000 0.56740  0.88501  0.38070  Biso   1.000  C
  H234     1.0000 0.57610  0.88470  0.34040  Biso   1.000  H
  C304     1.0000 0.55240  0.91383  0.39730  Biso   1.000  C
  H235     1.0000 0.55170  0.93340  0.36840  Biso   1.000  H
  C305     1.0000 0.58859  0.82890  0.40330  Biso   1.000  C
  C306     1.0000 0.62608  0.84669  0.36890  Biso   1.000  C
  H236     1.0000 0.63830  0.87620  0.35540  Biso   1.000  H
  H237     1.0000 0.48950  0.72190  0.39280  Biso   1.000  H
  H238     1.0000 0.45490  0.75030  0.48190  Biso   1.000  H
  O69      1.0000 0.19191  0.30503  0.76604  Biso   1.000  O
  O70      1.0000 0.17753  0.27710  0.85610  Biso   1.000  O
  C307     1.0000 0.19021  0.27926  0.80533  Biso   1.000  C
  C308     1.0000 0.20568  0.24714  0.78709  Biso   1.000  C
  C309     1.0000 0.20796  0.21942  0.82878  Biso   1.000  C
  H239     1.0000 0.19877  0.21943  0.86893  Biso   1.000  H
  C310     1.0000 0.22363  0.19149  0.81273  Biso   1.000  C
  H240     1.0000 0.22537  0.17293  0.84233  Biso   1.000  H
  C311     1.0000 0.23630  0.19016  0.75633  Biso   1.000  C
  C312     1.0000 0.23407  0.21834  0.71403  Biso   1.000  C
  H241     1.0000 0.24277  0.21803  0.67373  Biso   1.000  H
  C313     1.0000 0.21907  0.24716  0.73063  Biso   1.000  C
  H242     1.0000 0.21837  0.26673  0.70173  Biso   1.000  H
  C314     1.0000 0.25526  0.16223  0.73663  Biso   1.000  C
  C315     1.0000 0.29275  0.18002  0.70223  Biso   1.000  C
  H243     1.0000 0.30497  0.20953  0.68873  Biso   1.000  H
  H244     1.0000 0.15617  0.05523  0.72613  Biso   1.000  H
  H245     1.0000 0.12157  0.08363  0.81523  Biso   1.000  H
  O71      1.0000 0.85857  0.63837  0.09938  Biso   1.000  O
  O72      1.0000 0.84419  0.61044  0.18944  Biso   1.000  O
  C316     1.0000 0.85687  0.61260  0.13867  Biso   1.000  C
  C317     1.0000 0.87234  0.58048  0.12043  Biso   1.000  C
  C318     1.0000 0.87462  0.55276  0.16212  Biso   1.000  C
  H246     1.0000 0.86543  0.55277  0.20227  Biso   1.000  H
  C319     1.0000 0.89029  0.52483  0.14607  Biso   1.000  C
  H247     1.0000 0.89203  0.50627  0.17567  Biso   1.000  H
  C320     1.0000 0.90296  0.52350  0.08967  Biso   1.000  C
  C321     1.0000 0.90073  0.55168  0.04737  Biso   1.000  C
  H248     1.0000 0.90943  0.55137  0.00707  Biso   1.000  H
  C322     1.0000 0.88573  0.58050  0.06397  Biso   1.000  C
  H249     1.0000 0.88503  0.60007  0.03507  Biso   1.000  H
  C323     1.0000 0.92192  0.49557  0.06997  Biso   1.000  C
  C324     1.0000 0.95941  0.51336  0.03557  Biso   1.000  C
  H250     1.0000 0.97163  0.54287  0.02207  Biso   1.000  H
  H251     1.0000 0.82283  0.38857  0.05947  Biso   1.000  H
  H252     1.0000 0.78823  0.41697  0.14857  Biso   1.000  H
  Cu1      1.0000 0.49196  0.50804  0.55347  Biso   1.000  Cu
  Cu2      1.0000 0.15863  0.84137  0.88680  Biso   1.000  Cu
  Cu3      1.0000 0.82529  0.17471  0.22014  Biso   1.000  Cu
  Cu4      1.0000 0.49196  0.98392  0.55347  Biso   1.000  Cu
  Cu5      1.0000 0.15863  0.31725  0.88680  Biso   1.000  Cu
  Cu6      1.0000 0.82529  0.65059  0.22014  Biso   1.000  Cu
  Cu7      1.0000 0.01608  0.50804  0.55347  Biso   1.000  Cu
  Cu8      1.0000 0.68275  0.84137  0.88680  Biso   1.000  Cu
  Cu9      1.0000 0.34941  0.17471  0.22014  Biso   1.000  Cu
  Cu10     1.0000 0.50804  0.49196  0.44653  Biso   1.000  Cu
  Cu11     1.0000 0.17471  0.82529  0.77986  Biso   1.000  Cu
  Cu12     1.0000 0.84137  0.15863  0.11320  Biso   1.000  Cu
  Cu13     1.0000 0.98392  0.49196  0.44653  Biso   1.000  Cu
  Cu14     1.0000 0.65059  0.82529  0.77986  Biso   1.000  Cu
  Cu15     1.0000 0.31725  0.15863  0.11320  Biso   1.000  Cu
  Cu16     1.0000 0.50804  0.01608  0.44653  Biso   1.000  Cu
  Cu17     1.0000 0.17471  0.34941  0.77986  Biso   1.000  Cu
  Cu18     1.0000 0.84137  0.68275  0.11320  Biso   1.000  Cu
  O73      1.0000 0.53167  0.76584  0.45520  Biso   1.000  O
  C325     1.0000 0.64665  0.82333  0.35320  Biso   1.000  C
  C326     1.0000 0.56922  0.78461  0.42140  Biso   1.000  C
  C327     1.0000 0.49030  0.74515  0.41880  Biso   1.000  C
  C328     1.0000 0.45420  0.72710  0.45650  Biso   1.000  C
  H253     1.0000 0.42720  0.71360  0.43240  Biso   1.000  H
  O74      1.0000 0.19834  0.09917  0.78853  Biso   1.000  O
  C329     1.0000 0.31332  0.15666  0.68653  Biso   1.000  C
  C330     1.0000 0.23589  0.11794  0.75473  Biso   1.000  C
  C331     1.0000 0.15697  0.07848  0.75213  Biso   1.000  C
  C332     1.0000 0.12087  0.06043  0.78983  Biso   1.000  C
  H254     1.0000 0.09387  0.04693  0.76573  Biso   1.000  H
  O75      1.0000 0.86500  0.43250  0.12187  Biso   1.000  O
  C333     1.0000 0.97998  0.48999  0.01987  Biso   1.000  C
  C334     1.0000 0.90255  0.45128  0.08807  Biso   1.000  C
  C335     1.0000 0.82363  0.41182  0.08547  Biso   1.000  C
  C336     1.0000 0.78753  0.39377  0.12317  Biso   1.000  C
  H255     1.0000 0.76053  0.38027  0.09907  Biso   1.000  H
  O76      1.0000 0.23416  0.76584  0.45520  Biso   1.000  O
  C337     1.0000 0.17667  0.82333  0.35320  Biso   1.000  C
  C338     1.0000 0.21539  0.78461  0.42140  Biso   1.000  C
  C339     1.0000 0.25485  0.74515  0.41880  Biso   1.000  C
  C340     1.0000 0.27290  0.72710  0.45650  Biso   1.000  C
  H256     1.0000 0.28640  0.71360  0.43240  Biso   1.000  H
  O77      1.0000 0.90083  0.09917  0.78853  Biso   1.000  O
  C341     1.0000 0.84334  0.15666  0.68653  Biso   1.000  C
  C342     1.0000 0.88206  0.11794  0.75473  Biso   1.000  C
  C343     1.0000 0.92152  0.07848  0.75213  Biso   1.000  C
  C344     1.0000 0.93957  0.06043  0.78983  Biso   1.000  C
  H257     1.0000 0.95307  0.04693  0.76573  Biso   1.000  H
  O78      1.0000 0.56750  0.43250  0.12187  Biso   1.000  O
  C345     1.0000 0.51001  0.48999  0.01987  Biso   1.000  C
  C346     1.0000 0.54872  0.45128  0.08807  Biso   1.000  C
  C347     1.0000 0.58818  0.41182  0.08547  Biso   1.000  C
  C348     1.0000 0.60623  0.39377  0.12317  Biso   1.000  C
  H258     1.0000 0.61973  0.38027  0.09907  Biso   1.000  H
  O79      1.0000 0.23416  0.46833  0.45520  Biso   1.000  O
  C349     1.0000 0.17667  0.35335  0.35320  Biso   1.000  C
  C350     1.0000 0.21539  0.43078  0.42140  Biso   1.000  C
  C351     1.0000 0.25485  0.50970  0.41880  Biso   1.000  C
  C352     1.0000 0.27290  0.54580  0.45650  Biso   1.000  C
  H259     1.0000 0.28640  0.57280  0.43240  Biso   1.000  H
  O80      1.0000 0.90083  0.80166  0.78853  Biso   1.000  O
  C353     1.0000 0.84334  0.68668  0.68653  Biso   1.000  C
  C354     1.0000 0.88206  0.76411  0.75473  Biso   1.000  C
  C355     1.0000 0.92152  0.84303  0.75213  Biso   1.000  C
  C356     1.0000 0.93957  0.87913  0.78983  Biso   1.000  C
  H260     1.0000 0.95307  0.90613  0.76573  Biso   1.000  H
  O81      1.0000 0.56750  0.13500  0.12187  Biso   1.000  O
  C357     1.0000 0.51001  0.02002  0.01987  Biso   1.000  C
  C358     1.0000 0.54872  0.09745  0.08807  Biso   1.000  C
  C359     1.0000 0.58818  0.17637  0.08547  Biso   1.000  C
  C360     1.0000 0.60623  0.21247  0.12317  Biso   1.000  C
  H261     1.0000 0.61973  0.23947  0.09907  Biso   1.000  H
  O82      1.0000 0.76584  0.53167  0.54480  Biso   1.000  O
  C361     1.0000 0.82333  0.64665  0.64680  Biso   1.000  C
  C362     1.0000 0.78461  0.56922  0.57860  Biso   1.000  C
  C363     1.0000 0.74515  0.49030  0.58120  Biso   1.000  C
  C364     1.0000 0.72710  0.45420  0.54350  Biso   1.000  C
  H262     1.0000 0.71360  0.42720  0.56760  Biso   1.000  H
  O83      1.0000 0.43250  0.86500  0.87813  Biso   1.000  O
  C365     1.0000 0.48999  0.97998  0.98013  Biso   1.000  C
  C366     1.0000 0.45128  0.90255  0.91193  Biso   1.000  C
  C367     1.0000 0.41182  0.82363  0.91453  Biso   1.000  C
  C368     1.0000 0.39377  0.78753  0.87683  Biso   1.000  C
  H263     1.0000 0.38027  0.76053  0.90093  Biso   1.000  H
  O84      1.0000 0.09917  0.19834  0.21147  Biso   1.000  O
  C369     1.0000 0.15666  0.31332  0.31347  Biso   1.000  C
  C370     1.0000 0.11794  0.23589  0.24527  Biso   1.000  C
  C371     1.0000 0.07848  0.15697  0.24787  Biso   1.000  C
  C372     1.0000 0.06043  0.12087  0.21017  Biso   1.000  C
  H264     1.0000 0.04693  0.09387  0.23427  Biso   1.000  H
  O85      1.0000 0.76584  0.23416  0.54480  Biso   1.000  O
  C373     1.0000 0.82333  0.17667  0.64680  Biso   1.000  C
  C374     1.0000 0.78461  0.21539  0.57860  Biso   1.000  C
  C375     1.0000 0.74515  0.25485  0.58120  Biso   1.000  C
  C376     1.0000 0.72710  0.27290  0.54350  Biso   1.000  C
  H265     1.0000 0.71360  0.28640  0.56760  Biso   1.000  H
  O86      1.0000 0.43250  0.56750  0.87813  Biso   1.000  O
  C377     1.0000 0.48999  0.51001  0.98013  Biso   1.000  C
  C378     1.0000 0.45128  0.54872  0.91193  Biso   1.000  C
  C379     1.0000 0.41182  0.58818  0.91453  Biso   1.000  C
  C380     1.0000 0.39377  0.60623  0.87683  Biso   1.000  C
  H266     1.0000 0.38027  0.61973  0.90093  Biso   1.000  H
  O87      1.0000 0.09917  0.90083  0.21147  Biso   1.000  O
  C381     1.0000 0.15666  0.84334  0.31347  Biso   1.000  C
  C382     1.0000 0.11794  0.88206  0.24527  Biso   1.000  C
  C383     1.0000 0.07848  0.92152  0.24787  Biso   1.000  C
  C384     1.0000 0.06043  0.93957  0.21017  Biso   1.000  C
  H267     1.0000 0.04693  0.95307  0.23427  Biso   1.000  H
  O88      1.0000 0.46833  0.23416  0.54480  Biso   1.000  O
  C385     1.0000 0.35335  0.17667  0.64680  Biso   1.000  C
  C386     1.0000 0.43078  0.21539  0.57860  Biso   1.000  C
  C387     1.0000 0.50970  0.25485  0.58120  Biso   1.000  C
  C388     1.0000 0.54580  0.27290  0.54350  Biso   1.000  C
  H268     1.0000 0.57280  0.28640  0.56760  Biso   1.000  H
  O89      1.0000 0.13500  0.56750  0.87813  Biso   1.000  O
  C389     1.0000 0.02002  0.51001  0.98013  Biso   1.000  C
  C390     1.0000 0.09745  0.54872  0.91193  Biso   1.000  C
  C391     1.0000 0.17637  0.58818  0.91453  Biso   1.000  C
  C392     1.0000 0.21247  0.60623  0.87683  Biso   1.000  C
  H269     1.0000 0.23947  0.61973  0.90093  Biso   1.000  H
  O90      1.0000 0.80166  0.90083  0.21147  Biso   1.000  O
  C393     1.0000 0.68668  0.84334  0.31347  Biso   1.000  C
  C394     1.0000 0.76411  0.88206  0.24527  Biso   1.000  C
  C395     1.0000 0.84303  0.92152  0.24787  Biso   1.000  C
  C396     1.0000 0.87913  0.93957  0.21017  Biso   1.000  C
  H270     1.0000 0.90613  0.95307  0.23427  Biso   1.000  H
