data_image0
_cell_length_a       35.3403
_cell_length_b       35.3403
_cell_length_c       20.291
_cell_angle_alpha    90
_cell_angle_beta     90
_cell_angle_gamma    120

_symmetry_space_group_name_H-M    "P 1"
_symmetry_int_tables_number       1

loop_
  _symmetry_equiv_pos_as_xyz
  'x, y, z'

loop_
  _atom_site_label
  _atom_site_occupancy
  _atom_site_fract_x
  _atom_site_fract_y
  _atom_site_fract_z
  _atom_site_thermal_displace_type
  _atom_site_B_iso_or_equiv
  _atom_site_type_symbol
  O1       1.0000 0.78013  0.63781  0.59178  Biso   1.000  O
  O2       1.0000 0.76672  0.61129  0.69752  Biso   1.000  O
  C1       1.0000 0.75603  0.61239  0.63808  Biso   1.000  C
  C2       1.0000 0.70921  0.57963  0.61783  Biso   1.000  C
  C3       1.0000 0.68047  0.55004  0.66619  Biso   1.000  C
  H1       1.0000 0.69030  0.54990  0.70970  Biso   1.000  H
  C4       1.0000 0.63718  0.52109  0.64760  Biso   1.000  C
  H2       1.0000 0.61760  0.50080  0.67890  Biso   1.000  H
  C5       1.0000 0.62224  0.52143  0.58430  Biso   1.000  C
  C6       1.0000 0.65133  0.55069  0.53584  Biso   1.000  C
  H3       1.0000 0.64180  0.55080  0.49210  Biso   1.000  H
  C7       1.0000 0.69433  0.57915  0.55514  Biso   1.000  C
  H4       1.0000 0.71420  0.59900  0.52360  Biso   1.000  H
  C8       1.0000 0.57519  0.49369  0.56740  Biso   1.000  C
  C9       1.0000 0.55468  0.51218  0.53293  Biso   1.000  C
  H5       1.0000 0.57150  0.54200  0.52050  Biso   1.000  H
  H6       1.0000 0.61350  0.43220  0.54390  Biso   1.000  H
  H7       1.0000 0.58620  0.36850  0.65300  Biso   1.000  H
  O3       1.0000 0.44680  0.97114  0.92511  Biso   1.000  O
  O4       1.0000 0.43339  0.94462  0.03085  Biso   1.000  O
  C10      1.0000 0.42270  0.94572  0.97141  Biso   1.000  C
  C11      1.0000 0.37588  0.91296  0.95116  Biso   1.000  C
  C12      1.0000 0.34714  0.88337  0.99952  Biso   1.000  C
  H8       1.0000 0.35697  0.88323  0.04303  Biso   1.000  H
  C13      1.0000 0.30385  0.85442  0.98093  Biso   1.000  C
  H9       1.0000 0.28427  0.83413  0.01223  Biso   1.000  H
  C14      1.0000 0.28891  0.85476  0.91763  Biso   1.000  C
  C15      1.0000 0.31800  0.88402  0.86917  Biso   1.000  C
  H10      1.0000 0.30847  0.88413  0.82543  Biso   1.000  H
  C16      1.0000 0.36100  0.91248  0.88847  Biso   1.000  C
  H11      1.0000 0.38087  0.93233  0.85693  Biso   1.000  H
  C17      1.0000 0.24186  0.82702  0.90073  Biso   1.000  C
  C18      1.0000 0.22135  0.84551  0.86626  Biso   1.000  C
  H12      1.0000 0.23817  0.87533  0.85383  Biso   1.000  H
  H13      1.0000 0.28017  0.76553  0.87723  Biso   1.000  H
  H14      1.0000 0.25287  0.70183  0.98633  Biso   1.000  H
  O5       1.0000 0.11346  0.30448  0.25845  Biso   1.000  O
  O6       1.0000 0.10005  0.27796  0.36419  Biso   1.000  O
  C19      1.0000 0.08936  0.27906  0.30475  Biso   1.000  C
  C20      1.0000 0.04254  0.24630  0.28450  Biso   1.000  C
  C21      1.0000 0.01380  0.21671  0.33286  Biso   1.000  C
  H15      1.0000 0.02363  0.21657  0.37637  Biso   1.000  H
  C22      1.0000 0.97051  0.18776  0.31427  Biso   1.000  C
  H16      1.0000 0.95093  0.16747  0.34557  Biso   1.000  H
  C23      1.0000 0.95557  0.18810  0.25097  Biso   1.000  C
  C24      1.0000 0.98466  0.21736  0.20251  Biso   1.000  C
  H17      1.0000 0.97513  0.21747  0.15877  Biso   1.000  H
  C25      1.0000 0.02766  0.24582  0.22181  Biso   1.000  C
  H18      1.0000 0.04753  0.26567  0.19027  Biso   1.000  H
  C26      1.0000 0.90852  0.16036  0.23407  Biso   1.000  C
  C27      1.0000 0.88801  0.17885  0.19960  Biso   1.000  C
  H19      1.0000 0.90483  0.20867  0.18717  Biso   1.000  H
  H20      1.0000 0.94683  0.09887  0.21057  Biso   1.000  H
  H21      1.0000 0.91953  0.03517  0.31967  Biso   1.000  H
  O7       1.0000 0.36219  0.14232  0.59178  Biso   1.000  O
  O8       1.0000 0.38871  0.15543  0.69752  Biso   1.000  O
  C28      1.0000 0.38761  0.14364  0.63808  Biso   1.000  C
  C29      1.0000 0.42037  0.12958  0.61783  Biso   1.000  C
  C30      1.0000 0.44996  0.13043  0.66619  Biso   1.000  C
  H22      1.0000 0.45010  0.14040  0.70970  Biso   1.000  H
  C31      1.0000 0.47891  0.11609  0.64760  Biso   1.000  C
  H23      1.0000 0.49920  0.11680  0.67890  Biso   1.000  H
  C32      1.0000 0.47857  0.10081  0.58430  Biso   1.000  C
  C33      1.0000 0.44931  0.10064  0.53584  Biso   1.000  C
  H24      1.0000 0.44920  0.09100  0.49210  Biso   1.000  H
  C34      1.0000 0.42085  0.11518  0.55514  Biso   1.000  C
  H25      1.0000 0.40100  0.11520  0.52360  Biso   1.000  H
  C35      1.0000 0.50631  0.08150  0.56740  Biso   1.000  C
  C36      1.0000 0.48782  0.04250  0.53293  Biso   1.000  C
  H26      1.0000 0.45800  0.02950  0.52050  Biso   1.000  H
  H27      1.0000 0.56780  0.18130  0.54390  Biso   1.000  H
  H28      1.0000 0.63150  0.21770  0.65300  Biso   1.000  H
  O9       1.0000 0.02886  0.47565  0.92511  Biso   1.000  O
  O10      1.0000 0.05538  0.48876  0.03085  Biso   1.000  O
  C37      1.0000 0.05428  0.47697  0.97141  Biso   1.000  C
  C38      1.0000 0.08704  0.46291  0.95116  Biso   1.000  C
  C39      1.0000 0.11663  0.46376  0.99952  Biso   1.000  C
  H29      1.0000 0.11677  0.47373  0.04303  Biso   1.000  H
  C40      1.0000 0.14558  0.44942  0.98093  Biso   1.000  C
  H30      1.0000 0.16587  0.45013  0.01223  Biso   1.000  H
  C41      1.0000 0.14524  0.43414  0.91763  Biso   1.000  C
  C42      1.0000 0.11598  0.43397  0.86917  Biso   1.000  C
  H31      1.0000 0.11587  0.42433  0.82543  Biso   1.000  H
  C43      1.0000 0.08752  0.44851  0.88847  Biso   1.000  C
  H32      1.0000 0.06767  0.44853  0.85693  Biso   1.000  H
  C44      1.0000 0.17298  0.41483  0.90073  Biso   1.000  C
  C45      1.0000 0.15449  0.37583  0.86626  Biso   1.000  C
  H33      1.0000 0.12467  0.36283  0.85383  Biso   1.000  H
  H34      1.0000 0.23447  0.51463  0.87723  Biso   1.000  H
  H35      1.0000 0.29817  0.55103  0.98633  Biso   1.000  H
  O11      1.0000 0.69552  0.80899  0.25845  Biso   1.000  O
  O12      1.0000 0.72204  0.82210  0.36419  Biso   1.000  O
  C46      1.0000 0.72094  0.81031  0.30475  Biso   1.000  C
  C47      1.0000 0.75370  0.79625  0.28450  Biso   1.000  C
  C48      1.0000 0.78329  0.79710  0.33286  Biso   1.000  C
  H36      1.0000 0.78343  0.80707  0.37637  Biso   1.000  H
  C49      1.0000 0.81224  0.78276  0.31427  Biso   1.000  C
  H37      1.0000 0.83253  0.78347  0.34557  Biso   1.000  H
  C50      1.0000 0.81190  0.76748  0.25097  Biso   1.000  C
  C51      1.0000 0.78264  0.76731  0.20251  Biso   1.000  C
  H38      1.0000 0.78253  0.75767  0.15877  Biso   1.000  H
  C52      1.0000 0.75418  0.78185  0.22181  Biso   1.000  C
  H39      1.0000 0.73433  0.78187  0.19027  Biso   1.000  H
  C53      1.0000 0.83964  0.74817  0.23407  Biso   1.000  C
  C54      1.0000 0.82115  0.70917  0.19960  Biso   1.000  C
  H40      1.0000 0.79133  0.69617  0.18717  Biso   1.000  H
  H41      1.0000 0.90113  0.84797  0.21057  Biso   1.000  H
  H42      1.0000 0.96483  0.88437  0.31967  Biso   1.000  H
  O13      1.0000 0.85768  0.21987  0.59178  Biso   1.000  O
  O14      1.0000 0.84457  0.23328  0.69752  Biso   1.000  O
  C55      1.0000 0.85636  0.24397  0.63808  Biso   1.000  C
  C56      1.0000 0.87042  0.29079  0.61783  Biso   1.000  C
  C57      1.0000 0.86957  0.31953  0.66619  Biso   1.000  C
  H43      1.0000 0.85960  0.30970  0.70970  Biso   1.000  H
  C58      1.0000 0.88391  0.36282  0.64760  Biso   1.000  C
  H44      1.0000 0.88320  0.38240  0.67890  Biso   1.000  H
  C59      1.0000 0.89919  0.37776  0.58430  Biso   1.000  C
  C60      1.0000 0.89936  0.34867  0.53584  Biso   1.000  C
  H45      1.0000 0.90900  0.35820  0.49210  Biso   1.000  H
  C61      1.0000 0.88482  0.30567  0.55514  Biso   1.000  C
  H46      1.0000 0.88480  0.28580  0.52360  Biso   1.000  H
  C62      1.0000 0.91850  0.42481  0.56740  Biso   1.000  C
  C63      1.0000 0.95750  0.44532  0.53293  Biso   1.000  C
  H47      1.0000 0.97050  0.42850  0.52050  Biso   1.000  H
  H48      1.0000 0.81870  0.38650  0.54390  Biso   1.000  H
  H49      1.0000 0.78230  0.41380  0.65300  Biso   1.000  H
  O15      1.0000 0.52435  0.55320  0.92511  Biso   1.000  O
  O16      1.0000 0.51124  0.56661  0.03085  Biso   1.000  O
  C64      1.0000 0.52303  0.57730  0.97141  Biso   1.000  C
  C65      1.0000 0.53709  0.62412  0.95116  Biso   1.000  C
  C66      1.0000 0.53624  0.65286  0.99952  Biso   1.000  C
  H50      1.0000 0.52627  0.64303  0.04303  Biso   1.000  H
  C67      1.0000 0.55058  0.69615  0.98093  Biso   1.000  C
  H51      1.0000 0.54987  0.71573  0.01223  Biso   1.000  H
  C68      1.0000 0.56586  0.71109  0.91763  Biso   1.000  C
  C69      1.0000 0.56603  0.68200  0.86917  Biso   1.000  C
  H52      1.0000 0.57567  0.69153  0.82543  Biso   1.000  H
  C70      1.0000 0.55149  0.63900  0.88847  Biso   1.000  C
  H53      1.0000 0.55147  0.61913  0.85693  Biso   1.000  H
  C71      1.0000 0.58517  0.75814  0.90073  Biso   1.000  C
  C72      1.0000 0.62417  0.77865  0.86626  Biso   1.000  C
  H54      1.0000 0.63717  0.76183  0.85383  Biso   1.000  H
  H55      1.0000 0.48537  0.71983  0.87723  Biso   1.000  H
  H56      1.0000 0.44897  0.74713  0.98633  Biso   1.000  H
  O17      1.0000 0.19101  0.88654  0.25845  Biso   1.000  O
  O18      1.0000 0.17790  0.89995  0.36419  Biso   1.000  O
  C73      1.0000 0.18969  0.91064  0.30475  Biso   1.000  C
  C74      1.0000 0.20375  0.95746  0.28450  Biso   1.000  C
  C75      1.0000 0.20290  0.98620  0.33286  Biso   1.000  C
  H57      1.0000 0.19293  0.97637  0.37637  Biso   1.000  H
  C76      1.0000 0.21724  0.02949  0.31427  Biso   1.000  C
  H58      1.0000 0.21653  0.04907  0.34557  Biso   1.000  H
  C77      1.0000 0.23252  0.04443  0.25097  Biso   1.000  C
  C78      1.0000 0.23269  0.01534  0.20251  Biso   1.000  C
  H59      1.0000 0.24233  0.02487  0.15877  Biso   1.000  H
  C79      1.0000 0.21815  0.97234  0.22181  Biso   1.000  C
  H60      1.0000 0.21813  0.95247  0.19027  Biso   1.000  H
  C80      1.0000 0.25183  0.09148  0.23407  Biso   1.000  C
  C81      1.0000 0.29083  0.11199  0.19960  Biso   1.000  C
  H61      1.0000 0.30383  0.09517  0.18717  Biso   1.000  H
  H62      1.0000 0.15203  0.05317  0.21057  Biso   1.000  H
  H63      1.0000 0.11563  0.08047  0.31967  Biso   1.000  H
  O19      1.0000 0.63781  0.78013  0.40822  Biso   1.000  O
  O20      1.0000 0.61129  0.76672  0.30248  Biso   1.000  O
  C82      1.0000 0.61239  0.75603  0.36192  Biso   1.000  C
  C83      1.0000 0.57963  0.70921  0.38217  Biso   1.000  C
  C84      1.0000 0.55004  0.68047  0.33381  Biso   1.000  C
  H64      1.0000 0.54990  0.69030  0.29030  Biso   1.000  H
  C85      1.0000 0.52109  0.63718  0.35240  Biso   1.000  C
  H65      1.0000 0.50080  0.61760  0.32110  Biso   1.000  H
  C86      1.0000 0.52143  0.62224  0.41570  Biso   1.000  C
  C87      1.0000 0.55069  0.65133  0.46416  Biso   1.000  C
  H66      1.0000 0.55080  0.64180  0.50790  Biso   1.000  H
  C88      1.0000 0.57915  0.69433  0.44486  Biso   1.000  C
  H67      1.0000 0.59900  0.71420  0.47640  Biso   1.000  H
  C89      1.0000 0.49369  0.57519  0.43260  Biso   1.000  C
  C90      1.0000 0.51218  0.55468  0.46707  Biso   1.000  C
  H68      1.0000 0.54200  0.57150  0.47950  Biso   1.000  H
  H69      1.0000 0.43220  0.61350  0.45610  Biso   1.000  H
  H70      1.0000 0.36850  0.58620  0.34700  Biso   1.000  H
  O21      1.0000 0.30448  0.11346  0.74155  Biso   1.000  O
  O22      1.0000 0.27796  0.10005  0.63581  Biso   1.000  O
  C91      1.0000 0.27906  0.08936  0.69525  Biso   1.000  C
  C92      1.0000 0.24630  0.04254  0.71550  Biso   1.000  C
  C93      1.0000 0.21671  0.01380  0.66714  Biso   1.000  C
  H71      1.0000 0.21657  0.02363  0.62363  Biso   1.000  H
  C94      1.0000 0.18776  0.97051  0.68573  Biso   1.000  C
  H72      1.0000 0.16747  0.95093  0.65443  Biso   1.000  H
  C95      1.0000 0.18810  0.95557  0.74903  Biso   1.000  C
  C96      1.0000 0.21736  0.98466  0.79749  Biso   1.000  C
  H73      1.0000 0.21747  0.97513  0.84123  Biso   1.000  H
  C97      1.0000 0.24582  0.02766  0.77819  Biso   1.000  C
  H74      1.0000 0.26567  0.04753  0.80973  Biso   1.000  H
  C98      1.0000 0.16036  0.90852  0.76593  Biso   1.000  C
  C99      1.0000 0.17885  0.88801  0.80040  Biso   1.000  C
  H75      1.0000 0.20867  0.90483  0.81283  Biso   1.000  H
  H76      1.0000 0.09887  0.94683  0.78943  Biso   1.000  H
  H77      1.0000 0.03517  0.91953  0.68033  Biso   1.000  H
  O23      1.0000 0.97114  0.44680  0.07489  Biso   1.000  O
  O24      1.0000 0.94462  0.43339  0.96915  Biso   1.000  O
  C100     1.0000 0.94572  0.42270  0.02859  Biso   1.000  C
  C101     1.0000 0.91296  0.37588  0.04884  Biso   1.000  C
  C102     1.0000 0.88337  0.34714  0.00048  Biso   1.000  C
  H78      1.0000 0.88323  0.35697  0.95697  Biso   1.000  H
  C103     1.0000 0.85442  0.30385  0.01907  Biso   1.000  C
  H79      1.0000 0.83413  0.28427  0.98777  Biso   1.000  H
  C104     1.0000 0.85476  0.28891  0.08237  Biso   1.000  C
  C105     1.0000 0.88402  0.31800  0.13083  Biso   1.000  C
  H80      1.0000 0.88413  0.30847  0.17457  Biso   1.000  H
  C106     1.0000 0.91248  0.36100  0.11153  Biso   1.000  C
  H81      1.0000 0.93233  0.38087  0.14307  Biso   1.000  H
  C107     1.0000 0.82702  0.24186  0.09927  Biso   1.000  C
  C108     1.0000 0.84551  0.22135  0.13374  Biso   1.000  C
  H82      1.0000 0.87533  0.23817  0.14617  Biso   1.000  H
  H83      1.0000 0.76553  0.28017  0.12277  Biso   1.000  H
  H84      1.0000 0.70183  0.25287  0.01367  Biso   1.000  H
  O25      1.0000 0.14232  0.36219  0.40822  Biso   1.000  O
  O26      1.0000 0.15543  0.38871  0.30248  Biso   1.000  O
  C109     1.0000 0.14364  0.38761  0.36192  Biso   1.000  C
  C110     1.0000 0.12958  0.42037  0.38217  Biso   1.000  C
  C111     1.0000 0.13043  0.44996  0.33381  Biso   1.000  C
  H85      1.0000 0.14040  0.45010  0.29030  Biso   1.000  H
  C112     1.0000 0.11609  0.47891  0.35240  Biso   1.000  C
  H86      1.0000 0.11680  0.49920  0.32110  Biso   1.000  H
  C113     1.0000 0.10081  0.47857  0.41570  Biso   1.000  C
  C114     1.0000 0.10064  0.44931  0.46416  Biso   1.000  C
  H87      1.0000 0.09100  0.44920  0.50790  Biso   1.000  H
  C115     1.0000 0.11518  0.42085  0.44486  Biso   1.000  C
  H88      1.0000 0.11520  0.40100  0.47640  Biso   1.000  H
  C116     1.0000 0.08150  0.50631  0.43260  Biso   1.000  C
  C117     1.0000 0.04250  0.48782  0.46707  Biso   1.000  C
  H89      1.0000 0.02950  0.45800  0.47950  Biso   1.000  H
  H90      1.0000 0.18130  0.56780  0.45610  Biso   1.000  H
  H91      1.0000 0.21770  0.63150  0.34700  Biso   1.000  H
  O27      1.0000 0.80899  0.69552  0.74155  Biso   1.000  O
  O28      1.0000 0.82210  0.72204  0.63581  Biso   1.000  O
  C118     1.0000 0.81031  0.72094  0.69525  Biso   1.000  C
  C119     1.0000 0.79625  0.75370  0.71550  Biso   1.000  C
  C120     1.0000 0.79710  0.78329  0.66714  Biso   1.000  C
  H92      1.0000 0.80707  0.78343  0.62363  Biso   1.000  H
  C121     1.0000 0.78276  0.81224  0.68573  Biso   1.000  C
  H93      1.0000 0.78347  0.83253  0.65443  Biso   1.000  H
  C122     1.0000 0.76748  0.81190  0.74903  Biso   1.000  C
  C123     1.0000 0.76731  0.78264  0.79749  Biso   1.000  C
  H94      1.0000 0.75767  0.78253  0.84123  Biso   1.000  H
  C124     1.0000 0.78185  0.75418  0.77819  Biso   1.000  C
  H95      1.0000 0.78187  0.73433  0.80973  Biso   1.000  H
  C125     1.0000 0.74817  0.83964  0.76593  Biso   1.000  C
  C126     1.0000 0.70917  0.82115  0.80040  Biso   1.000  C
  H96      1.0000 0.69617  0.79133  0.81283  Biso   1.000  H
  H97      1.0000 0.84797  0.90113  0.78943  Biso   1.000  H
  H98      1.0000 0.88437  0.96483  0.68033  Biso   1.000  H
  O29      1.0000 0.47565  0.02886  0.07489  Biso   1.000  O
  O30      1.0000 0.48876  0.05538  0.96915  Biso   1.000  O
  C127     1.0000 0.47697  0.05428  0.02859  Biso   1.000  C
  C128     1.0000 0.46291  0.08704  0.04884  Biso   1.000  C
  C129     1.0000 0.46376  0.11663  0.00048  Biso   1.000  C
  H99      1.0000 0.47373  0.11677  0.95697  Biso   1.000  H
  C130     1.0000 0.44942  0.14558  0.01907  Biso   1.000  C
  H100     1.0000 0.45013  0.16587  0.98777  Biso   1.000  H
  C131     1.0000 0.43414  0.14524  0.08237  Biso   1.000  C
  C132     1.0000 0.43397  0.11598  0.13083  Biso   1.000  C
  H101     1.0000 0.42433  0.11587  0.17457  Biso   1.000  H
  C133     1.0000 0.44851  0.08752  0.11153  Biso   1.000  C
  H102     1.0000 0.44853  0.06767  0.14307  Biso   1.000  H
  C134     1.0000 0.41483  0.17298  0.09927  Biso   1.000  C
  C135     1.0000 0.37583  0.15449  0.13374  Biso   1.000  C
  H103     1.0000 0.36283  0.12467  0.14617  Biso   1.000  H
  H104     1.0000 0.51463  0.23447  0.12277  Biso   1.000  H
  H105     1.0000 0.55103  0.29817  0.01367  Biso   1.000  H
  O31      1.0000 0.21987  0.85768  0.40822  Biso   1.000  O
  O32      1.0000 0.23328  0.84457  0.30248  Biso   1.000  O
  C136     1.0000 0.24397  0.85636  0.36192  Biso   1.000  C
  C137     1.0000 0.29079  0.87042  0.38217  Biso   1.000  C
  C138     1.0000 0.31953  0.86957  0.33381  Biso   1.000  C
  H106     1.0000 0.30970  0.85960  0.29030  Biso   1.000  H
  C139     1.0000 0.36282  0.88391  0.35240  Biso   1.000  C
  H107     1.0000 0.38240  0.88320  0.32110  Biso   1.000  H
  C140     1.0000 0.37776  0.89919  0.41570  Biso   1.000  C
  C141     1.0000 0.34867  0.89936  0.46416  Biso   1.000  C
  H108     1.0000 0.35820  0.90900  0.50790  Biso   1.000  H
  C142     1.0000 0.30567  0.88482  0.44486  Biso   1.000  C
  H109     1.0000 0.28580  0.88480  0.47640  Biso   1.000  H
  C143     1.0000 0.42481  0.91850  0.43260  Biso   1.000  C
  C144     1.0000 0.44532  0.95750  0.46707  Biso   1.000  C
  H110     1.0000 0.42850  0.97050  0.47950  Biso   1.000  H
  H111     1.0000 0.38650  0.81870  0.45610  Biso   1.000  H
  H112     1.0000 0.41380  0.78230  0.34700  Biso   1.000  H
  O33      1.0000 0.88654  0.19101  0.74155  Biso   1.000  O
  O34      1.0000 0.89995  0.17790  0.63581  Biso   1.000  O
  C145     1.0000 0.91064  0.18969  0.69525  Biso   1.000  C
  C146     1.0000 0.95746  0.20375  0.71550  Biso   1.000  C
  C147     1.0000 0.98620  0.20290  0.66714  Biso   1.000  C
  H113     1.0000 0.97637  0.19293  0.62363  Biso   1.000  H
  C148     1.0000 0.02949  0.21724  0.68573  Biso   1.000  C
  H114     1.0000 0.04907  0.21653  0.65443  Biso   1.000  H
  C149     1.0000 0.04443  0.23252  0.74903  Biso   1.000  C
  C150     1.0000 0.01534  0.23269  0.79749  Biso   1.000  C
  H115     1.0000 0.02487  0.24233  0.84123  Biso   1.000  H
  C151     1.0000 0.97234  0.21815  0.77819  Biso   1.000  C
  H116     1.0000 0.95247  0.21813  0.80973  Biso   1.000  H
  C152     1.0000 0.09148  0.25183  0.76593  Biso   1.000  C
  C153     1.0000 0.11199  0.29083  0.80040  Biso   1.000  C
  H117     1.0000 0.09517  0.30383  0.81283  Biso   1.000  H
  H118     1.0000 0.05317  0.15203  0.78943  Biso   1.000  H
  H119     1.0000 0.08047  0.11563  0.68033  Biso   1.000  H
  O35      1.0000 0.55320  0.52435  0.07489  Biso   1.000  O
  O36      1.0000 0.56661  0.51124  0.96915  Biso   1.000  O
  C154     1.0000 0.57730  0.52303  0.02859  Biso   1.000  C
  C155     1.0000 0.62412  0.53709  0.04884  Biso   1.000  C
  C156     1.0000 0.65286  0.53624  0.00048  Biso   1.000  C
  H120     1.0000 0.64303  0.52627  0.95697  Biso   1.000  H
  C157     1.0000 0.69615  0.55058  0.01907  Biso   1.000  C
  H121     1.0000 0.71573  0.54987  0.98777  Biso   1.000  H
  C158     1.0000 0.71109  0.56586  0.08237  Biso   1.000  C
  C159     1.0000 0.68200  0.56603  0.13083  Biso   1.000  C
  H122     1.0000 0.69153  0.57567  0.17457  Biso   1.000  H
  C160     1.0000 0.63900  0.55149  0.11153  Biso   1.000  C
  H123     1.0000 0.61913  0.55147  0.14307  Biso   1.000  H
  C161     1.0000 0.75814  0.58517  0.09927  Biso   1.000  C
  C162     1.0000 0.77865  0.62417  0.13374  Biso   1.000  C
  H124     1.0000 0.76183  0.63717  0.14617  Biso   1.000  H
  H125     1.0000 0.71983  0.48537  0.12277  Biso   1.000  H
  H126     1.0000 0.74713  0.44897  0.01367  Biso   1.000  H
  O37      1.0000 0.21987  0.36219  0.40822  Biso   1.000  O
  O38      1.0000 0.23328  0.38871  0.30248  Biso   1.000  O
  C163     1.0000 0.24397  0.38761  0.36192  Biso   1.000  C
  C164     1.0000 0.29079  0.42037  0.38217  Biso   1.000  C
  C165     1.0000 0.31953  0.44996  0.33381  Biso   1.000  C
  H127     1.0000 0.30970  0.45010  0.29030  Biso   1.000  H
  C166     1.0000 0.36282  0.47891  0.35240  Biso   1.000  C
  H128     1.0000 0.38240  0.49920  0.32110  Biso   1.000  H
  C167     1.0000 0.37776  0.47857  0.41570  Biso   1.000  C
  C168     1.0000 0.34867  0.44931  0.46416  Biso   1.000  C
  H129     1.0000 0.35820  0.44920  0.50790  Biso   1.000  H
  C169     1.0000 0.30567  0.42085  0.44486  Biso   1.000  C
  H130     1.0000 0.28580  0.40100  0.47640  Biso   1.000  H
  C170     1.0000 0.42481  0.50631  0.43260  Biso   1.000  C
  C171     1.0000 0.44532  0.48782  0.46707  Biso   1.000  C
  H131     1.0000 0.42850  0.45800  0.47950  Biso   1.000  H
  H132     1.0000 0.38650  0.56780  0.45610  Biso   1.000  H
  H133     1.0000 0.41380  0.63150  0.34700  Biso   1.000  H
  O39      1.0000 0.88654  0.69552  0.74155  Biso   1.000  O
  O40      1.0000 0.89995  0.72204  0.63581  Biso   1.000  O
  C172     1.0000 0.91064  0.72094  0.69525  Biso   1.000  C
  C173     1.0000 0.95746  0.75370  0.71550  Biso   1.000  C
  C174     1.0000 0.98620  0.78329  0.66714  Biso   1.000  C
  H134     1.0000 0.97637  0.78343  0.62363  Biso   1.000  H
  C175     1.0000 0.02949  0.81224  0.68573  Biso   1.000  C
  H135     1.0000 0.04907  0.83253  0.65443  Biso   1.000  H
  C176     1.0000 0.04443  0.81190  0.74903  Biso   1.000  C
  C177     1.0000 0.01534  0.78264  0.79749  Biso   1.000  C
  H136     1.0000 0.02487  0.78253  0.84123  Biso   1.000  H
  C178     1.0000 0.97234  0.75418  0.77819  Biso   1.000  C
  H137     1.0000 0.95247  0.73433  0.80973  Biso   1.000  H
  C179     1.0000 0.09148  0.83964  0.76593  Biso   1.000  C
  C180     1.0000 0.11199  0.82115  0.80040  Biso   1.000  C
  H138     1.0000 0.09517  0.79133  0.81283  Biso   1.000  H
  H139     1.0000 0.05317  0.90113  0.78943  Biso   1.000  H
  H140     1.0000 0.08047  0.96483  0.68033  Biso   1.000  H
  O41      1.0000 0.55320  0.02886  0.07489  Biso   1.000  O
  O42      1.0000 0.56661  0.05538  0.96915  Biso   1.000  O
  C181     1.0000 0.57730  0.05428  0.02859  Biso   1.000  C
  C182     1.0000 0.62412  0.08704  0.04884  Biso   1.000  C
  C183     1.0000 0.65286  0.11663  0.00048  Biso   1.000  C
  H141     1.0000 0.64303  0.11677  0.95697  Biso   1.000  H
  C184     1.0000 0.69615  0.14558  0.01907  Biso   1.000  C
  H142     1.0000 0.71573  0.16587  0.98777  Biso   1.000  H
  C185     1.0000 0.71109  0.14524  0.08237  Biso   1.000  C
  C186     1.0000 0.68200  0.11598  0.13083  Biso   1.000  C
  H143     1.0000 0.69153  0.11587  0.17457  Biso   1.000  H
  C187     1.0000 0.63900  0.08752  0.11153  Biso   1.000  C
  H144     1.0000 0.61913  0.06767  0.14307  Biso   1.000  H
  C188     1.0000 0.75814  0.17298  0.09927  Biso   1.000  C
  C189     1.0000 0.77865  0.15449  0.13374  Biso   1.000  C
  H145     1.0000 0.76183  0.12467  0.14617  Biso   1.000  H
  H146     1.0000 0.71983  0.23447  0.12277  Biso   1.000  H
  H147     1.0000 0.74713  0.29817  0.01367  Biso   1.000  H
  O43      1.0000 0.63781  0.85768  0.40822  Biso   1.000  O
  O44      1.0000 0.61129  0.84457  0.30248  Biso   1.000  O
  C190     1.0000 0.61239  0.85636  0.36192  Biso   1.000  C
  C191     1.0000 0.57963  0.87042  0.38217  Biso   1.000  C
  C192     1.0000 0.55004  0.86957  0.33381  Biso   1.000  C
  H148     1.0000 0.54990  0.85960  0.29030  Biso   1.000  H
  C193     1.0000 0.52109  0.88391  0.35240  Biso   1.000  C
  H149     1.0000 0.50080  0.88320  0.32110  Biso   1.000  H
  C194     1.0000 0.52143  0.89919  0.41570  Biso   1.000  C
  C195     1.0000 0.55069  0.89936  0.46416  Biso   1.000  C
  H150     1.0000 0.55080  0.90900  0.50790  Biso   1.000  H
  C196     1.0000 0.57915  0.88482  0.44486  Biso   1.000  C
  H151     1.0000 0.59900  0.88480  0.47640  Biso   1.000  H
  C197     1.0000 0.49369  0.91850  0.43260  Biso   1.000  C
  C198     1.0000 0.51218  0.95750  0.46707  Biso   1.000  C
  H152     1.0000 0.54200  0.97050  0.47950  Biso   1.000  H
  H153     1.0000 0.43220  0.81870  0.45610  Biso   1.000  H
  H154     1.0000 0.36850  0.78230  0.34700  Biso   1.000  H
  O45      1.0000 0.30448  0.19101  0.74155  Biso   1.000  O
  O46      1.0000 0.27796  0.17790  0.63581  Biso   1.000  O
  C199     1.0000 0.27906  0.18969  0.69525  Biso   1.000  C
  C200     1.0000 0.24630  0.20375  0.71550  Biso   1.000  C
  C201     1.0000 0.21671  0.20290  0.66714  Biso   1.000  C
  H155     1.0000 0.21657  0.19293  0.62363  Biso   1.000  H
  C202     1.0000 0.18776  0.21724  0.68573  Biso   1.000  C
  H156     1.0000 0.16747  0.21653  0.65443  Biso   1.000  H
  C203     1.0000 0.18810  0.23252  0.74903  Biso   1.000  C
  C204     1.0000 0.21736  0.23269  0.79749  Biso   1.000  C
  H157     1.0000 0.21747  0.24233  0.84123  Biso   1.000  H
  C205     1.0000 0.24582  0.21815  0.77819  Biso   1.000  C
  H158     1.0000 0.26567  0.21813  0.80973  Biso   1.000  H
  C206     1.0000 0.16036  0.25183  0.76593  Biso   1.000  C
  C207     1.0000 0.17885  0.29083  0.80040  Biso   1.000  C
  H159     1.0000 0.20867  0.30383  0.81283  Biso   1.000  H
  H160     1.0000 0.09887  0.15203  0.78943  Biso   1.000  H
  H161     1.0000 0.03517  0.11563  0.68033  Biso   1.000  H
  O47      1.0000 0.97114  0.52435  0.07489  Biso   1.000  O
  O48      1.0000 0.94462  0.51124  0.96915  Biso   1.000  O
  C208     1.0000 0.94572  0.52303  0.02859  Biso   1.000  C
  C209     1.0000 0.91296  0.53709  0.04884  Biso   1.000  C
  C210     1.0000 0.88337  0.53624  0.00048  Biso   1.000  C
  H162     1.0000 0.88323  0.52627  0.95697  Biso   1.000  H
  C211     1.0000 0.85442  0.55058  0.01907  Biso   1.000  C
  H163     1.0000 0.83413  0.54987  0.98777  Biso   1.000  H
  C212     1.0000 0.85476  0.56586  0.08237  Biso   1.000  C
  C213     1.0000 0.88402  0.56603  0.13083  Biso   1.000  C
  H164     1.0000 0.88413  0.57567  0.17457  Biso   1.000  H
  C214     1.0000 0.91248  0.55149  0.11153  Biso   1.000  C
  H165     1.0000 0.93233  0.55147  0.14307  Biso   1.000  H
  C215     1.0000 0.82702  0.58517  0.09927  Biso   1.000  C
  C216     1.0000 0.84551  0.62417  0.13374  Biso   1.000  C
  H166     1.0000 0.87533  0.63717  0.14617  Biso   1.000  H
  H167     1.0000 0.76553  0.48537  0.12277  Biso   1.000  H
  H168     1.0000 0.70183  0.44897  0.01367  Biso   1.000  H
  O49      1.0000 0.14232  0.78013  0.40822  Biso   1.000  O
  O50      1.0000 0.15543  0.76672  0.30248  Biso   1.000  O
  C217     1.0000 0.14364  0.75603  0.36192  Biso   1.000  C
  C218     1.0000 0.12958  0.70921  0.38217  Biso   1.000  C
  C219     1.0000 0.13043  0.68047  0.33381  Biso   1.000  C
  H169     1.0000 0.14040  0.69030  0.29030  Biso   1.000  H
  C220     1.0000 0.11609  0.63718  0.35240  Biso   1.000  C
  H170     1.0000 0.11680  0.61760  0.32110  Biso   1.000  H
  C221     1.0000 0.10081  0.62224  0.41570  Biso   1.000  C
  C222     1.0000 0.10064  0.65133  0.46416  Biso   1.000  C
  H171     1.0000 0.09100  0.64180  0.50790  Biso   1.000  H
  C223     1.0000 0.11518  0.69433  0.44486  Biso   1.000  C
  H172     1.0000 0.11520  0.71420  0.47640  Biso   1.000  H
  C224     1.0000 0.08150  0.57519  0.43260  Biso   1.000  C
  C225     1.0000 0.04250  0.55468  0.46707  Biso   1.000  C
  H173     1.0000 0.02950  0.57150  0.47950  Biso   1.000  H
  H174     1.0000 0.18130  0.61350  0.45610  Biso   1.000  H
  H175     1.0000 0.21770  0.58620  0.34700  Biso   1.000  H
  O51      1.0000 0.80899  0.11346  0.74155  Biso   1.000  O
  O52      1.0000 0.82210  0.10005  0.63581  Biso   1.000  O
  C226     1.0000 0.81031  0.08936  0.69525  Biso   1.000  C
  C227     1.0000 0.79625  0.04254  0.71550  Biso   1.000  C
  C228     1.0000 0.79710  0.01380  0.66714  Biso   1.000  C
  H176     1.0000 0.80707  0.02363  0.62363  Biso   1.000  H
  C229     1.0000 0.78276  0.97051  0.68573  Biso   1.000  C
  H177     1.0000 0.78347  0.95093  0.65443  Biso   1.000  H
  C230     1.0000 0.76748  0.95557  0.74903  Biso   1.000  C
  C231     1.0000 0.76731  0.98466  0.79749  Biso   1.000  C
  H178     1.0000 0.75767  0.97513  0.84123  Biso   1.000  H
  C232     1.0000 0.78185  0.02766  0.77819  Biso   1.000  C
  H179     1.0000 0.78187  0.04753  0.80973  Biso   1.000  H
  C233     1.0000 0.74817  0.90852  0.76593  Biso   1.000  C
  C234     1.0000 0.70917  0.88801  0.80040  Biso   1.000  C
  H180     1.0000 0.69617  0.90483  0.81283  Biso   1.000  H
  H181     1.0000 0.84797  0.94683  0.78943  Biso   1.000  H
  H182     1.0000 0.88437  0.91953  0.68033  Biso   1.000  H
  O53      1.0000 0.47565  0.44680  0.07489  Biso   1.000  O
  O54      1.0000 0.48876  0.43339  0.96915  Biso   1.000  O
  C235     1.0000 0.47697  0.42270  0.02859  Biso   1.000  C
  C236     1.0000 0.46291  0.37588  0.04884  Biso   1.000  C
  C237     1.0000 0.46376  0.34714  0.00048  Biso   1.000  C
  H183     1.0000 0.47373  0.35697  0.95697  Biso   1.000  H
  C238     1.0000 0.44942  0.30385  0.01907  Biso   1.000  C
  H184     1.0000 0.45013  0.28427  0.98777  Biso   1.000  H
  C239     1.0000 0.43414  0.28891  0.08237  Biso   1.000  C
  C240     1.0000 0.43397  0.31800  0.13083  Biso   1.000  C
  H185     1.0000 0.42433  0.30847  0.17457  Biso   1.000  H
  C241     1.0000 0.44851  0.36100  0.11153  Biso   1.000  C
  H186     1.0000 0.44853  0.38087  0.14307  Biso   1.000  H
  C242     1.0000 0.41483  0.24186  0.09927  Biso   1.000  C
  C243     1.0000 0.37583  0.22135  0.13374  Biso   1.000  C
  H187     1.0000 0.36283  0.23817  0.14617  Biso   1.000  H
  H188     1.0000 0.51463  0.28017  0.12277  Biso   1.000  H
  H189     1.0000 0.55103  0.25287  0.01367  Biso   1.000  H
  O55      1.0000 0.36219  0.21987  0.59178  Biso   1.000  O
  O56      1.0000 0.38871  0.23328  0.69752  Biso   1.000  O
  C244     1.0000 0.38761  0.24397  0.63808  Biso   1.000  C
  C245     1.0000 0.42037  0.29079  0.61783  Biso   1.000  C
  C246     1.0000 0.44996  0.31953  0.66619  Biso   1.000  C
  H190     1.0000 0.45010  0.30970  0.70970  Biso   1.000  H
  C247     1.0000 0.47891  0.36282  0.64760  Biso   1.000  C
  H191     1.0000 0.49920  0.38240  0.67890  Biso   1.000  H
  C248     1.0000 0.47857  0.37776  0.58430  Biso   1.000  C
  C249     1.0000 0.44931  0.34867  0.53584  Biso   1.000  C
  H192     1.0000 0.44920  0.35820  0.49210  Biso   1.000  H
  C250     1.0000 0.42085  0.30567  0.55514  Biso   1.000  C
  H193     1.0000 0.40100  0.28580  0.52360  Biso   1.000  H
  C251     1.0000 0.50631  0.42481  0.56740  Biso   1.000  C
  C252     1.0000 0.48782  0.44532  0.53293  Biso   1.000  C
  H194     1.0000 0.45800  0.42850  0.52050  Biso   1.000  H
  H195     1.0000 0.56780  0.38650  0.54390  Biso   1.000  H
  H196     1.0000 0.63150  0.41380  0.65300  Biso   1.000  H
  O57      1.0000 0.02886  0.55320  0.92511  Biso   1.000  O
  O58      1.0000 0.05538  0.56661  0.03085  Biso   1.000  O
  C253     1.0000 0.05428  0.57730  0.97141  Biso   1.000  C
  C254     1.0000 0.08704  0.62412  0.95116  Biso   1.000  C
  C255     1.0000 0.11663  0.65286  0.99952  Biso   1.000  C
  H197     1.0000 0.11677  0.64303  0.04303  Biso   1.000  H
  C256     1.0000 0.14558  0.69615  0.98093  Biso   1.000  C
  H198     1.0000 0.16587  0.71573  0.01223  Biso   1.000  H
  C257     1.0000 0.14524  0.71109  0.91763  Biso   1.000  C
  C258     1.0000 0.11598  0.68200  0.86917  Biso   1.000  C
  H199     1.0000 0.11587  0.69153  0.82543  Biso   1.000  H
  C259     1.0000 0.08752  0.63900  0.88847  Biso   1.000  C
  H200     1.0000 0.06767  0.61913  0.85693  Biso   1.000  H
  C260     1.0000 0.17298  0.75814  0.90073  Biso   1.000  C
  C261     1.0000 0.15449  0.77865  0.86626  Biso   1.000  C
  H201     1.0000 0.12467  0.76183  0.85383  Biso   1.000  H
  H202     1.0000 0.23447  0.71983  0.87723  Biso   1.000  H
  H203     1.0000 0.29817  0.74713  0.98633  Biso   1.000  H
  O59      1.0000 0.69552  0.88654  0.25845  Biso   1.000  O
  O60      1.0000 0.72204  0.89995  0.36419  Biso   1.000  O
  C262     1.0000 0.72094  0.91064  0.30475  Biso   1.000  C
  C263     1.0000 0.75370  0.95746  0.28450  Biso   1.000  C
  C264     1.0000 0.78329  0.98620  0.33286  Biso   1.000  C
  H204     1.0000 0.78343  0.97637  0.37637  Biso   1.000  H
  C265     1.0000 0.81224  0.02949  0.31427  Biso   1.000  C
  H205     1.0000 0.83253  0.04907  0.34557  Biso   1.000  H
  C266     1.0000 0.81190  0.04443  0.25097  Biso   1.000  C
  C267     1.0000 0.78264  0.01534  0.20251  Biso   1.000  C
  H206     1.0000 0.78253  0.02487  0.15877  Biso   1.000  H
  C268     1.0000 0.75418  0.97234  0.22181  Biso   1.000  C
  H207     1.0000 0.73433  0.95247  0.19027  Biso   1.000  H
  C269     1.0000 0.83964  0.09148  0.23407  Biso   1.000  C
  C270     1.0000 0.82115  0.11199  0.19960  Biso   1.000  C
  H208     1.0000 0.79133  0.09517  0.18717  Biso   1.000  H
  H209     1.0000 0.90113  0.05317  0.21057  Biso   1.000  H
  H210     1.0000 0.96483  0.08047  0.31967  Biso   1.000  H
  O61      1.0000 0.85768  0.63781  0.59178  Biso   1.000  O
  O62      1.0000 0.84457  0.61129  0.69752  Biso   1.000  O
  C271     1.0000 0.85636  0.61239  0.63808  Biso   1.000  C
  C272     1.0000 0.87042  0.57963  0.61783  Biso   1.000  C
  C273     1.0000 0.86957  0.55004  0.66619  Biso   1.000  C
  H211     1.0000 0.85960  0.54990  0.70970  Biso   1.000  H
  C274     1.0000 0.88391  0.52109  0.64760  Biso   1.000  C
  H212     1.0000 0.88320  0.50080  0.67890  Biso   1.000  H
  C275     1.0000 0.89919  0.52143  0.58430  Biso   1.000  C
  C276     1.0000 0.89936  0.55069  0.53584  Biso   1.000  C
  H213     1.0000 0.90900  0.55080  0.49210  Biso   1.000  H
  C277     1.0000 0.88482  0.57915  0.55514  Biso   1.000  C
  H214     1.0000 0.88480  0.59900  0.52360  Biso   1.000  H
  C278     1.0000 0.91850  0.49369  0.56740  Biso   1.000  C
  C279     1.0000 0.95750  0.51218  0.53293  Biso   1.000  C
  H215     1.0000 0.97050  0.54200  0.52050  Biso   1.000  H
  H216     1.0000 0.81870  0.43220  0.54390  Biso   1.000  H
  H217     1.0000 0.78230  0.36850  0.65300  Biso   1.000  H
  O63      1.0000 0.52435  0.97114  0.92511  Biso   1.000  O
  O64      1.0000 0.51124  0.94462  0.03085  Biso   1.000  O
  C280     1.0000 0.52303  0.94572  0.97141  Biso   1.000  C
  C281     1.0000 0.53709  0.91296  0.95116  Biso   1.000  C
  C282     1.0000 0.53624  0.88337  0.99952  Biso   1.000  C
  H218     1.0000 0.52627  0.88323  0.04303  Biso   1.000  H
  C283     1.0000 0.55058  0.85442  0.98093  Biso   1.000  C
  H219     1.0000 0.54987  0.83413  0.01223  Biso   1.000  H
  C284     1.0000 0.56586  0.85476  0.91763  Biso   1.000  C
  C285     1.0000 0.56603  0.88402  0.86917  Biso   1.000  C
  H220     1.0000 0.57567  0.88413  0.82543  Biso   1.000  H
  C286     1.0000 0.55149  0.91248  0.88847  Biso   1.000  C
  H221     1.0000 0.55147  0.93233  0.85693  Biso   1.000  H
  C287     1.0000 0.58517  0.82702  0.90073  Biso   1.000  C
  C288     1.0000 0.62417  0.84551  0.86626  Biso   1.000  C
  H222     1.0000 0.63717  0.87533  0.85383  Biso   1.000  H
  H223     1.0000 0.48537  0.76553  0.87723  Biso   1.000  H
  H224     1.0000 0.44897  0.70183  0.98633  Biso   1.000  H
  O65      1.0000 0.19101  0.30448  0.25845  Biso   1.000  O
  O66      1.0000 0.17790  0.27796  0.36419  Biso   1.000  O
  C289     1.0000 0.18969  0.27906  0.30475  Biso   1.000  C
  C290     1.0000 0.20375  0.24630  0.28450  Biso   1.000  C
  C291     1.0000 0.20290  0.21671  0.33286  Biso   1.000  C
  H225     1.0000 0.19293  0.21657  0.37637  Biso   1.000  H
  C292     1.0000 0.21724  0.18776  0.31427  Biso   1.000  C
  H226     1.0000 0.21653  0.16747  0.34557  Biso   1.000  H
  C293     1.0000 0.23252  0.18810  0.25097  Biso   1.000  C
  C294     1.0000 0.23269  0.21736  0.20251  Biso   1.000  C
  H227     1.0000 0.24233  0.21747  0.15877  Biso   1.000  H
  C295     1.0000 0.21815  0.24582  0.22181  Biso   1.000  C
  H228     1.0000 0.21813  0.26567  0.19027  Biso   1.000  H
  C296     1.0000 0.25183  0.16036  0.23407  Biso   1.000  C
  C297     1.0000 0.29083  0.17885  0.19960  Biso   1.000  C
  H229     1.0000 0.30383  0.20867  0.18717  Biso   1.000  H
  H230     1.0000 0.15203  0.09887  0.21057  Biso   1.000  H
  H231     1.0000 0.11563  0.03517  0.31967  Biso   1.000  H
  O67      1.0000 0.78013  0.14232  0.59178  Biso   1.000  O
  O68      1.0000 0.76672  0.15543  0.69752  Biso   1.000  O
  C298     1.0000 0.75603  0.14364  0.63808  Biso   1.000  C
  C299     1.0000 0.70921  0.12958  0.61783  Biso   1.000  C
  C300     1.0000 0.68047  0.13043  0.66619  Biso   1.000  C
  H232     1.0000 0.69030  0.14040  0.70970  Biso   1.000  H
  C301     1.0000 0.63718  0.11609  0.64760  Biso   1.000  C
  H233     1.0000 0.61760  0.11680  0.67890  Biso   1.000  H
  C302     1.0000 0.62224  0.10081  0.58430  Biso   1.000  C
  C303     1.0000 0.65133  0.10064  0.53584  Biso   1.000  C
  H234     1.0000 0.64180  0.09100  0.49210  Biso   1.000  H
  C304     1.0000 0.69433  0.11518  0.55514  Biso   1.000  C
  H235     1.0000 0.71420  0.11520  0.52360  Biso   1.000  H
  C305     1.0000 0.57519  0.08150  0.56740  Biso   1.000  C
  C306     1.0000 0.55468  0.04250  0.53293  Biso   1.000  C
  H236     1.0000 0.57150  0.02950  0.52050  Biso   1.000  H
  H237     1.0000 0.61350  0.18130  0.54390  Biso   1.000  H
  H238     1.0000 0.58620  0.21770  0.65300  Biso   1.000  H
  O69      1.0000 0.44680  0.47565  0.92511  Biso   1.000  O
  O70      1.0000 0.43339  0.48876  0.03085  Biso   1.000  O
  C307     1.0000 0.42270  0.47697  0.97141  Biso   1.000  C
  C308     1.0000 0.37588  0.46291  0.95116  Biso   1.000  C
  C309     1.0000 0.34714  0.46376  0.99952  Biso   1.000  C
  H239     1.0000 0.35697  0.47373  0.04303  Biso   1.000  H
  C310     1.0000 0.30385  0.44942  0.98093  Biso   1.000  C
  H240     1.0000 0.28427  0.45013  0.01223  Biso   1.000  H
  C311     1.0000 0.28891  0.43414  0.91763  Biso   1.000  C
  C312     1.0000 0.31800  0.43397  0.86917  Biso   1.000  C
  H241     1.0000 0.30847  0.42433  0.82543  Biso   1.000  H
  C313     1.0000 0.36100  0.44851  0.88847  Biso   1.000  C
  H242     1.0000 0.38087  0.44853  0.85693  Biso   1.000  H
  C314     1.0000 0.24186  0.41483  0.90073  Biso   1.000  C
  C315     1.0000 0.22135  0.37583  0.86626  Biso   1.000  C
  H243     1.0000 0.23817  0.36283  0.85383  Biso   1.000  H
  H244     1.0000 0.28017  0.51463  0.87723  Biso   1.000  H
  H245     1.0000 0.25287  0.55103  0.98633  Biso   1.000  H
  O71      1.0000 0.11346  0.80899  0.25845  Biso   1.000  O
  O72      1.0000 0.10005  0.82210  0.36419  Biso   1.000  O
  C316     1.0000 0.08936  0.81031  0.30475  Biso   1.000  C
  C317     1.0000 0.04254  0.79625  0.28450  Biso   1.000  C
  C318     1.0000 0.01380  0.79710  0.33286  Biso   1.000  C
  H246     1.0000 0.02363  0.80707  0.37637  Biso   1.000  H
  C319     1.0000 0.97051  0.78276  0.31427  Biso   1.000  C
  H247     1.0000 0.95093  0.78347  0.34557  Biso   1.000  H
  C320     1.0000 0.95557  0.76748  0.25097  Biso   1.000  C
  C321     1.0000 0.98466  0.76731  0.20251  Biso   1.000  C
  H248     1.0000 0.97513  0.75767  0.15877  Biso   1.000  H
  C322     1.0000 0.02766  0.78185  0.22181  Biso   1.000  C
  H249     1.0000 0.04753  0.78187  0.19027  Biso   1.000  H
  C323     1.0000 0.90852  0.74817  0.23407  Biso   1.000  C
  C324     1.0000 0.88801  0.70917  0.19960  Biso   1.000  C
  H250     1.0000 0.90483  0.69617  0.18717  Biso   1.000  H
  H251     1.0000 0.94683  0.84797  0.21057  Biso   1.000  H
  H252     1.0000 0.91953  0.88437  0.31967  Biso   1.000  H
  Cu1      1.0000 0.84086  0.68173  0.60638  Biso   1.000  Cu
  Cu2      1.0000 0.50753  0.01506  0.93971  Biso   1.000  Cu
  Cu3      1.0000 0.17420  0.34840  0.27305  Biso   1.000  Cu
  Cu4      1.0000 0.31827  0.15914  0.60638  Biso   1.000  Cu
  Cu5      1.0000 0.98494  0.49247  0.93971  Biso   1.000  Cu
  Cu6      1.0000 0.65160  0.82580  0.27305  Biso   1.000  Cu
  Cu7      1.0000 0.84086  0.15914  0.60638  Biso   1.000  Cu
  Cu8      1.0000 0.50753  0.49247  0.93971  Biso   1.000  Cu
  Cu9      1.0000 0.17420  0.82580  0.27305  Biso   1.000  Cu
  Cu10     1.0000 0.68173  0.84086  0.39362  Biso   1.000  Cu
  Cu11     1.0000 0.34840  0.17420  0.72695  Biso   1.000  Cu
  Cu12     1.0000 0.01506  0.50753  0.06029  Biso   1.000  Cu
  Cu13     1.0000 0.15914  0.31827  0.39362  Biso   1.000  Cu
  Cu14     1.0000 0.82580  0.65160  0.72695  Biso   1.000  Cu
  Cu15     1.0000 0.49247  0.98494  0.06029  Biso   1.000  Cu
  Cu16     1.0000 0.15914  0.84087  0.39362  Biso   1.000  Cu
  Cu17     1.0000 0.82580  0.17420  0.72695  Biso   1.000  Cu
  Cu18     1.0000 0.49247  0.50753  0.06029  Biso   1.000  Cu
  O73      1.0000 0.57092  0.42908  0.61700  Biso   1.000  O
  C325     1.0000 0.51073  0.48927  0.51550  Biso   1.000  C
  C326     1.0000 0.55066  0.44934  0.58390  Biso   1.000  C
  C327     1.0000 0.59031  0.40969  0.57210  Biso   1.000  C
  C328     1.0000 0.60994  0.39006  0.62530  Biso   1.000  C
  H253     1.0000 0.62400  0.37600  0.60210  Biso   1.000  H
  O74      1.0000 0.23759  0.76241  0.95033  Biso   1.000  O
  C329     1.0000 0.17740  0.82260  0.84883  Biso   1.000  C
  C330     1.0000 0.21733  0.78267  0.91723  Biso   1.000  C
  C331     1.0000 0.25698  0.74302  0.90543  Biso   1.000  C
  C332     1.0000 0.27661  0.72339  0.95863  Biso   1.000  C
  H254     1.0000 0.29067  0.70933  0.93543  Biso   1.000  H
  O75      1.0000 0.90425  0.09575  0.28367  Biso   1.000  O
  C333     1.0000 0.84406  0.15594  0.18217  Biso   1.000  C
  C334     1.0000 0.88399  0.11601  0.25057  Biso   1.000  C
  C335     1.0000 0.92364  0.07636  0.23877  Biso   1.000  C
  C336     1.0000 0.94327  0.05673  0.29197  Biso   1.000  C
  H255     1.0000 0.95733  0.04267  0.26877  Biso   1.000  H
  O76      1.0000 0.57092  0.14184  0.61700  Biso   1.000  O
  C337     1.0000 0.51073  0.02146  0.51550  Biso   1.000  C
  C338     1.0000 0.55066  0.10132  0.58390  Biso   1.000  C
  C339     1.0000 0.59031  0.18062  0.57210  Biso   1.000  C
  C340     1.0000 0.60994  0.21988  0.62530  Biso   1.000  C
  H256     1.0000 0.62400  0.24800  0.60210  Biso   1.000  H
  O77      1.0000 0.23759  0.47517  0.95033  Biso   1.000  O
  C341     1.0000 0.17740  0.35479  0.84883  Biso   1.000  C
  C342     1.0000 0.21733  0.43465  0.91723  Biso   1.000  C
  C343     1.0000 0.25698  0.51395  0.90543  Biso   1.000  C
  C344     1.0000 0.27661  0.55321  0.95863  Biso   1.000  C
  H257     1.0000 0.29067  0.58133  0.93543  Biso   1.000  H
  O78      1.0000 0.90425  0.80851  0.28367  Biso   1.000  O
  C345     1.0000 0.84406  0.68813  0.18217  Biso   1.000  C
  C346     1.0000 0.88399  0.76799  0.25057  Biso   1.000  C
  C347     1.0000 0.92364  0.84729  0.23877  Biso   1.000  C
  C348     1.0000 0.94327  0.88655  0.29197  Biso   1.000  C
  H258     1.0000 0.95733  0.91467  0.26877  Biso   1.000  H
  O79      1.0000 0.85816  0.42908  0.61700  Biso   1.000  O
  C349     1.0000 0.97854  0.48927  0.51550  Biso   1.000  C
  C350     1.0000 0.89868  0.44934  0.58390  Biso   1.000  C
  C351     1.0000 0.81938  0.40969  0.57210  Biso   1.000  C
  C352     1.0000 0.78012  0.39006  0.62530  Biso   1.000  C
  H259     1.0000 0.75200  0.37600  0.60210  Biso   1.000  H
  O80      1.0000 0.52483  0.76241  0.95033  Biso   1.000  O
  C353     1.0000 0.64521  0.82260  0.84883  Biso   1.000  C
  C354     1.0000 0.56535  0.78267  0.91723  Biso   1.000  C
  C355     1.0000 0.48605  0.74302  0.90543  Biso   1.000  C
  C356     1.0000 0.44679  0.72339  0.95863  Biso   1.000  C
  H260     1.0000 0.41867  0.70933  0.93543  Biso   1.000  H
  O81      1.0000 0.19149  0.09575  0.28367  Biso   1.000  O
  C357     1.0000 0.31187  0.15594  0.18217  Biso   1.000  C
  C358     1.0000 0.23201  0.11601  0.25057  Biso   1.000  C
  C359     1.0000 0.15271  0.07636  0.23877  Biso   1.000  C
  C360     1.0000 0.11345  0.05673  0.29197  Biso   1.000  C
  H261     1.0000 0.08533  0.04267  0.26877  Biso   1.000  H
  O82      1.0000 0.42908  0.57092  0.38300  Biso   1.000  O
  C361     1.0000 0.48927  0.51073  0.48450  Biso   1.000  C
  C362     1.0000 0.44934  0.55066  0.41610  Biso   1.000  C
  C363     1.0000 0.40969  0.59031  0.42790  Biso   1.000  C
  C364     1.0000 0.39006  0.60994  0.37470  Biso   1.000  C
  H262     1.0000 0.37600  0.62400  0.39790  Biso   1.000  H
  O83      1.0000 0.09575  0.90425  0.71633  Biso   1.000  O
  C365     1.0000 0.15594  0.84406  0.81783  Biso   1.000  C
  C366     1.0000 0.11601  0.88399  0.74943  Biso   1.000  C
  C367     1.0000 0.07636  0.92364  0.76123  Biso   1.000  C
  C368     1.0000 0.05673  0.94327  0.70803  Biso   1.000  C
  H263     1.0000 0.04267  0.95733  0.73123  Biso   1.000  H
  O84      1.0000 0.76241  0.23759  0.04967  Biso   1.000  O
  C369     1.0000 0.82260  0.17740  0.15117  Biso   1.000  C
  C370     1.0000 0.78267  0.21733  0.08277  Biso   1.000  C
  C371     1.0000 0.74302  0.25698  0.09457  Biso   1.000  C
  C372     1.0000 0.72339  0.27661  0.04137  Biso   1.000  C
  H264     1.0000 0.70933  0.29067  0.06457  Biso   1.000  H
  O85      1.0000 0.14184  0.57092  0.38300  Biso   1.000  O
  C373     1.0000 0.02146  0.51073  0.48450  Biso   1.000  C
  C374     1.0000 0.10132  0.55066  0.41610  Biso   1.000  C
  C375     1.0000 0.18062  0.59031  0.42790  Biso   1.000  C
  C376     1.0000 0.21988  0.60994  0.37470  Biso   1.000  C
  H265     1.0000 0.24800  0.62400  0.39790  Biso   1.000  H
  O86      1.0000 0.80851  0.90425  0.71633  Biso   1.000  O
  C377     1.0000 0.68813  0.84406  0.81783  Biso   1.000  C
  C378     1.0000 0.76799  0.88399  0.74943  Biso   1.000  C
  C379     1.0000 0.84729  0.92364  0.76123  Biso   1.000  C
  C380     1.0000 0.88655  0.94327  0.70803  Biso   1.000  C
  H266     1.0000 0.91467  0.95733  0.73123  Biso   1.000  H
  O87      1.0000 0.47517  0.23759  0.04967  Biso   1.000  O
  C381     1.0000 0.35479  0.17740  0.15117  Biso   1.000  C
  C382     1.0000 0.43465  0.21733  0.08277  Biso   1.000  C
  C383     1.0000 0.51395  0.25698  0.09457  Biso   1.000  C
  C384     1.0000 0.55321  0.27661  0.04137  Biso   1.000  C
  H267     1.0000 0.58133  0.29067  0.06457  Biso   1.000  H
  O88      1.0000 0.42908  0.85816  0.38300  Biso   1.000  O
  C385     1.0000 0.48927  0.97854  0.48450  Biso   1.000  C
  C386     1.0000 0.44934  0.89868  0.41610  Biso   1.000  C
  C387     1.0000 0.40969  0.81938  0.42790  Biso   1.000  C
  C388     1.0000 0.39006  0.78012  0.37470  Biso   1.000  C
  H268     1.0000 0.37600  0.75200  0.39790  Biso   1.000  H
  O89      1.0000 0.09575  0.19149  0.71633  Biso   1.000  O
  C389     1.0000 0.15594  0.31187  0.81783  Biso   1.000  C
  C390     1.0000 0.11601  0.23201  0.74943  Biso   1.000  C
  C391     1.0000 0.07636  0.15271  0.76123  Biso   1.000  C
  C392     1.0000 0.05673  0.11345  0.70803  Biso   1.000  C
  H269     1.0000 0.04267  0.08533  0.73123  Biso   1.000  H
  O90      1.0000 0.76241  0.52483  0.04967  Biso   1.000  O
  C393     1.0000 0.82260  0.64521  0.15117  Biso   1.000  C
  C394     1.0000 0.78267  0.56535  0.08277  Biso   1.000  C
  C395     1.0000 0.74302  0.48605  0.09457  Biso   1.000  C
  C396     1.0000 0.72339  0.44679  0.04137  Biso   1.000  C
  H270     1.0000 0.70933  0.41867  0.06457  Biso   1.000  H
