data_image0
_cell_length_a       35.8373
_cell_length_b       35.8373
_cell_length_c       15.1343
_cell_angle_alpha    90
_cell_angle_beta     90
_cell_angle_gamma    120

_symmetry_space_group_name_H-M    "P 1"
_symmetry_int_tables_number       1

loop_
  _symmetry_equiv_pos_as_xyz
  'x, y, z'

loop_
  _atom_site_label
  _atom_site_occupancy
  _atom_site_fract_x
  _atom_site_fract_y
  _atom_site_fract_z
  _atom_site_thermal_displace_type
  _atom_site_B_iso_or_equiv
  _atom_site_type_symbol
  O1       1.0000 0.55762  0.03840  0.58020  Biso   1.000  O
  O2       1.0000 0.56401  0.05079  0.43330  Biso   1.000  O
  C1       1.0000 0.57842  0.05697  0.50870  Biso   1.000  C
  C2       1.0000 0.62506  0.08907  0.52340  Biso   1.000  C
  C3       1.0000 0.65183  0.11030  0.45680  Biso   1.000  C
  H1       1.0000 0.64120  0.10600  0.39940  Biso   1.000  H
  C4       1.0000 0.69541  0.13880  0.47220  Biso   1.000  C
  H2       1.0000 0.71290  0.15370  0.42450  Biso   1.000  H
  C5       1.0000 0.71295  0.14551  0.55190  Biso   1.000  C
  C6       1.0000 0.68521  0.12580  0.62270  Biso   1.000  C
  H3       1.0000 0.69620  0.13130  0.67980  Biso   1.000  H
  C7       1.0000 0.64173  0.09820  0.60990  Biso   1.000  C
  H4       1.0000 0.62350  0.08580  0.65810  Biso   1.000  H
  C8       1.0000 0.75994  0.17267  0.57000  Biso   1.000  C
  C9       1.0000 0.77982  0.15421  0.61770  Biso   1.000  C
  H5       1.0000 0.76360  0.12530  0.63360  Biso   1.000  H
  H6       1.0000 0.77080  0.27290  0.59910  Biso   1.000  H
  H7       1.0000 0.74520  0.29850  0.48240  Biso   1.000  H
  O3       1.0000 0.22429  0.37173  0.91353  Biso   1.000  O
  O4       1.0000 0.23068  0.38412  0.76663  Biso   1.000  O
  C10      1.0000 0.24509  0.39030  0.84203  Biso   1.000  C
  C11      1.0000 0.29173  0.42240  0.85673  Biso   1.000  C
  C12      1.0000 0.31850  0.44363  0.79013  Biso   1.000  C
  H8       1.0000 0.30787  0.43933  0.73273  Biso   1.000  H
  C13      1.0000 0.36208  0.47213  0.80553  Biso   1.000  C
  H9       1.0000 0.37957  0.48703  0.75783  Biso   1.000  H
  C14      1.0000 0.37962  0.47884  0.88523  Biso   1.000  C
  C15      1.0000 0.35188  0.45913  0.95603  Biso   1.000  C
  H10      1.0000 0.36287  0.46463  0.01313  Biso   1.000  H
  C16      1.0000 0.30840  0.43153  0.94323  Biso   1.000  C
  H11      1.0000 0.29017  0.41913  0.99143  Biso   1.000  H
  C17      1.0000 0.42661  0.50600  0.90333  Biso   1.000  C
  C18      1.0000 0.44649  0.48754  0.95103  Biso   1.000  C
  H12      1.0000 0.43027  0.45863  0.96693  Biso   1.000  H
  H13      1.0000 0.43747  0.60623  0.93243  Biso   1.000  H
  H14      1.0000 0.41187  0.63183  0.81573  Biso   1.000  H
  O5       1.0000 0.89095  0.70507  0.24687  Biso   1.000  O
  O6       1.0000 0.89734  0.71746  0.09997  Biso   1.000  O
  C19      1.0000 0.91175  0.72364  0.17537  Biso   1.000  C
  C20      1.0000 0.95839  0.75574  0.19007  Biso   1.000  C
  C21      1.0000 0.98516  0.77697  0.12347  Biso   1.000  C
  H15      1.0000 0.97453  0.77267  0.06607  Biso   1.000  H
  C22      1.0000 0.02874  0.80547  0.13887  Biso   1.000  C
  H16      1.0000 0.04623  0.82037  0.09117  Biso   1.000  H
  C23      1.0000 0.04628  0.81218  0.21857  Biso   1.000  C
  C24      1.0000 0.01854  0.79247  0.28937  Biso   1.000  C
  H17      1.0000 0.02953  0.79797  0.34647  Biso   1.000  H
  C25      1.0000 0.97506  0.76487  0.27657  Biso   1.000  C
  H18      1.0000 0.95683  0.75247  0.32477  Biso   1.000  H
  C26      1.0000 0.09327  0.83934  0.23667  Biso   1.000  C
  C27      1.0000 0.11315  0.82088  0.28437  Biso   1.000  C
  H19      1.0000 0.09693  0.79197  0.30027  Biso   1.000  H
  H20      1.0000 0.10413  0.93957  0.26577  Biso   1.000  H
  H21      1.0000 0.07853  0.96517  0.14907  Biso   1.000  H
  O7       1.0000 0.96160  0.51922  0.58020  Biso   1.000  O
  O8       1.0000 0.94921  0.51322  0.43330  Biso   1.000  O
  C28      1.0000 0.94303  0.52145  0.50870  Biso   1.000  C
  C29      1.0000 0.91093  0.53599  0.52340  Biso   1.000  C
  C30      1.0000 0.88970  0.54153  0.45680  Biso   1.000  C
  H22      1.0000 0.89400  0.53520  0.39940  Biso   1.000  H
  C31      1.0000 0.86120  0.55661  0.47220  Biso   1.000  C
  H23      1.0000 0.84630  0.55920  0.42450  Biso   1.000  H
  C32      1.0000 0.85449  0.56744  0.55190  Biso   1.000  C
  C33      1.0000 0.87420  0.55941  0.62270  Biso   1.000  C
  H24      1.0000 0.86870  0.56490  0.67980  Biso   1.000  H
  C34      1.0000 0.90180  0.54353  0.60990  Biso   1.000  C
  H25      1.0000 0.91420  0.53770  0.65810  Biso   1.000  H
  C35      1.0000 0.82733  0.58727  0.57000  Biso   1.000  C
  C36      1.0000 0.84579  0.62561  0.61770  Biso   1.000  C
  H26      1.0000 0.87470  0.63830  0.63360  Biso   1.000  H
  H27      1.0000 0.72710  0.49790  0.59910  Biso   1.000  H
  H28      1.0000 0.70150  0.44670  0.48240  Biso   1.000  H
  O9       1.0000 0.62827  0.85255  0.91353  Biso   1.000  O
  O10      1.0000 0.61588  0.84655  0.76663  Biso   1.000  O
  C37      1.0000 0.60970  0.85478  0.84203  Biso   1.000  C
  C38      1.0000 0.57760  0.86932  0.85673  Biso   1.000  C
  C39      1.0000 0.55637  0.87486  0.79013  Biso   1.000  C
  H29      1.0000 0.56067  0.86853  0.73273  Biso   1.000  H
  C40      1.0000 0.52787  0.88994  0.80553  Biso   1.000  C
  H30      1.0000 0.51297  0.89253  0.75783  Biso   1.000  H
  C41      1.0000 0.52116  0.90077  0.88523  Biso   1.000  C
  C42      1.0000 0.54087  0.89274  0.95603  Biso   1.000  C
  H31      1.0000 0.53537  0.89823  0.01313  Biso   1.000  H
  C43      1.0000 0.56847  0.87686  0.94323  Biso   1.000  C
  H32      1.0000 0.58087  0.87103  0.99143  Biso   1.000  H
  C44      1.0000 0.49400  0.92060  0.90333  Biso   1.000  C
  C45      1.0000 0.51246  0.95894  0.95103  Biso   1.000  C
  H33      1.0000 0.54137  0.97163  0.96693  Biso   1.000  H
  H34      1.0000 0.39377  0.83123  0.93243  Biso   1.000  H
  H35      1.0000 0.36817  0.78003  0.81573  Biso   1.000  H
  O11      1.0000 0.29493  0.18589  0.24687  Biso   1.000  O
  O12      1.0000 0.28254  0.17989  0.09997  Biso   1.000  O
  C46      1.0000 0.27636  0.18812  0.17537  Biso   1.000  C
  C47      1.0000 0.24426  0.20266  0.19007  Biso   1.000  C
  C48      1.0000 0.22303  0.20820  0.12347  Biso   1.000  C
  H36      1.0000 0.22733  0.20187  0.06607  Biso   1.000  H
  C49      1.0000 0.19453  0.22328  0.13887  Biso   1.000  C
  H37      1.0000 0.17963  0.22587  0.09117  Biso   1.000  H
  C50      1.0000 0.18782  0.23411  0.21857  Biso   1.000  C
  C51      1.0000 0.20753  0.22608  0.28937  Biso   1.000  C
  H38      1.0000 0.20203  0.23157  0.34647  Biso   1.000  H
  C52      1.0000 0.23513  0.21020  0.27657  Biso   1.000  C
  H39      1.0000 0.24753  0.20437  0.32477  Biso   1.000  H
  C53      1.0000 0.16066  0.25394  0.23667  Biso   1.000  C
  C54      1.0000 0.17912  0.29228  0.28437  Biso   1.000  C
  H40      1.0000 0.20803  0.30497  0.30027  Biso   1.000  H
  H41      1.0000 0.06043  0.16457  0.26577  Biso   1.000  H
  H42      1.0000 0.03483  0.11337  0.14907  Biso   1.000  H
  O13      1.0000 0.48078  0.44238  0.58020  Biso   1.000  O
  O14      1.0000 0.48678  0.43599  0.43330  Biso   1.000  O
  C55      1.0000 0.47855  0.42158  0.50870  Biso   1.000  C
  C56      1.0000 0.46401  0.37494  0.52340  Biso   1.000  C
  C57      1.0000 0.45847  0.34817  0.45680  Biso   1.000  C
  H43      1.0000 0.46480  0.35880  0.39940  Biso   1.000  H
  C58      1.0000 0.44339  0.30459  0.47220  Biso   1.000  C
  H44      1.0000 0.44080  0.28710  0.42450  Biso   1.000  H
  C59      1.0000 0.43256  0.28705  0.55190  Biso   1.000  C
  C60      1.0000 0.44059  0.31479  0.62270  Biso   1.000  C
  H45      1.0000 0.43510  0.30380  0.67980  Biso   1.000  H
  C61      1.0000 0.45647  0.35827  0.60990  Biso   1.000  C
  H46      1.0000 0.46230  0.37650  0.65810  Biso   1.000  H
  C62      1.0000 0.41273  0.24006  0.57000  Biso   1.000  C
  C63      1.0000 0.37439  0.22018  0.61770  Biso   1.000  C
  H47      1.0000 0.36170  0.23640  0.63360  Biso   1.000  H
  H48      1.0000 0.50210  0.22920  0.59910  Biso   1.000  H
  H49      1.0000 0.55330  0.25480  0.48240  Biso   1.000  H
  O15      1.0000 0.14745  0.77571  0.91353  Biso   1.000  O
  O16      1.0000 0.15345  0.76932  0.76663  Biso   1.000  O
  C64      1.0000 0.14522  0.75491  0.84203  Biso   1.000  C
  C65      1.0000 0.13068  0.70827  0.85673  Biso   1.000  C
  C66      1.0000 0.12514  0.68150  0.79013  Biso   1.000  C
  H50      1.0000 0.13147  0.69213  0.73273  Biso   1.000  H
  C67      1.0000 0.11006  0.63792  0.80553  Biso   1.000  C
  H51      1.0000 0.10747  0.62043  0.75783  Biso   1.000  H
  C68      1.0000 0.09923  0.62038  0.88523  Biso   1.000  C
  C69      1.0000 0.10726  0.64812  0.95603  Biso   1.000  C
  H52      1.0000 0.10177  0.63713  0.01313  Biso   1.000  H
  C70      1.0000 0.12314  0.69160  0.94323  Biso   1.000  C
  H53      1.0000 0.12897  0.70983  0.99143  Biso   1.000  H
  C71      1.0000 0.07940  0.57339  0.90333  Biso   1.000  C
  C72      1.0000 0.04106  0.55351  0.95103  Biso   1.000  C
  H54      1.0000 0.02837  0.56973  0.96693  Biso   1.000  H
  H55      1.0000 0.16877  0.56253  0.93243  Biso   1.000  H
  H56      1.0000 0.21997  0.58813  0.81573  Biso   1.000  H
  O17      1.0000 0.81411  0.10905  0.24687  Biso   1.000  O
  O18      1.0000 0.82011  0.10266  0.09997  Biso   1.000  O
  C73      1.0000 0.81188  0.08825  0.17537  Biso   1.000  C
  C74      1.0000 0.79734  0.04161  0.19007  Biso   1.000  C
  C75      1.0000 0.79180  0.01484  0.12347  Biso   1.000  C
  H57      1.0000 0.79813  0.02547  0.06607  Biso   1.000  H
  C76      1.0000 0.77672  0.97126  0.13887  Biso   1.000  C
  H58      1.0000 0.77413  0.95377  0.09117  Biso   1.000  H
  C77      1.0000 0.76589  0.95372  0.21857  Biso   1.000  C
  C78      1.0000 0.77392  0.98146  0.28937  Biso   1.000  C
  H59      1.0000 0.76843  0.97047  0.34647  Biso   1.000  H
  C79      1.0000 0.78980  0.02494  0.27657  Biso   1.000  C
  H60      1.0000 0.79563  0.04317  0.32477  Biso   1.000  H
  C80      1.0000 0.74606  0.90673  0.23667  Biso   1.000  C
  C81      1.0000 0.70772  0.88685  0.28437  Biso   1.000  C
  H61      1.0000 0.69503  0.90307  0.30027  Biso   1.000  H
  H62      1.0000 0.83543  0.89587  0.26577  Biso   1.000  H
  H63      1.0000 0.88663  0.92147  0.14907  Biso   1.000  H
  O19      1.0000 0.03840  0.55762  0.41980  Biso   1.000  O
  O20      1.0000 0.05079  0.56401  0.56670  Biso   1.000  O
  C82      1.0000 0.05697  0.57842  0.49130  Biso   1.000  C
  C83      1.0000 0.08907  0.62506  0.47660  Biso   1.000  C
  C84      1.0000 0.11030  0.65183  0.54320  Biso   1.000  C
  H64      1.0000 0.10600  0.64120  0.60060  Biso   1.000  H
  C85      1.0000 0.13880  0.69541  0.52780  Biso   1.000  C
  H65      1.0000 0.15370  0.71290  0.57550  Biso   1.000  H
  C86      1.0000 0.14551  0.71295  0.44810  Biso   1.000  C
  C87      1.0000 0.12580  0.68521  0.37730  Biso   1.000  C
  H66      1.0000 0.13130  0.69620  0.32020  Biso   1.000  H
  C88      1.0000 0.09820  0.64173  0.39010  Biso   1.000  C
  H67      1.0000 0.08580  0.62350  0.34190  Biso   1.000  H
  C89      1.0000 0.17267  0.75994  0.43000  Biso   1.000  C
  C90      1.0000 0.15421  0.77982  0.38230  Biso   1.000  C
  H68      1.0000 0.12530  0.76360  0.36640  Biso   1.000  H
  H69      1.0000 0.27290  0.77080  0.40090  Biso   1.000  H
  H70      1.0000 0.29850  0.74520  0.51760  Biso   1.000  H
  O21      1.0000 0.70507  0.89095  0.75313  Biso   1.000  O
  O22      1.0000 0.71746  0.89734  0.90003  Biso   1.000  O
  C91      1.0000 0.72364  0.91175  0.82463  Biso   1.000  C
  C92      1.0000 0.75574  0.95839  0.80993  Biso   1.000  C
  C93      1.0000 0.77697  0.98516  0.87653  Biso   1.000  C
  H71      1.0000 0.77267  0.97453  0.93393  Biso   1.000  H
  C94      1.0000 0.80547  0.02874  0.86113  Biso   1.000  C
  H72      1.0000 0.82037  0.04623  0.90883  Biso   1.000  H
  C95      1.0000 0.81218  0.04628  0.78143  Biso   1.000  C
  C96      1.0000 0.79247  0.01854  0.71063  Biso   1.000  C
  H73      1.0000 0.79797  0.02953  0.65353  Biso   1.000  H
  C97      1.0000 0.76487  0.97506  0.72343  Biso   1.000  C
  H74      1.0000 0.75247  0.95683  0.67523  Biso   1.000  H
  C98      1.0000 0.83934  0.09327  0.76333  Biso   1.000  C
  C99      1.0000 0.82088  0.11315  0.71563  Biso   1.000  C
  H75      1.0000 0.79197  0.09693  0.69973  Biso   1.000  H
  H76      1.0000 0.93957  0.10413  0.73423  Biso   1.000  H
  H77      1.0000 0.96517  0.07853  0.85093  Biso   1.000  H
  O23      1.0000 0.37173  0.22429  0.08647  Biso   1.000  O
  O24      1.0000 0.38412  0.23068  0.23337  Biso   1.000  O
  C100     1.0000 0.39030  0.24509  0.15797  Biso   1.000  C
  C101     1.0000 0.42240  0.29173  0.14327  Biso   1.000  C
  C102     1.0000 0.44363  0.31850  0.20987  Biso   1.000  C
  H78      1.0000 0.43933  0.30787  0.26727  Biso   1.000  H
  C103     1.0000 0.47213  0.36208  0.19447  Biso   1.000  C
  H79      1.0000 0.48703  0.37957  0.24217  Biso   1.000  H
  C104     1.0000 0.47884  0.37962  0.11477  Biso   1.000  C
  C105     1.0000 0.45913  0.35188  0.04397  Biso   1.000  C
  H80      1.0000 0.46463  0.36287  0.98687  Biso   1.000  H
  C106     1.0000 0.43153  0.30840  0.05677  Biso   1.000  C
  H81      1.0000 0.41913  0.29017  0.00857  Biso   1.000  H
  C107     1.0000 0.50600  0.42661  0.09667  Biso   1.000  C
  C108     1.0000 0.48754  0.44649  0.04897  Biso   1.000  C
  H82      1.0000 0.45863  0.43027  0.03307  Biso   1.000  H
  H83      1.0000 0.60623  0.43747  0.06757  Biso   1.000  H
  H84      1.0000 0.63183  0.41187  0.18427  Biso   1.000  H
  O25      1.0000 0.51922  0.96160  0.41980  Biso   1.000  O
  O26      1.0000 0.51322  0.94921  0.56670  Biso   1.000  O
  C109     1.0000 0.52145  0.94303  0.49130  Biso   1.000  C
  C110     1.0000 0.53599  0.91093  0.47660  Biso   1.000  C
  C111     1.0000 0.54153  0.88970  0.54320  Biso   1.000  C
  H85      1.0000 0.53520  0.89400  0.60060  Biso   1.000  H
  C112     1.0000 0.55661  0.86120  0.52780  Biso   1.000  C
  H86      1.0000 0.55920  0.84630  0.57550  Biso   1.000  H
  C113     1.0000 0.56744  0.85449  0.44810  Biso   1.000  C
  C114     1.0000 0.55941  0.87420  0.37730  Biso   1.000  C
  H87      1.0000 0.56490  0.86870  0.32020  Biso   1.000  H
  C115     1.0000 0.54353  0.90180  0.39010  Biso   1.000  C
  H88      1.0000 0.53770  0.91420  0.34190  Biso   1.000  H
  C116     1.0000 0.58727  0.82733  0.43000  Biso   1.000  C
  C117     1.0000 0.62561  0.84579  0.38230  Biso   1.000  C
  H89      1.0000 0.63830  0.87470  0.36640  Biso   1.000  H
  H90      1.0000 0.49790  0.72710  0.40090  Biso   1.000  H
  H91      1.0000 0.44670  0.70150  0.51760  Biso   1.000  H
  O27      1.0000 0.18589  0.29493  0.75313  Biso   1.000  O
  O28      1.0000 0.17989  0.28254  0.90003  Biso   1.000  O
  C118     1.0000 0.18812  0.27636  0.82463  Biso   1.000  C
  C119     1.0000 0.20266  0.24426  0.80993  Biso   1.000  C
  C120     1.0000 0.20820  0.22303  0.87653  Biso   1.000  C
  H92      1.0000 0.20187  0.22733  0.93393  Biso   1.000  H
  C121     1.0000 0.22328  0.19453  0.86113  Biso   1.000  C
  H93      1.0000 0.22587  0.17963  0.90883  Biso   1.000  H
  C122     1.0000 0.23411  0.18782  0.78143  Biso   1.000  C
  C123     1.0000 0.22608  0.20753  0.71063  Biso   1.000  C
  H94      1.0000 0.23157  0.20203  0.65353  Biso   1.000  H
  C124     1.0000 0.21020  0.23513  0.72343  Biso   1.000  C
  H95      1.0000 0.20437  0.24753  0.67523  Biso   1.000  H
  C125     1.0000 0.25394  0.16066  0.76333  Biso   1.000  C
  C126     1.0000 0.29228  0.17912  0.71563  Biso   1.000  C
  H96      1.0000 0.30497  0.20803  0.69973  Biso   1.000  H
  H97      1.0000 0.16457  0.06043  0.73423  Biso   1.000  H
  H98      1.0000 0.11337  0.03483  0.85093  Biso   1.000  H
  O29      1.0000 0.85255  0.62827  0.08647  Biso   1.000  O
  O30      1.0000 0.84655  0.61588  0.23337  Biso   1.000  O
  C127     1.0000 0.85478  0.60970  0.15797  Biso   1.000  C
  C128     1.0000 0.86932  0.57760  0.14327  Biso   1.000  C
  C129     1.0000 0.87486  0.55637  0.20987  Biso   1.000  C
  H99      1.0000 0.86853  0.56067  0.26727  Biso   1.000  H
  C130     1.0000 0.88994  0.52787  0.19447  Biso   1.000  C
  H100     1.0000 0.89253  0.51297  0.24217  Biso   1.000  H
  C131     1.0000 0.90077  0.52116  0.11477  Biso   1.000  C
  C132     1.0000 0.89274  0.54087  0.04397  Biso   1.000  C
  H101     1.0000 0.89823  0.53537  0.98687  Biso   1.000  H
  C133     1.0000 0.87686  0.56847  0.05677  Biso   1.000  C
  H102     1.0000 0.87103  0.58087  0.00857  Biso   1.000  H
  C134     1.0000 0.92060  0.49400  0.09667  Biso   1.000  C
  C135     1.0000 0.95894  0.51246  0.04897  Biso   1.000  C
  H103     1.0000 0.97163  0.54137  0.03307  Biso   1.000  H
  H104     1.0000 0.83123  0.39377  0.06757  Biso   1.000  H
  H105     1.0000 0.78003  0.36817  0.18427  Biso   1.000  H
  O31      1.0000 0.44238  0.48078  0.41980  Biso   1.000  O
  O32      1.0000 0.43599  0.48678  0.56670  Biso   1.000  O
  C136     1.0000 0.42158  0.47855  0.49130  Biso   1.000  C
  C137     1.0000 0.37494  0.46401  0.47660  Biso   1.000  C
  C138     1.0000 0.34817  0.45847  0.54320  Biso   1.000  C
  H106     1.0000 0.35880  0.46480  0.60060  Biso   1.000  H
  C139     1.0000 0.30459  0.44339  0.52780  Biso   1.000  C
  H107     1.0000 0.28710  0.44080  0.57550  Biso   1.000  H
  C140     1.0000 0.28705  0.43256  0.44810  Biso   1.000  C
  C141     1.0000 0.31479  0.44059  0.37730  Biso   1.000  C
  H108     1.0000 0.30380  0.43510  0.32020  Biso   1.000  H
  C142     1.0000 0.35827  0.45647  0.39010  Biso   1.000  C
  H109     1.0000 0.37650  0.46230  0.34190  Biso   1.000  H
  C143     1.0000 0.24006  0.41273  0.43000  Biso   1.000  C
  C144     1.0000 0.22018  0.37439  0.38230  Biso   1.000  C
  H110     1.0000 0.23640  0.36170  0.36640  Biso   1.000  H
  H111     1.0000 0.22920  0.50210  0.40090  Biso   1.000  H
  H112     1.0000 0.25480  0.55330  0.51760  Biso   1.000  H
  O33      1.0000 0.10905  0.81411  0.75313  Biso   1.000  O
  O34      1.0000 0.10266  0.82011  0.90003  Biso   1.000  O
  C145     1.0000 0.08825  0.81188  0.82463  Biso   1.000  C
  C146     1.0000 0.04161  0.79734  0.80993  Biso   1.000  C
  C147     1.0000 0.01484  0.79180  0.87653  Biso   1.000  C
  H113     1.0000 0.02547  0.79813  0.93393  Biso   1.000  H
  C148     1.0000 0.97126  0.77672  0.86113  Biso   1.000  C
  H114     1.0000 0.95377  0.77413  0.90883  Biso   1.000  H
  C149     1.0000 0.95372  0.76589  0.78143  Biso   1.000  C
  C150     1.0000 0.98146  0.77392  0.71063  Biso   1.000  C
  H115     1.0000 0.97047  0.76843  0.65353  Biso   1.000  H
  C151     1.0000 0.02494  0.78980  0.72343  Biso   1.000  C
  H116     1.0000 0.04317  0.79563  0.67523  Biso   1.000  H
  C152     1.0000 0.90673  0.74606  0.76333  Biso   1.000  C
  C153     1.0000 0.88685  0.70772  0.71563  Biso   1.000  C
  H117     1.0000 0.90307  0.69503  0.69973  Biso   1.000  H
  H118     1.0000 0.89587  0.83543  0.73423  Biso   1.000  H
  H119     1.0000 0.92147  0.88663  0.85093  Biso   1.000  H
  O35      1.0000 0.77571  0.14745  0.08647  Biso   1.000  O
  O36      1.0000 0.76932  0.15345  0.23337  Biso   1.000  O
  C154     1.0000 0.75491  0.14522  0.15797  Biso   1.000  C
  C155     1.0000 0.70827  0.13068  0.14327  Biso   1.000  C
  C156     1.0000 0.68150  0.12514  0.20987  Biso   1.000  C
  H120     1.0000 0.69213  0.13147  0.26727  Biso   1.000  H
  C157     1.0000 0.63792  0.11006  0.19447  Biso   1.000  C
  H121     1.0000 0.62043  0.10747  0.24217  Biso   1.000  H
  C158     1.0000 0.62038  0.09923  0.11477  Biso   1.000  C
  C159     1.0000 0.64812  0.10726  0.04397  Biso   1.000  C
  H122     1.0000 0.63713  0.10177  0.98687  Biso   1.000  H
  C160     1.0000 0.69160  0.12314  0.05677  Biso   1.000  C
  H123     1.0000 0.70983  0.12897  0.00857  Biso   1.000  H
  C161     1.0000 0.57339  0.07940  0.09667  Biso   1.000  C
  C162     1.0000 0.55351  0.04106  0.04897  Biso   1.000  C
  H124     1.0000 0.56973  0.02837  0.03307  Biso   1.000  H
  H125     1.0000 0.56253  0.16877  0.06757  Biso   1.000  H
  H126     1.0000 0.58813  0.21997  0.18427  Biso   1.000  H
  O37      1.0000 0.44238  0.96160  0.41980  Biso   1.000  O
  O38      1.0000 0.43599  0.94921  0.56670  Biso   1.000  O
  C163     1.0000 0.42158  0.94303  0.49130  Biso   1.000  C
  C164     1.0000 0.37494  0.91093  0.47660  Biso   1.000  C
  C165     1.0000 0.34817  0.88970  0.54320  Biso   1.000  C
  H127     1.0000 0.35880  0.89400  0.60060  Biso   1.000  H
  C166     1.0000 0.30459  0.86120  0.52780  Biso   1.000  C
  H128     1.0000 0.28710  0.84630  0.57550  Biso   1.000  H
  C167     1.0000 0.28705  0.85449  0.44810  Biso   1.000  C
  C168     1.0000 0.31479  0.87420  0.37730  Biso   1.000  C
  H129     1.0000 0.30380  0.86870  0.32020  Biso   1.000  H
  C169     1.0000 0.35827  0.90180  0.39010  Biso   1.000  C
  H130     1.0000 0.37650  0.91420  0.34190  Biso   1.000  H
  C170     1.0000 0.24006  0.82733  0.43000  Biso   1.000  C
  C171     1.0000 0.22018  0.84579  0.38230  Biso   1.000  C
  H131     1.0000 0.23640  0.87470  0.36640  Biso   1.000  H
  H132     1.0000 0.22920  0.72710  0.40090  Biso   1.000  H
  H133     1.0000 0.25480  0.70150  0.51760  Biso   1.000  H
  O39      1.0000 0.10905  0.29493  0.75313  Biso   1.000  O
  O40      1.0000 0.10266  0.28254  0.90003  Biso   1.000  O
  C172     1.0000 0.08825  0.27636  0.82463  Biso   1.000  C
  C173     1.0000 0.04161  0.24426  0.80993  Biso   1.000  C
  C174     1.0000 0.01484  0.22303  0.87653  Biso   1.000  C
  H134     1.0000 0.02547  0.22733  0.93393  Biso   1.000  H
  C175     1.0000 0.97126  0.19453  0.86113  Biso   1.000  C
  H135     1.0000 0.95377  0.17963  0.90883  Biso   1.000  H
  C176     1.0000 0.95372  0.18782  0.78143  Biso   1.000  C
  C177     1.0000 0.98146  0.20753  0.71063  Biso   1.000  C
  H136     1.0000 0.97047  0.20203  0.65353  Biso   1.000  H
  C178     1.0000 0.02494  0.23513  0.72343  Biso   1.000  C
  H137     1.0000 0.04317  0.24753  0.67523  Biso   1.000  H
  C179     1.0000 0.90673  0.16066  0.76333  Biso   1.000  C
  C180     1.0000 0.88685  0.17912  0.71563  Biso   1.000  C
  H138     1.0000 0.90307  0.20803  0.69973  Biso   1.000  H
  H139     1.0000 0.89587  0.06043  0.73423  Biso   1.000  H
  H140     1.0000 0.92147  0.03483  0.85093  Biso   1.000  H
  O41      1.0000 0.77571  0.62827  0.08647  Biso   1.000  O
  O42      1.0000 0.76932  0.61588  0.23337  Biso   1.000  O
  C181     1.0000 0.75491  0.60970  0.15797  Biso   1.000  C
  C182     1.0000 0.70827  0.57760  0.14327  Biso   1.000  C
  C183     1.0000 0.68150  0.55637  0.20987  Biso   1.000  C
  H141     1.0000 0.69213  0.56067  0.26727  Biso   1.000  H
  C184     1.0000 0.63792  0.52787  0.19447  Biso   1.000  C
  H142     1.0000 0.62043  0.51297  0.24217  Biso   1.000  H
  C185     1.0000 0.62038  0.52116  0.11477  Biso   1.000  C
  C186     1.0000 0.64812  0.54087  0.04397  Biso   1.000  C
  H143     1.0000 0.63713  0.53537  0.98687  Biso   1.000  H
  C187     1.0000 0.69160  0.56847  0.05677  Biso   1.000  C
  H144     1.0000 0.70983  0.58087  0.00857  Biso   1.000  H
  C188     1.0000 0.57339  0.49400  0.09667  Biso   1.000  C
  C189     1.0000 0.55351  0.51246  0.04897  Biso   1.000  C
  H145     1.0000 0.56973  0.54137  0.03307  Biso   1.000  H
  H146     1.0000 0.56253  0.39377  0.06757  Biso   1.000  H
  H147     1.0000 0.58813  0.36817  0.18427  Biso   1.000  H
  O43      1.0000 0.03840  0.48078  0.41980  Biso   1.000  O
  O44      1.0000 0.05079  0.48678  0.56670  Biso   1.000  O
  C190     1.0000 0.05697  0.47855  0.49130  Biso   1.000  C
  C191     1.0000 0.08907  0.46401  0.47660  Biso   1.000  C
  C192     1.0000 0.11030  0.45847  0.54320  Biso   1.000  C
  H148     1.0000 0.10600  0.46480  0.60060  Biso   1.000  H
  C193     1.0000 0.13880  0.44339  0.52780  Biso   1.000  C
  H149     1.0000 0.15370  0.44080  0.57550  Biso   1.000  H
  C194     1.0000 0.14551  0.43256  0.44810  Biso   1.000  C
  C195     1.0000 0.12580  0.44059  0.37730  Biso   1.000  C
  H150     1.0000 0.13130  0.43510  0.32020  Biso   1.000  H
  C196     1.0000 0.09820  0.45647  0.39010  Biso   1.000  C
  H151     1.0000 0.08580  0.46230  0.34190  Biso   1.000  H
  C197     1.0000 0.17267  0.41273  0.43000  Biso   1.000  C
  C198     1.0000 0.15421  0.37439  0.38230  Biso   1.000  C
  H152     1.0000 0.12530  0.36170  0.36640  Biso   1.000  H
  H153     1.0000 0.27290  0.50210  0.40090  Biso   1.000  H
  H154     1.0000 0.29850  0.55330  0.51760  Biso   1.000  H
  O45      1.0000 0.70507  0.81411  0.75313  Biso   1.000  O
  O46      1.0000 0.71746  0.82011  0.90003  Biso   1.000  O
  C199     1.0000 0.72364  0.81188  0.82463  Biso   1.000  C
  C200     1.0000 0.75574  0.79734  0.80993  Biso   1.000  C
  C201     1.0000 0.77697  0.79180  0.87653  Biso   1.000  C
  H155     1.0000 0.77267  0.79813  0.93393  Biso   1.000  H
  C202     1.0000 0.80547  0.77672  0.86113  Biso   1.000  C
  H156     1.0000 0.82037  0.77413  0.90883  Biso   1.000  H
  C203     1.0000 0.81218  0.76589  0.78143  Biso   1.000  C
  C204     1.0000 0.79247  0.77392  0.71063  Biso   1.000  C
  H157     1.0000 0.79797  0.76843  0.65353  Biso   1.000  H
  C205     1.0000 0.76487  0.78980  0.72343  Biso   1.000  C
  H158     1.0000 0.75247  0.79563  0.67523  Biso   1.000  H
  C206     1.0000 0.83934  0.74606  0.76333  Biso   1.000  C
  C207     1.0000 0.82088  0.70772  0.71563  Biso   1.000  C
  H159     1.0000 0.79197  0.69503  0.69973  Biso   1.000  H
  H160     1.0000 0.93957  0.83543  0.73423  Biso   1.000  H
  H161     1.0000 0.96517  0.88663  0.85093  Biso   1.000  H
  O47      1.0000 0.37173  0.14745  0.08647  Biso   1.000  O
  O48      1.0000 0.38412  0.15345  0.23337  Biso   1.000  O
  C208     1.0000 0.39030  0.14522  0.15797  Biso   1.000  C
  C209     1.0000 0.42240  0.13068  0.14327  Biso   1.000  C
  C210     1.0000 0.44363  0.12514  0.20987  Biso   1.000  C
  H162     1.0000 0.43933  0.13147  0.26727  Biso   1.000  H
  C211     1.0000 0.47213  0.11006  0.19447  Biso   1.000  C
  H163     1.0000 0.48703  0.10747  0.24217  Biso   1.000  H
  C212     1.0000 0.47884  0.09923  0.11477  Biso   1.000  C
  C213     1.0000 0.45913  0.10726  0.04397  Biso   1.000  C
  H164     1.0000 0.46463  0.10177  0.98687  Biso   1.000  H
  C214     1.0000 0.43153  0.12314  0.05677  Biso   1.000  C
  H165     1.0000 0.41913  0.12897  0.00857  Biso   1.000  H
  C215     1.0000 0.50600  0.07940  0.09667  Biso   1.000  C
  C216     1.0000 0.48754  0.04106  0.04897  Biso   1.000  C
  H166     1.0000 0.45863  0.02837  0.03307  Biso   1.000  H
  H167     1.0000 0.60623  0.16877  0.06757  Biso   1.000  H
  H168     1.0000 0.63183  0.21997  0.18427  Biso   1.000  H
  O49      1.0000 0.51922  0.55762  0.41980  Biso   1.000  O
  O50      1.0000 0.51322  0.56401  0.56670  Biso   1.000  O
  C217     1.0000 0.52145  0.57842  0.49130  Biso   1.000  C
  C218     1.0000 0.53599  0.62506  0.47660  Biso   1.000  C
  C219     1.0000 0.54153  0.65183  0.54320  Biso   1.000  C
  H169     1.0000 0.53520  0.64120  0.60060  Biso   1.000  H
  C220     1.0000 0.55661  0.69541  0.52780  Biso   1.000  C
  H170     1.0000 0.55920  0.71290  0.57550  Biso   1.000  H
  C221     1.0000 0.56744  0.71295  0.44810  Biso   1.000  C
  C222     1.0000 0.55941  0.68521  0.37730  Biso   1.000  C
  H171     1.0000 0.56490  0.69620  0.32020  Biso   1.000  H
  C223     1.0000 0.54353  0.64173  0.39010  Biso   1.000  C
  H172     1.0000 0.53770  0.62350  0.34190  Biso   1.000  H
  C224     1.0000 0.58727  0.75994  0.43000  Biso   1.000  C
  C225     1.0000 0.62561  0.77982  0.38230  Biso   1.000  C
  H173     1.0000 0.63830  0.76360  0.36640  Biso   1.000  H
  H174     1.0000 0.49790  0.77080  0.40090  Biso   1.000  H
  H175     1.0000 0.44670  0.74520  0.51760  Biso   1.000  H
  O51      1.0000 0.18589  0.89095  0.75313  Biso   1.000  O
  O52      1.0000 0.17989  0.89734  0.90003  Biso   1.000  O
  C226     1.0000 0.18812  0.91175  0.82463  Biso   1.000  C
  C227     1.0000 0.20266  0.95839  0.80993  Biso   1.000  C
  C228     1.0000 0.20820  0.98516  0.87653  Biso   1.000  C
  H176     1.0000 0.20187  0.97453  0.93393  Biso   1.000  H
  C229     1.0000 0.22328  0.02874  0.86113  Biso   1.000  C
  H177     1.0000 0.22587  0.04623  0.90883  Biso   1.000  H
  C230     1.0000 0.23411  0.04628  0.78143  Biso   1.000  C
  C231     1.0000 0.22608  0.01854  0.71063  Biso   1.000  C
  H178     1.0000 0.23157  0.02953  0.65353  Biso   1.000  H
  C232     1.0000 0.21020  0.97506  0.72343  Biso   1.000  C
  H179     1.0000 0.20437  0.95683  0.67523  Biso   1.000  H
  C233     1.0000 0.25394  0.09327  0.76333  Biso   1.000  C
  C234     1.0000 0.29228  0.11315  0.71563  Biso   1.000  C
  H180     1.0000 0.30497  0.09693  0.69973  Biso   1.000  H
  H181     1.0000 0.16457  0.10413  0.73423  Biso   1.000  H
  H182     1.0000 0.11337  0.07853  0.85093  Biso   1.000  H
  O53      1.0000 0.85255  0.22429  0.08647  Biso   1.000  O
  O54      1.0000 0.84655  0.23068  0.23337  Biso   1.000  O
  C235     1.0000 0.85478  0.24509  0.15797  Biso   1.000  C
  C236     1.0000 0.86932  0.29173  0.14327  Biso   1.000  C
  C237     1.0000 0.87486  0.31850  0.20987  Biso   1.000  C
  H183     1.0000 0.86853  0.30787  0.26727  Biso   1.000  H
  C238     1.0000 0.88994  0.36208  0.19447  Biso   1.000  C
  H184     1.0000 0.89253  0.37957  0.24217  Biso   1.000  H
  C239     1.0000 0.90077  0.37962  0.11477  Biso   1.000  C
  C240     1.0000 0.89274  0.35188  0.04397  Biso   1.000  C
  H185     1.0000 0.89823  0.36287  0.98687  Biso   1.000  H
  C241     1.0000 0.87686  0.30840  0.05677  Biso   1.000  C
  H186     1.0000 0.87103  0.29017  0.00857  Biso   1.000  H
  C242     1.0000 0.92060  0.42661  0.09667  Biso   1.000  C
  C243     1.0000 0.95894  0.44649  0.04897  Biso   1.000  C
  H187     1.0000 0.97163  0.43027  0.03307  Biso   1.000  H
  H188     1.0000 0.83123  0.43747  0.06757  Biso   1.000  H
  H189     1.0000 0.78003  0.41187  0.18427  Biso   1.000  H
  O55      1.0000 0.96160  0.44238  0.58020  Biso   1.000  O
  O56      1.0000 0.94921  0.43599  0.43330  Biso   1.000  O
  C244     1.0000 0.94303  0.42158  0.50870  Biso   1.000  C
  C245     1.0000 0.91093  0.37494  0.52340  Biso   1.000  C
  C246     1.0000 0.88970  0.34817  0.45680  Biso   1.000  C
  H190     1.0000 0.89400  0.35880  0.39940  Biso   1.000  H
  C247     1.0000 0.86120  0.30459  0.47220  Biso   1.000  C
  H191     1.0000 0.84630  0.28710  0.42450  Biso   1.000  H
  C248     1.0000 0.85449  0.28705  0.55190  Biso   1.000  C
  C249     1.0000 0.87420  0.31479  0.62270  Biso   1.000  C
  H192     1.0000 0.86870  0.30380  0.67980  Biso   1.000  H
  C250     1.0000 0.90180  0.35827  0.60990  Biso   1.000  C
  H193     1.0000 0.91420  0.37650  0.65810  Biso   1.000  H
  C251     1.0000 0.82733  0.24006  0.57000  Biso   1.000  C
  C252     1.0000 0.84579  0.22018  0.61770  Biso   1.000  C
  H194     1.0000 0.87470  0.23640  0.63360  Biso   1.000  H
  H195     1.0000 0.72710  0.22920  0.59910  Biso   1.000  H
  H196     1.0000 0.70150  0.25480  0.48240  Biso   1.000  H
  O57      1.0000 0.62827  0.77571  0.91353  Biso   1.000  O
  O58      1.0000 0.61588  0.76932  0.76663  Biso   1.000  O
  C253     1.0000 0.60970  0.75491  0.84203  Biso   1.000  C
  C254     1.0000 0.57760  0.70827  0.85673  Biso   1.000  C
  C255     1.0000 0.55637  0.68150  0.79013  Biso   1.000  C
  H197     1.0000 0.56067  0.69213  0.73273  Biso   1.000  H
  C256     1.0000 0.52787  0.63792  0.80553  Biso   1.000  C
  H198     1.0000 0.51297  0.62043  0.75783  Biso   1.000  H
  C257     1.0000 0.52116  0.62038  0.88523  Biso   1.000  C
  C258     1.0000 0.54087  0.64812  0.95603  Biso   1.000  C
  H199     1.0000 0.53537  0.63713  0.01313  Biso   1.000  H
  C259     1.0000 0.56847  0.69160  0.94323  Biso   1.000  C
  H200     1.0000 0.58087  0.70983  0.99143  Biso   1.000  H
  C260     1.0000 0.49400  0.57339  0.90333  Biso   1.000  C
  C261     1.0000 0.51246  0.55351  0.95103  Biso   1.000  C
  H201     1.0000 0.54137  0.56973  0.96693  Biso   1.000  H
  H202     1.0000 0.39377  0.56253  0.93243  Biso   1.000  H
  H203     1.0000 0.36817  0.58813  0.81573  Biso   1.000  H
  O59      1.0000 0.29493  0.10905  0.24687  Biso   1.000  O
  O60      1.0000 0.28254  0.10266  0.09997  Biso   1.000  O
  C262     1.0000 0.27636  0.08825  0.17537  Biso   1.000  C
  C263     1.0000 0.24426  0.04161  0.19007  Biso   1.000  C
  C264     1.0000 0.22303  0.01484  0.12347  Biso   1.000  C
  H204     1.0000 0.22733  0.02547  0.06607  Biso   1.000  H
  C265     1.0000 0.19453  0.97126  0.13887  Biso   1.000  C
  H205     1.0000 0.17963  0.95377  0.09117  Biso   1.000  H
  C266     1.0000 0.18782  0.95372  0.21857  Biso   1.000  C
  C267     1.0000 0.20753  0.98146  0.28937  Biso   1.000  C
  H206     1.0000 0.20203  0.97047  0.34647  Biso   1.000  H
  C268     1.0000 0.23513  0.02494  0.27657  Biso   1.000  C
  H207     1.0000 0.24753  0.04317  0.32477  Biso   1.000  H
  C269     1.0000 0.16066  0.90673  0.23667  Biso   1.000  C
  C270     1.0000 0.17912  0.88685  0.28437  Biso   1.000  C
  H208     1.0000 0.20803  0.90307  0.30027  Biso   1.000  H
  H209     1.0000 0.06043  0.89587  0.26577  Biso   1.000  H
  H210     1.0000 0.03483  0.92147  0.14907  Biso   1.000  H
  O61      1.0000 0.48078  0.03840  0.58020  Biso   1.000  O
  O62      1.0000 0.48678  0.05079  0.43330  Biso   1.000  O
  C271     1.0000 0.47855  0.05697  0.50870  Biso   1.000  C
  C272     1.0000 0.46401  0.08907  0.52340  Biso   1.000  C
  C273     1.0000 0.45847  0.11030  0.45680  Biso   1.000  C
  H211     1.0000 0.46480  0.10600  0.39940  Biso   1.000  H
  C274     1.0000 0.44339  0.13880  0.47220  Biso   1.000  C
  H212     1.0000 0.44080  0.15370  0.42450  Biso   1.000  H
  C275     1.0000 0.43256  0.14551  0.55190  Biso   1.000  C
  C276     1.0000 0.44059  0.12580  0.62270  Biso   1.000  C
  H213     1.0000 0.43510  0.13130  0.67980  Biso   1.000  H
  C277     1.0000 0.45647  0.09820  0.60990  Biso   1.000  C
  H214     1.0000 0.46230  0.08580  0.65810  Biso   1.000  H
  C278     1.0000 0.41273  0.17267  0.57000  Biso   1.000  C
  C279     1.0000 0.37439  0.15421  0.61770  Biso   1.000  C
  H215     1.0000 0.36170  0.12530  0.63360  Biso   1.000  H
  H216     1.0000 0.50210  0.27290  0.59910  Biso   1.000  H
  H217     1.0000 0.55330  0.29850  0.48240  Biso   1.000  H
  O63      1.0000 0.14745  0.37173  0.91353  Biso   1.000  O
  O64      1.0000 0.15345  0.38412  0.76663  Biso   1.000  O
  C280     1.0000 0.14522  0.39030  0.84203  Biso   1.000  C
  C281     1.0000 0.13068  0.42240  0.85673  Biso   1.000  C
  C282     1.0000 0.12514  0.44363  0.79013  Biso   1.000  C
  H218     1.0000 0.13147  0.43933  0.73273  Biso   1.000  H
  C283     1.0000 0.11006  0.47213  0.80553  Biso   1.000  C
  H219     1.0000 0.10747  0.48703  0.75783  Biso   1.000  H
  C284     1.0000 0.09923  0.47884  0.88523  Biso   1.000  C
  C285     1.0000 0.10726  0.45913  0.95603  Biso   1.000  C
  H220     1.0000 0.10177  0.46463  0.01313  Biso   1.000  H
  C286     1.0000 0.12314  0.43153  0.94323  Biso   1.000  C
  H221     1.0000 0.12897  0.41913  0.99143  Biso   1.000  H
  C287     1.0000 0.07940  0.50600  0.90333  Biso   1.000  C
  C288     1.0000 0.04106  0.48754  0.95103  Biso   1.000  C
  H222     1.0000 0.02837  0.45863  0.96693  Biso   1.000  H
  H223     1.0000 0.16877  0.60623  0.93243  Biso   1.000  H
  H224     1.0000 0.21997  0.63183  0.81573  Biso   1.000  H
  O65      1.0000 0.81411  0.70507  0.24687  Biso   1.000  O
  O66      1.0000 0.82011  0.71746  0.09997  Biso   1.000  O
  C289     1.0000 0.81188  0.72364  0.17537  Biso   1.000  C
  C290     1.0000 0.79734  0.75574  0.19007  Biso   1.000  C
  C291     1.0000 0.79180  0.77697  0.12347  Biso   1.000  C
  H225     1.0000 0.79813  0.77267  0.06607  Biso   1.000  H
  C292     1.0000 0.77672  0.80547  0.13887  Biso   1.000  C
  H226     1.0000 0.77413  0.82037  0.09117  Biso   1.000  H
  C293     1.0000 0.76589  0.81218  0.21857  Biso   1.000  C
  C294     1.0000 0.77392  0.79247  0.28937  Biso   1.000  C
  H227     1.0000 0.76843  0.79797  0.34647  Biso   1.000  H
  C295     1.0000 0.78980  0.76487  0.27657  Biso   1.000  C
  H228     1.0000 0.79563  0.75247  0.32477  Biso   1.000  H
  C296     1.0000 0.74606  0.83934  0.23667  Biso   1.000  C
  C297     1.0000 0.70772  0.82088  0.28437  Biso   1.000  C
  H229     1.0000 0.69503  0.79197  0.30027  Biso   1.000  H
  H230     1.0000 0.83543  0.93957  0.26577  Biso   1.000  H
  H231     1.0000 0.88663  0.96517  0.14907  Biso   1.000  H
  O67      1.0000 0.55762  0.51922  0.58020  Biso   1.000  O
  O68      1.0000 0.56401  0.51322  0.43330  Biso   1.000  O
  C298     1.0000 0.57842  0.52145  0.50870  Biso   1.000  C
  C299     1.0000 0.62506  0.53599  0.52340  Biso   1.000  C
  C300     1.0000 0.65183  0.54153  0.45680  Biso   1.000  C
  H232     1.0000 0.64120  0.53520  0.39940  Biso   1.000  H
  C301     1.0000 0.69541  0.55661  0.47220  Biso   1.000  C
  H233     1.0000 0.71290  0.55920  0.42450  Biso   1.000  H
  C302     1.0000 0.71295  0.56744  0.55190  Biso   1.000  C
  C303     1.0000 0.68521  0.55941  0.62270  Biso   1.000  C
  H234     1.0000 0.69620  0.56490  0.67980  Biso   1.000  H
  C304     1.0000 0.64173  0.54353  0.60990  Biso   1.000  C
  H235     1.0000 0.62350  0.53770  0.65810  Biso   1.000  H
  C305     1.0000 0.75994  0.58727  0.57000  Biso   1.000  C
  C306     1.0000 0.77982  0.62561  0.61770  Biso   1.000  C
  H236     1.0000 0.76360  0.63830  0.63360  Biso   1.000  H
  H237     1.0000 0.77080  0.49790  0.59910  Biso   1.000  H
  H238     1.0000 0.74520  0.44670  0.48240  Biso   1.000  H
  O69      1.0000 0.22429  0.85255  0.91353  Biso   1.000  O
  O70      1.0000 0.23068  0.84655  0.76663  Biso   1.000  O
  C307     1.0000 0.24509  0.85478  0.84203  Biso   1.000  C
  C308     1.0000 0.29173  0.86932  0.85673  Biso   1.000  C
  C309     1.0000 0.31850  0.87486  0.79013  Biso   1.000  C
  H239     1.0000 0.30787  0.86853  0.73273  Biso   1.000  H
  C310     1.0000 0.36208  0.88994  0.80553  Biso   1.000  C
  H240     1.0000 0.37957  0.89253  0.75783  Biso   1.000  H
  C311     1.0000 0.37962  0.90077  0.88523  Biso   1.000  C
  C312     1.0000 0.35188  0.89274  0.95603  Biso   1.000  C
  H241     1.0000 0.36287  0.89823  0.01313  Biso   1.000  H
  C313     1.0000 0.30840  0.87686  0.94323  Biso   1.000  C
  H242     1.0000 0.29017  0.87103  0.99143  Biso   1.000  H
  C314     1.0000 0.42661  0.92060  0.90333  Biso   1.000  C
  C315     1.0000 0.44649  0.95894  0.95103  Biso   1.000  C
  H243     1.0000 0.43027  0.97163  0.96693  Biso   1.000  H
  H244     1.0000 0.43747  0.83123  0.93243  Biso   1.000  H
  H245     1.0000 0.41187  0.78003  0.81573  Biso   1.000  H
  O71      1.0000 0.89095  0.18589  0.24687  Biso   1.000  O
  O72      1.0000 0.89734  0.17989  0.09997  Biso   1.000  O
  C316     1.0000 0.91175  0.18812  0.17537  Biso   1.000  C
  C317     1.0000 0.95839  0.20266  0.19007  Biso   1.000  C
  C318     1.0000 0.98516  0.20820  0.12347  Biso   1.000  C
  H246     1.0000 0.97453  0.20187  0.06607  Biso   1.000  H
  C319     1.0000 0.02874  0.22328  0.13887  Biso   1.000  C
  H247     1.0000 0.04623  0.22587  0.09117  Biso   1.000  H
  C320     1.0000 0.04628  0.23411  0.21857  Biso   1.000  C
  C321     1.0000 0.01854  0.22608  0.28937  Biso   1.000  C
  H248     1.0000 0.02953  0.23157  0.34647  Biso   1.000  H
  C322     1.0000 0.97506  0.21020  0.27657  Biso   1.000  C
  H249     1.0000 0.95683  0.20437  0.32477  Biso   1.000  H
  C323     1.0000 0.09327  0.25394  0.23667  Biso   1.000  C
  C324     1.0000 0.11315  0.29228  0.28437  Biso   1.000  C
  H250     1.0000 0.09693  0.30497  0.30027  Biso   1.000  H
  H251     1.0000 0.10413  0.16457  0.26577  Biso   1.000  H
  H252     1.0000 0.07853  0.11337  0.14907  Biso   1.000  H
  Cu1      1.0000 0.50331  0.00662  0.41405  Biso   1.000  Cu
  Cu2      1.0000 0.16998  0.33995  0.74738  Biso   1.000  Cu
  Cu3      1.0000 0.83664  0.67329  0.08072  Biso   1.000  Cu
  Cu4      1.0000 0.99338  0.49669  0.41405  Biso   1.000  Cu
  Cu5      1.0000 0.66005  0.83002  0.74738  Biso   1.000  Cu
  Cu6      1.0000 0.32671  0.16336  0.08072  Biso   1.000  Cu
  Cu7      1.0000 0.50331  0.49669  0.41405  Biso   1.000  Cu
  Cu8      1.0000 0.16998  0.83002  0.74738  Biso   1.000  Cu
  Cu9      1.0000 0.83664  0.16336  0.08072  Biso   1.000  Cu
  Cu10     1.0000 0.00662  0.50331  0.58595  Biso   1.000  Cu
  Cu11     1.0000 0.67329  0.83664  0.91928  Biso   1.000  Cu
  Cu12     1.0000 0.33995  0.16998  0.25262  Biso   1.000  Cu
  Cu13     1.0000 0.49669  0.99338  0.58595  Biso   1.000  Cu
  Cu14     1.0000 0.16336  0.32671  0.91928  Biso   1.000  Cu
  Cu15     1.0000 0.83002  0.66005  0.25262  Biso   1.000  Cu
  Cu16     1.0000 0.49669  0.50331  0.58595  Biso   1.000  Cu
  Cu17     1.0000 0.16336  0.83664  0.91928  Biso   1.000  Cu
  Cu18     1.0000 0.83002  0.16998  0.25262  Biso   1.000  Cu
  O73      1.0000 0.76535  0.23465  0.49690  Biso   1.000  O
  C325     1.0000 0.82288  0.17712  0.64260  Biso   1.000  C
  C326     1.0000 0.78429  0.21571  0.54480  Biso   1.000  C
  C327     1.0000 0.74760  0.25240  0.56170  Biso   1.000  C
  C328     1.0000 0.72490  0.27510  0.51840  Biso   1.000  C
  H253     1.0000 0.71410  0.28590  0.56370  Biso   1.000  H
  O74      1.0000 0.43202  0.56798  0.83023  Biso   1.000  O
  C329     1.0000 0.48955  0.51045  0.97593  Biso   1.000  C
  C330     1.0000 0.45096  0.54904  0.87813  Biso   1.000  C
  C331     1.0000 0.41427  0.58573  0.89503  Biso   1.000  C
  C332     1.0000 0.39157  0.60843  0.85173  Biso   1.000  C
  H254     1.0000 0.38077  0.61923  0.89703  Biso   1.000  H
  O75      1.0000 0.09868  0.90132  0.16357  Biso   1.000  O
  C333     1.0000 0.15621  0.84379  0.30927  Biso   1.000  C
  C334     1.0000 0.11762  0.88238  0.21147  Biso   1.000  C
  C335     1.0000 0.08093  0.91907  0.22837  Biso   1.000  C
  C336     1.0000 0.05823  0.94177  0.18507  Biso   1.000  C
  H255     1.0000 0.04743  0.95257  0.23037  Biso   1.000  H
  O76      1.0000 0.76535  0.53070  0.49690  Biso   1.000  O
  C337     1.0000 0.82288  0.64576  0.64260  Biso   1.000  C
  C338     1.0000 0.78429  0.56858  0.54480  Biso   1.000  C
  C339     1.0000 0.74760  0.49520  0.56170  Biso   1.000  C
  C340     1.0000 0.72490  0.44980  0.51840  Biso   1.000  C
  H256     1.0000 0.71410  0.42820  0.56370  Biso   1.000  H
  O77      1.0000 0.43202  0.86403  0.83023  Biso   1.000  O
  C341     1.0000 0.48955  0.97909  0.97593  Biso   1.000  C
  C342     1.0000 0.45096  0.90191  0.87813  Biso   1.000  C
  C343     1.0000 0.41427  0.82853  0.89503  Biso   1.000  C
  C344     1.0000 0.39157  0.78313  0.85173  Biso   1.000  C
  H257     1.0000 0.38077  0.76153  0.89703  Biso   1.000  H
  O78      1.0000 0.09868  0.19737  0.16357  Biso   1.000  O
  C345     1.0000 0.15621  0.31243  0.30927  Biso   1.000  C
  C346     1.0000 0.11762  0.23525  0.21147  Biso   1.000  C
  C347     1.0000 0.08093  0.16187  0.22837  Biso   1.000  C
  C348     1.0000 0.05823  0.11647  0.18507  Biso   1.000  C
  H258     1.0000 0.04743  0.09487  0.23037  Biso   1.000  H
  O79      1.0000 0.46930  0.23465  0.49690  Biso   1.000  O
  C349     1.0000 0.35424  0.17712  0.64260  Biso   1.000  C
  C350     1.0000 0.43142  0.21571  0.54480  Biso   1.000  C
  C351     1.0000 0.50480  0.25240  0.56170  Biso   1.000  C
  C352     1.0000 0.55020  0.27510  0.51840  Biso   1.000  C
  H259     1.0000 0.57180  0.28590  0.56370  Biso   1.000  H
  O80      1.0000 0.13597  0.56798  0.83023  Biso   1.000  O
  C353     1.0000 0.02091  0.51045  0.97593  Biso   1.000  C
  C354     1.0000 0.09809  0.54904  0.87813  Biso   1.000  C
  C355     1.0000 0.17147  0.58573  0.89503  Biso   1.000  C
  C356     1.0000 0.21687  0.60843  0.85173  Biso   1.000  C
  H260     1.0000 0.23847  0.61923  0.89703  Biso   1.000  H
  O81      1.0000 0.80263  0.90132  0.16357  Biso   1.000  O
  C357     1.0000 0.68757  0.84379  0.30927  Biso   1.000  C
  C358     1.0000 0.76475  0.88238  0.21147  Biso   1.000  C
  C359     1.0000 0.83813  0.91907  0.22837  Biso   1.000  C
  C360     1.0000 0.88353  0.94177  0.18507  Biso   1.000  C
  H261     1.0000 0.90513  0.95257  0.23037  Biso   1.000  H
  O82      1.0000 0.23465  0.76535  0.50310  Biso   1.000  O
  C361     1.0000 0.17712  0.82288  0.35740  Biso   1.000  C
  C362     1.0000 0.21571  0.78429  0.45520  Biso   1.000  C
  C363     1.0000 0.25240  0.74760  0.43830  Biso   1.000  C
  C364     1.0000 0.27510  0.72490  0.48160  Biso   1.000  C
  H262     1.0000 0.28590  0.71410  0.43630  Biso   1.000  H
  O83      1.0000 0.90132  0.09868  0.83643  Biso   1.000  O
  C365     1.0000 0.84379  0.15621  0.69073  Biso   1.000  C
  C366     1.0000 0.88238  0.11762  0.78853  Biso   1.000  C
  C367     1.0000 0.91907  0.08093  0.77163  Biso   1.000  C
  C368     1.0000 0.94177  0.05823  0.81493  Biso   1.000  C
  H263     1.0000 0.95257  0.04743  0.76963  Biso   1.000  H
  O84      1.0000 0.56798  0.43202  0.16977  Biso   1.000  O
  C369     1.0000 0.51045  0.48955  0.02407  Biso   1.000  C
  C370     1.0000 0.54904  0.45096  0.12187  Biso   1.000  C
  C371     1.0000 0.58573  0.41427  0.10497  Biso   1.000  C
  C372     1.0000 0.60843  0.39157  0.14827  Biso   1.000  C
  H264     1.0000 0.61923  0.38077  0.10297  Biso   1.000  H
  O85      1.0000 0.53070  0.76535  0.50310  Biso   1.000  O
  C373     1.0000 0.64576  0.82288  0.35740  Biso   1.000  C
  C374     1.0000 0.56858  0.78429  0.45520  Biso   1.000  C
  C375     1.0000 0.49520  0.74760  0.43830  Biso   1.000  C
  C376     1.0000 0.44980  0.72490  0.48160  Biso   1.000  C
  H265     1.0000 0.42820  0.71410  0.43630  Biso   1.000  H
  O86      1.0000 0.19737  0.09868  0.83643  Biso   1.000  O
  C377     1.0000 0.31243  0.15621  0.69073  Biso   1.000  C
  C378     1.0000 0.23525  0.11762  0.78853  Biso   1.000  C
  C379     1.0000 0.16187  0.08093  0.77163  Biso   1.000  C
  C380     1.0000 0.11647  0.05823  0.81493  Biso   1.000  C
  H266     1.0000 0.09487  0.04743  0.76963  Biso   1.000  H
  O87      1.0000 0.86403  0.43202  0.16977  Biso   1.000  O
  C381     1.0000 0.97909  0.48955  0.02407  Biso   1.000  C
  C382     1.0000 0.90191  0.45096  0.12187  Biso   1.000  C
  C383     1.0000 0.82853  0.41427  0.10497  Biso   1.000  C
  C384     1.0000 0.78313  0.39157  0.14827  Biso   1.000  C
  H267     1.0000 0.76153  0.38077  0.10297  Biso   1.000  H
  O88      1.0000 0.23465  0.46930  0.50310  Biso   1.000  O
  C385     1.0000 0.17712  0.35424  0.35740  Biso   1.000  C
  C386     1.0000 0.21571  0.43142  0.45520  Biso   1.000  C
  C387     1.0000 0.25240  0.50480  0.43830  Biso   1.000  C
  C388     1.0000 0.27510  0.55020  0.48160  Biso   1.000  C
  H268     1.0000 0.28590  0.57180  0.43630  Biso   1.000  H
  O89      1.0000 0.90132  0.80263  0.83643  Biso   1.000  O
  C389     1.0000 0.84379  0.68757  0.69073  Biso   1.000  C
  C390     1.0000 0.88238  0.76475  0.78853  Biso   1.000  C
  C391     1.0000 0.91907  0.83813  0.77163  Biso   1.000  C
  C392     1.0000 0.94177  0.88353  0.81493  Biso   1.000  C
  H269     1.0000 0.95257  0.90513  0.76963  Biso   1.000  H
  O90      1.0000 0.56798  0.13597  0.16977  Biso   1.000  O
  C393     1.0000 0.51045  0.02091  0.02407  Biso   1.000  C
  C394     1.0000 0.54904  0.09809  0.12187  Biso   1.000  C
  C395     1.0000 0.58573  0.17147  0.10497  Biso   1.000  C
  C396     1.0000 0.60843  0.21687  0.14827  Biso   1.000  C
  H270     1.0000 0.61923  0.23847  0.10297  Biso   1.000  H
