data_image0
_cell_length_a       35.3278
_cell_length_b       35.3278
_cell_length_c       20.1184
_cell_angle_alpha    90
_cell_angle_beta     90
_cell_angle_gamma    120

_symmetry_space_group_name_H-M    "P 1"
_symmetry_int_tables_number       1

loop_
  _symmetry_equiv_pos_as_xyz
  'x, y, z'

loop_
  _atom_site_label
  _atom_site_occupancy
  _atom_site_fract_x
  _atom_site_fract_y
  _atom_site_fract_z
  _atom_site_thermal_displace_type
  _atom_site_B_iso_or_equiv
  _atom_site_type_symbol
  O1       1.0000 0.52432  0.55356  0.42468  Biso   1.000  O
  O2       1.0000 0.51128  0.56666  0.53041  Biso   1.000  O
  C1       1.0000 0.52250  0.57757  0.47191  Biso   1.000  C
  C2       1.0000 0.53696  0.62421  0.45090  Biso   1.000  C
  C3       1.0000 0.53540  0.65256  0.49964  Biso   1.000  C
  H1       1.0000 0.52500  0.64260  0.54330  Biso   1.000  H
  C4       1.0000 0.54986  0.69585  0.48051  Biso   1.000  C
  H2       1.0000 0.54870  0.71540  0.51190  Biso   1.000  H
  C5       1.0000 0.56553  0.71086  0.41820  Biso   1.000  C
  C6       1.0000 0.56523  0.68171  0.36853  Biso   1.000  C
  H3       1.0000 0.57410  0.69130  0.32420  Biso   1.000  H
  C7       1.0000 0.55143  0.63856  0.38748  Biso   1.000  C
  H4       1.0000 0.55210  0.61890  0.35590  Biso   1.000  H
  C8       1.0000 0.58451  0.75787  0.39977  Biso   1.000  C
  C9       1.0000 0.62383  0.77841  0.36649  Biso   1.000  C
  H5       1.0000 0.63750  0.76190  0.35570  Biso   1.000  H
  H6       1.0000 0.48380  0.71890  0.37020  Biso   1.000  H
  H7       1.0000 0.45120  0.74820  0.48420  Biso   1.000  H
  O3       1.0000 0.19099  0.88689  0.75801  Biso   1.000  O
  O4       1.0000 0.17795  0.89999  0.86374  Biso   1.000  O
  C10      1.0000 0.18917  0.91090  0.80524  Biso   1.000  C
  C11      1.0000 0.20363  0.95754  0.78423  Biso   1.000  C
  C12      1.0000 0.20207  0.98589  0.83297  Biso   1.000  C
  H8       1.0000 0.19167  0.97593  0.87663  Biso   1.000  H
  C13      1.0000 0.21653  0.02918  0.81384  Biso   1.000  C
  H9       1.0000 0.21537  0.04873  0.84523  Biso   1.000  H
  C14      1.0000 0.23220  0.04419  0.75153  Biso   1.000  C
  C15      1.0000 0.23190  0.01504  0.70186  Biso   1.000  C
  H10      1.0000 0.24077  0.02463  0.65753  Biso   1.000  H
  C16      1.0000 0.21810  0.97189  0.72081  Biso   1.000  C
  H11      1.0000 0.21877  0.95223  0.68923  Biso   1.000  H
  C17      1.0000 0.25118  0.09120  0.73310  Biso   1.000  C
  C18      1.0000 0.29050  0.11174  0.69982  Biso   1.000  C
  H12      1.0000 0.30417  0.09523  0.68903  Biso   1.000  H
  H13      1.0000 0.15047  0.05223  0.70353  Biso   1.000  H
  H14      1.0000 0.11787  0.08153  0.81753  Biso   1.000  H
  O5       1.0000 0.85765  0.22023  0.09135  Biso   1.000  O
  O6       1.0000 0.84461  0.23333  0.19708  Biso   1.000  O
  C19      1.0000 0.85583  0.24424  0.13858  Biso   1.000  C
  C20      1.0000 0.87029  0.29088  0.11757  Biso   1.000  C
  C21      1.0000 0.86873  0.31923  0.16631  Biso   1.000  C
  H15      1.0000 0.85833  0.30927  0.20997  Biso   1.000  H
  C22      1.0000 0.88319  0.36252  0.14718  Biso   1.000  C
  H16      1.0000 0.88203  0.38207  0.17857  Biso   1.000  H
  C23      1.0000 0.89886  0.37753  0.08487  Biso   1.000  C
  C24      1.0000 0.89856  0.34838  0.03520  Biso   1.000  C
  H17      1.0000 0.90743  0.35797  0.99087  Biso   1.000  H
  C25      1.0000 0.88476  0.30523  0.05415  Biso   1.000  C
  H18      1.0000 0.88543  0.28557  0.02257  Biso   1.000  H
  C26      1.0000 0.91784  0.42454  0.06644  Biso   1.000  C
  C27      1.0000 0.95716  0.44508  0.03316  Biso   1.000  C
  H19      1.0000 0.97083  0.42857  0.02237  Biso   1.000  H
  H20      1.0000 0.81713  0.38557  0.03687  Biso   1.000  H
  H21      1.0000 0.78453  0.41487  0.15087  Biso   1.000  H
  O7       1.0000 0.44644  0.97076  0.42468  Biso   1.000  O
  O8       1.0000 0.43334  0.94462  0.53041  Biso   1.000  O
  C28      1.0000 0.42243  0.94493  0.47191  Biso   1.000  C
  C29      1.0000 0.37579  0.91275  0.45090  Biso   1.000  C
  C30      1.0000 0.34744  0.88284  0.49964  Biso   1.000  C
  H22      1.0000 0.35740  0.88240  0.54330  Biso   1.000  H
  C31      1.0000 0.30415  0.85401  0.48051  Biso   1.000  C
  H23      1.0000 0.28460  0.83330  0.51190  Biso   1.000  H
  C32      1.0000 0.28914  0.85467  0.41820  Biso   1.000  C
  C33      1.0000 0.31829  0.88352  0.36853  Biso   1.000  C
  H24      1.0000 0.30870  0.88280  0.32420  Biso   1.000  H
  C34      1.0000 0.36144  0.91287  0.38748  Biso   1.000  C
  H25      1.0000 0.38110  0.93320  0.35590  Biso   1.000  H
  C35      1.0000 0.24213  0.82664  0.39977  Biso   1.000  C
  C36      1.0000 0.22159  0.84542  0.36649  Biso   1.000  C
  H26      1.0000 0.23810  0.87560  0.35570  Biso   1.000  H
  H27      1.0000 0.28110  0.76490  0.37020  Biso   1.000  H
  H28      1.0000 0.25180  0.70300  0.48420  Biso   1.000  H
  O9       1.0000 0.11311  0.30409  0.75801  Biso   1.000  O
  O10      1.0000 0.10001  0.27795  0.86374  Biso   1.000  O
  C37      1.0000 0.08910  0.27826  0.80524  Biso   1.000  C
  C38      1.0000 0.04246  0.24608  0.78423  Biso   1.000  C
  C39      1.0000 0.01411  0.21617  0.83297  Biso   1.000  C
  H29      1.0000 0.02407  0.21573  0.87663  Biso   1.000  H
  C40      1.0000 0.97082  0.18734  0.81384  Biso   1.000  C
  H30      1.0000 0.95127  0.16663  0.84523  Biso   1.000  H
  C41      1.0000 0.95581  0.18800  0.75153  Biso   1.000  C
  C42      1.0000 0.98496  0.21685  0.70186  Biso   1.000  C
  H31      1.0000 0.97537  0.21613  0.65753  Biso   1.000  H
  C43      1.0000 0.02811  0.24620  0.72081  Biso   1.000  C
  H32      1.0000 0.04777  0.26653  0.68923  Biso   1.000  H
  C44      1.0000 0.90880  0.15997  0.73310  Biso   1.000  C
  C45      1.0000 0.88826  0.17875  0.69982  Biso   1.000  C
  H33      1.0000 0.90477  0.20893  0.68903  Biso   1.000  H
  H34      1.0000 0.94777  0.09823  0.70353  Biso   1.000  H
  H35      1.0000 0.91847  0.03633  0.81753  Biso   1.000  H
  O11      1.0000 0.77977  0.63743  0.09135  Biso   1.000  O
  O12      1.0000 0.76667  0.61129  0.19708  Biso   1.000  O
  C46      1.0000 0.75576  0.61160  0.13858  Biso   1.000  C
  C47      1.0000 0.70912  0.57942  0.11757  Biso   1.000  C
  C48      1.0000 0.68077  0.54951  0.16631  Biso   1.000  C
  H36      1.0000 0.69073  0.54907  0.20997  Biso   1.000  H
  C49      1.0000 0.63748  0.52068  0.14718  Biso   1.000  C
  H37      1.0000 0.61793  0.49997  0.17857  Biso   1.000  H
  C50      1.0000 0.62247  0.52134  0.08487  Biso   1.000  C
  C51      1.0000 0.65162  0.55019  0.03520  Biso   1.000  C
  H38      1.0000 0.64203  0.54947  0.99087  Biso   1.000  H
  C52      1.0000 0.69477  0.57954  0.05415  Biso   1.000  C
  H39      1.0000 0.71443  0.59987  0.02257  Biso   1.000  H
  C53      1.0000 0.57546  0.49331  0.06644  Biso   1.000  C
  C54      1.0000 0.55492  0.51209  0.03316  Biso   1.000  C
  H40      1.0000 0.57143  0.54227  0.02237  Biso   1.000  H
  H41      1.0000 0.61443  0.43157  0.03687  Biso   1.000  H
  H42      1.0000 0.58513  0.36967  0.15087  Biso   1.000  H
  O13      1.0000 0.02924  0.47568  0.42468  Biso   1.000  O
  O14      1.0000 0.05538  0.48872  0.53041  Biso   1.000  O
  C55      1.0000 0.05507  0.47750  0.47191  Biso   1.000  C
  C56      1.0000 0.08725  0.46304  0.45090  Biso   1.000  C
  C57      1.0000 0.11716  0.46460  0.49964  Biso   1.000  C
  H43      1.0000 0.11760  0.47500  0.54330  Biso   1.000  H
  C58      1.0000 0.14599  0.45014  0.48051  Biso   1.000  C
  H44      1.0000 0.16670  0.45130  0.51190  Biso   1.000  H
  C59      1.0000 0.14533  0.43447  0.41820  Biso   1.000  C
  C60      1.0000 0.11648  0.43477  0.36853  Biso   1.000  C
  H45      1.0000 0.11720  0.42590  0.32420  Biso   1.000  H
  C61      1.0000 0.08713  0.44857  0.38748  Biso   1.000  C
  H46      1.0000 0.06680  0.44790  0.35590  Biso   1.000  H
  C62      1.0000 0.17336  0.41549  0.39977  Biso   1.000  C
  C63      1.0000 0.15458  0.37617  0.36649  Biso   1.000  C
  H47      1.0000 0.12440  0.36250  0.35570  Biso   1.000  H
  H48      1.0000 0.23510  0.51620  0.37020  Biso   1.000  H
  H49      1.0000 0.29700  0.54880  0.48420  Biso   1.000  H
  O15      1.0000 0.69591  0.80901  0.75801  Biso   1.000  O
  O16      1.0000 0.72205  0.82205  0.86374  Biso   1.000  O
  C64      1.0000 0.72174  0.81083  0.80524  Biso   1.000  C
  C65      1.0000 0.75392  0.79637  0.78423  Biso   1.000  C
  C66      1.0000 0.78383  0.79793  0.83297  Biso   1.000  C
  H50      1.0000 0.78427  0.80833  0.87663  Biso   1.000  H
  C67      1.0000 0.81266  0.78347  0.81384  Biso   1.000  C
  H51      1.0000 0.83337  0.78463  0.84523  Biso   1.000  H
  C68      1.0000 0.81200  0.76780  0.75153  Biso   1.000  C
  C69      1.0000 0.78315  0.76810  0.70186  Biso   1.000  C
  H52      1.0000 0.78387  0.75923  0.65753  Biso   1.000  H
  C70      1.0000 0.75380  0.78190  0.72081  Biso   1.000  C
  H53      1.0000 0.73347  0.78123  0.68923  Biso   1.000  H
  C71      1.0000 0.84003  0.74882  0.73310  Biso   1.000  C
  C72      1.0000 0.82125  0.70950  0.69982  Biso   1.000  C
  H54      1.0000 0.79107  0.69583  0.68903  Biso   1.000  H
  H55      1.0000 0.90177  0.84953  0.70353  Biso   1.000  H
  H56      1.0000 0.96367  0.88213  0.81753  Biso   1.000  H
  O17      1.0000 0.36257  0.14235  0.09135  Biso   1.000  O
  O18      1.0000 0.38871  0.15539  0.19708  Biso   1.000  O
  C73      1.0000 0.38840  0.14417  0.13858  Biso   1.000  C
  C74      1.0000 0.42058  0.12971  0.11757  Biso   1.000  C
  C75      1.0000 0.45049  0.13127  0.16631  Biso   1.000  C
  H57      1.0000 0.45093  0.14167  0.20997  Biso   1.000  H
  C76      1.0000 0.47932  0.11681  0.14718  Biso   1.000  C
  H58      1.0000 0.50003  0.11797  0.17857  Biso   1.000  H
  C77      1.0000 0.47866  0.10114  0.08487  Biso   1.000  C
  C78      1.0000 0.44981  0.10144  0.03520  Biso   1.000  C
  H59      1.0000 0.45053  0.09257  0.99087  Biso   1.000  H
  C79      1.0000 0.42046  0.11524  0.05415  Biso   1.000  C
  H60      1.0000 0.40013  0.11457  0.02257  Biso   1.000  H
  C80      1.0000 0.50669  0.08216  0.06644  Biso   1.000  C
  C81      1.0000 0.48791  0.04284  0.03316  Biso   1.000  C
  H61      1.0000 0.45773  0.02917  0.02237  Biso   1.000  H
  H62      1.0000 0.56843  0.18287  0.03687  Biso   1.000  H
  H63      1.0000 0.63033  0.21547  0.15087  Biso   1.000  H
  O19      1.0000 0.55356  0.52432  0.57532  Biso   1.000  O
  O20      1.0000 0.56666  0.51128  0.46959  Biso   1.000  O
  C82      1.0000 0.57757  0.52250  0.52809  Biso   1.000  C
  C83      1.0000 0.62421  0.53696  0.54910  Biso   1.000  C
  C84      1.0000 0.65256  0.53540  0.50036  Biso   1.000  C
  H64      1.0000 0.64260  0.52500  0.45670  Biso   1.000  H
  C85      1.0000 0.69585  0.54986  0.51949  Biso   1.000  C
  H65      1.0000 0.71540  0.54870  0.48810  Biso   1.000  H
  C86      1.0000 0.71086  0.56553  0.58180  Biso   1.000  C
  C87      1.0000 0.68171  0.56523  0.63147  Biso   1.000  C
  H66      1.0000 0.69130  0.57410  0.67580  Biso   1.000  H
  C88      1.0000 0.63856  0.55143  0.61252  Biso   1.000  C
  H67      1.0000 0.61890  0.55210  0.64410  Biso   1.000  H
  C89      1.0000 0.75787  0.58451  0.60023  Biso   1.000  C
  C90      1.0000 0.77841  0.62383  0.63351  Biso   1.000  C
  H68      1.0000 0.76190  0.63750  0.64430  Biso   1.000  H
  H69      1.0000 0.71890  0.48380  0.62980  Biso   1.000  H
  H70      1.0000 0.74820  0.45120  0.51580  Biso   1.000  H
  O21      1.0000 0.22023  0.85765  0.90865  Biso   1.000  O
  O22      1.0000 0.23333  0.84461  0.80292  Biso   1.000  O
  C91      1.0000 0.24424  0.85583  0.86142  Biso   1.000  C
  C92      1.0000 0.29088  0.87029  0.88243  Biso   1.000  C
  C93      1.0000 0.31923  0.86873  0.83369  Biso   1.000  C
  H71      1.0000 0.30927  0.85833  0.79003  Biso   1.000  H
  C94      1.0000 0.36252  0.88319  0.85282  Biso   1.000  C
  H72      1.0000 0.38207  0.88203  0.82143  Biso   1.000  H
  C95      1.0000 0.37753  0.89886  0.91513  Biso   1.000  C
  C96      1.0000 0.34838  0.89856  0.96480  Biso   1.000  C
  H73      1.0000 0.35797  0.90743  0.00913  Biso   1.000  H
  C97      1.0000 0.30523  0.88476  0.94585  Biso   1.000  C
  H74      1.0000 0.28557  0.88543  0.97743  Biso   1.000  H
  C98      1.0000 0.42454  0.91784  0.93356  Biso   1.000  C
  C99      1.0000 0.44508  0.95716  0.96684  Biso   1.000  C
  H75      1.0000 0.42857  0.97083  0.97763  Biso   1.000  H
  H76      1.0000 0.38557  0.81713  0.96313  Biso   1.000  H
  H77      1.0000 0.41487  0.78453  0.84913  Biso   1.000  H
  O23      1.0000 0.88689  0.19099  0.24199  Biso   1.000  O
  O24      1.0000 0.89999  0.17795  0.13626  Biso   1.000  O
  C100     1.0000 0.91090  0.18917  0.19476  Biso   1.000  C
  C101     1.0000 0.95754  0.20363  0.21577  Biso   1.000  C
  C102     1.0000 0.98589  0.20207  0.16703  Biso   1.000  C
  H78      1.0000 0.97593  0.19167  0.12337  Biso   1.000  H
  C103     1.0000 0.02918  0.21653  0.18616  Biso   1.000  C
  H79      1.0000 0.04873  0.21537  0.15477  Biso   1.000  H
  C104     1.0000 0.04419  0.23220  0.24847  Biso   1.000  C
  C105     1.0000 0.01504  0.23190  0.29814  Biso   1.000  C
  H80      1.0000 0.02463  0.24077  0.34247  Biso   1.000  H
  C106     1.0000 0.97189  0.21810  0.27919  Biso   1.000  C
  H81      1.0000 0.95223  0.21877  0.31077  Biso   1.000  H
  C107     1.0000 0.09120  0.25118  0.26690  Biso   1.000  C
  C108     1.0000 0.11174  0.29050  0.30018  Biso   1.000  C
  H82      1.0000 0.09523  0.30417  0.31097  Biso   1.000  H
  H83      1.0000 0.05223  0.15047  0.29647  Biso   1.000  H
  H84      1.0000 0.08153  0.11787  0.18247  Biso   1.000  H
  O25      1.0000 0.97076  0.44644  0.57532  Biso   1.000  O
  O26      1.0000 0.94462  0.43334  0.46959  Biso   1.000  O
  C109     1.0000 0.94493  0.42243  0.52809  Biso   1.000  C
  C110     1.0000 0.91275  0.37579  0.54910  Biso   1.000  C
  C111     1.0000 0.88284  0.34744  0.50036  Biso   1.000  C
  H85      1.0000 0.88240  0.35740  0.45670  Biso   1.000  H
  C112     1.0000 0.85401  0.30415  0.51949  Biso   1.000  C
  H86      1.0000 0.83330  0.28460  0.48810  Biso   1.000  H
  C113     1.0000 0.85467  0.28914  0.58180  Biso   1.000  C
  C114     1.0000 0.88352  0.31829  0.63147  Biso   1.000  C
  H87      1.0000 0.88280  0.30870  0.67580  Biso   1.000  H
  C115     1.0000 0.91287  0.36144  0.61252  Biso   1.000  C
  H88      1.0000 0.93320  0.38110  0.64410  Biso   1.000  H
  C116     1.0000 0.82664  0.24213  0.60023  Biso   1.000  C
  C117     1.0000 0.84542  0.22159  0.63351  Biso   1.000  C
  H89      1.0000 0.87560  0.23810  0.64430  Biso   1.000  H
  H90      1.0000 0.76490  0.28110  0.62980  Biso   1.000  H
  H91      1.0000 0.70300  0.25180  0.51580  Biso   1.000  H
  O27      1.0000 0.63743  0.77977  0.90865  Biso   1.000  O
  O28      1.0000 0.61129  0.76667  0.80292  Biso   1.000  O
  C118     1.0000 0.61160  0.75576  0.86142  Biso   1.000  C
  C119     1.0000 0.57942  0.70912  0.88243  Biso   1.000  C
  C120     1.0000 0.54951  0.68077  0.83369  Biso   1.000  C
  H92      1.0000 0.54907  0.69073  0.79003  Biso   1.000  H
  C121     1.0000 0.52068  0.63748  0.85282  Biso   1.000  C
  H93      1.0000 0.49997  0.61793  0.82143  Biso   1.000  H
  C122     1.0000 0.52134  0.62247  0.91513  Biso   1.000  C
  C123     1.0000 0.55019  0.65162  0.96480  Biso   1.000  C
  H94      1.0000 0.54947  0.64203  0.00913  Biso   1.000  H
  C124     1.0000 0.57954  0.69477  0.94585  Biso   1.000  C
  H95      1.0000 0.59987  0.71443  0.97743  Biso   1.000  H
  C125     1.0000 0.49331  0.57546  0.93356  Biso   1.000  C
  C126     1.0000 0.51209  0.55492  0.96684  Biso   1.000  C
  H96      1.0000 0.54227  0.57143  0.97763  Biso   1.000  H
  H97      1.0000 0.43157  0.61443  0.96313  Biso   1.000  H
  H98      1.0000 0.36967  0.58513  0.84913  Biso   1.000  H
  O29      1.0000 0.30409  0.11311  0.24199  Biso   1.000  O
  O30      1.0000 0.27795  0.10001  0.13626  Biso   1.000  O
  C127     1.0000 0.27826  0.08910  0.19476  Biso   1.000  C
  C128     1.0000 0.24608  0.04246  0.21577  Biso   1.000  C
  C129     1.0000 0.21617  0.01411  0.16703  Biso   1.000  C
  H99      1.0000 0.21573  0.02407  0.12337  Biso   1.000  H
  C130     1.0000 0.18734  0.97082  0.18616  Biso   1.000  C
  H100     1.0000 0.16663  0.95127  0.15477  Biso   1.000  H
  C131     1.0000 0.18800  0.95581  0.24847  Biso   1.000  C
  C132     1.0000 0.21685  0.98496  0.29814  Biso   1.000  C
  H101     1.0000 0.21613  0.97537  0.34247  Biso   1.000  H
  C133     1.0000 0.24620  0.02811  0.27919  Biso   1.000  C
  H102     1.0000 0.26653  0.04777  0.31077  Biso   1.000  H
  C134     1.0000 0.15997  0.90880  0.26690  Biso   1.000  C
  C135     1.0000 0.17875  0.88826  0.30018  Biso   1.000  C
  H103     1.0000 0.20893  0.90477  0.31097  Biso   1.000  H
  H104     1.0000 0.09823  0.94777  0.29647  Biso   1.000  H
  H105     1.0000 0.03633  0.91847  0.18247  Biso   1.000  H
  O31      1.0000 0.47568  0.02924  0.57532  Biso   1.000  O
  O32      1.0000 0.48872  0.05538  0.46959  Biso   1.000  O
  C136     1.0000 0.47750  0.05507  0.52809  Biso   1.000  C
  C137     1.0000 0.46304  0.08725  0.54910  Biso   1.000  C
  C138     1.0000 0.46460  0.11716  0.50036  Biso   1.000  C
  H106     1.0000 0.47500  0.11760  0.45670  Biso   1.000  H
  C139     1.0000 0.45014  0.14599  0.51949  Biso   1.000  C
  H107     1.0000 0.45130  0.16670  0.48810  Biso   1.000  H
  C140     1.0000 0.43447  0.14533  0.58180  Biso   1.000  C
  C141     1.0000 0.43477  0.11648  0.63147  Biso   1.000  C
  H108     1.0000 0.42590  0.11720  0.67580  Biso   1.000  H
  C142     1.0000 0.44857  0.08713  0.61252  Biso   1.000  C
  H109     1.0000 0.44790  0.06680  0.64410  Biso   1.000  H
  C143     1.0000 0.41549  0.17336  0.60023  Biso   1.000  C
  C144     1.0000 0.37617  0.15458  0.63351  Biso   1.000  C
  H110     1.0000 0.36250  0.12440  0.64430  Biso   1.000  H
  H111     1.0000 0.51620  0.23510  0.62980  Biso   1.000  H
  H112     1.0000 0.54880  0.29700  0.51580  Biso   1.000  H
  O33      1.0000 0.14235  0.36257  0.90865  Biso   1.000  O
  O34      1.0000 0.15539  0.38871  0.80292  Biso   1.000  O
  C145     1.0000 0.14417  0.38840  0.86142  Biso   1.000  C
  C146     1.0000 0.12971  0.42058  0.88243  Biso   1.000  C
  C147     1.0000 0.13127  0.45049  0.83369  Biso   1.000  C
  H113     1.0000 0.14167  0.45093  0.79003  Biso   1.000  H
  C148     1.0000 0.11681  0.47932  0.85282  Biso   1.000  C
  H114     1.0000 0.11797  0.50003  0.82143  Biso   1.000  H
  C149     1.0000 0.10114  0.47866  0.91513  Biso   1.000  C
  C150     1.0000 0.10144  0.44981  0.96480  Biso   1.000  C
  H115     1.0000 0.09257  0.45053  0.00913  Biso   1.000  H
  C151     1.0000 0.11524  0.42046  0.94585  Biso   1.000  C
  H116     1.0000 0.11457  0.40013  0.97743  Biso   1.000  H
  C152     1.0000 0.08216  0.50669  0.93356  Biso   1.000  C
  C153     1.0000 0.04284  0.48791  0.96684  Biso   1.000  C
  H117     1.0000 0.02917  0.45773  0.97763  Biso   1.000  H
  H118     1.0000 0.18287  0.56843  0.96313  Biso   1.000  H
  H119     1.0000 0.21547  0.63033  0.84913  Biso   1.000  H
  O35      1.0000 0.80901  0.69591  0.24199  Biso   1.000  O
  O36      1.0000 0.82205  0.72205  0.13626  Biso   1.000  O
  C154     1.0000 0.81083  0.72174  0.19476  Biso   1.000  C
  C155     1.0000 0.79637  0.75392  0.21577  Biso   1.000  C
  C156     1.0000 0.79793  0.78383  0.16703  Biso   1.000  C
  H120     1.0000 0.80833  0.78427  0.12337  Biso   1.000  H
  C157     1.0000 0.78347  0.81266  0.18616  Biso   1.000  C
  H121     1.0000 0.78463  0.83337  0.15477  Biso   1.000  H
  C158     1.0000 0.76780  0.81200  0.24847  Biso   1.000  C
  C159     1.0000 0.76810  0.78315  0.29814  Biso   1.000  C
  H122     1.0000 0.75923  0.78387  0.34247  Biso   1.000  H
  C160     1.0000 0.78190  0.75380  0.27919  Biso   1.000  C
  H123     1.0000 0.78123  0.73347  0.31077  Biso   1.000  H
  C161     1.0000 0.74882  0.84003  0.26690  Biso   1.000  C
  C162     1.0000 0.70950  0.82125  0.30018  Biso   1.000  C
  H124     1.0000 0.69583  0.79107  0.31097  Biso   1.000  H
  H125     1.0000 0.84953  0.90177  0.29647  Biso   1.000  H
  H126     1.0000 0.88213  0.96367  0.18247  Biso   1.000  H
  O37      1.0000 0.47568  0.44644  0.57532  Biso   1.000  O
  O38      1.0000 0.48872  0.43334  0.46959  Biso   1.000  O
  C163     1.0000 0.47750  0.42243  0.52809  Biso   1.000  C
  C164     1.0000 0.46304  0.37579  0.54910  Biso   1.000  C
  C165     1.0000 0.46460  0.34744  0.50036  Biso   1.000  C
  H127     1.0000 0.47500  0.35740  0.45670  Biso   1.000  H
  C166     1.0000 0.45014  0.30415  0.51949  Biso   1.000  C
  H128     1.0000 0.45130  0.28460  0.48810  Biso   1.000  H
  C167     1.0000 0.43447  0.28914  0.58180  Biso   1.000  C
  C168     1.0000 0.43477  0.31829  0.63147  Biso   1.000  C
  H129     1.0000 0.42590  0.30870  0.67580  Biso   1.000  H
  C169     1.0000 0.44857  0.36144  0.61252  Biso   1.000  C
  H130     1.0000 0.44790  0.38110  0.64410  Biso   1.000  H
  C170     1.0000 0.41549  0.24213  0.60023  Biso   1.000  C
  C171     1.0000 0.37617  0.22159  0.63351  Biso   1.000  C
  H131     1.0000 0.36250  0.23810  0.64430  Biso   1.000  H
  H132     1.0000 0.51620  0.28110  0.62980  Biso   1.000  H
  H133     1.0000 0.54880  0.25180  0.51580  Biso   1.000  H
  O39      1.0000 0.14235  0.77977  0.90865  Biso   1.000  O
  O40      1.0000 0.15539  0.76667  0.80292  Biso   1.000  O
  C172     1.0000 0.14417  0.75576  0.86142  Biso   1.000  C
  C173     1.0000 0.12971  0.70912  0.88243  Biso   1.000  C
  C174     1.0000 0.13127  0.68077  0.83369  Biso   1.000  C
  H134     1.0000 0.14167  0.69073  0.79003  Biso   1.000  H
  C175     1.0000 0.11681  0.63748  0.85282  Biso   1.000  C
  H135     1.0000 0.11797  0.61793  0.82143  Biso   1.000  H
  C176     1.0000 0.10114  0.62247  0.91513  Biso   1.000  C
  C177     1.0000 0.10144  0.65162  0.96480  Biso   1.000  C
  H136     1.0000 0.09257  0.64203  0.00913  Biso   1.000  H
  C178     1.0000 0.11524  0.69477  0.94585  Biso   1.000  C
  H137     1.0000 0.11457  0.71443  0.97743  Biso   1.000  H
  C179     1.0000 0.08216  0.57546  0.93356  Biso   1.000  C
  C180     1.0000 0.04284  0.55492  0.96684  Biso   1.000  C
  H138     1.0000 0.02917  0.57143  0.97763  Biso   1.000  H
  H139     1.0000 0.18287  0.61443  0.96313  Biso   1.000  H
  H140     1.0000 0.21547  0.58513  0.84913  Biso   1.000  H
  O41      1.0000 0.80901  0.11311  0.24199  Biso   1.000  O
  O42      1.0000 0.82205  0.10001  0.13626  Biso   1.000  O
  C181     1.0000 0.81083  0.08910  0.19476  Biso   1.000  C
  C182     1.0000 0.79637  0.04246  0.21577  Biso   1.000  C
  C183     1.0000 0.79793  0.01411  0.16703  Biso   1.000  C
  H141     1.0000 0.80833  0.02407  0.12337  Biso   1.000  H
  C184     1.0000 0.78347  0.97082  0.18616  Biso   1.000  C
  H142     1.0000 0.78463  0.95127  0.15477  Biso   1.000  H
  C185     1.0000 0.76780  0.95581  0.24847  Biso   1.000  C
  C186     1.0000 0.76810  0.98496  0.29814  Biso   1.000  C
  H143     1.0000 0.75923  0.97537  0.34247  Biso   1.000  H
  C187     1.0000 0.78190  0.02811  0.27919  Biso   1.000  C
  H144     1.0000 0.78123  0.04777  0.31077  Biso   1.000  H
  C188     1.0000 0.74882  0.90880  0.26690  Biso   1.000  C
  C189     1.0000 0.70950  0.88826  0.30018  Biso   1.000  C
  H145     1.0000 0.69583  0.90477  0.31097  Biso   1.000  H
  H146     1.0000 0.84953  0.94777  0.29647  Biso   1.000  H
  H147     1.0000 0.88213  0.91847  0.18247  Biso   1.000  H
  O43      1.0000 0.55356  0.02924  0.57532  Biso   1.000  O
  O44      1.0000 0.56666  0.05538  0.46959  Biso   1.000  O
  C190     1.0000 0.57757  0.05507  0.52809  Biso   1.000  C
  C191     1.0000 0.62421  0.08725  0.54910  Biso   1.000  C
  C192     1.0000 0.65256  0.11716  0.50036  Biso   1.000  C
  H148     1.0000 0.64260  0.11760  0.45670  Biso   1.000  H
  C193     1.0000 0.69585  0.14599  0.51949  Biso   1.000  C
  H149     1.0000 0.71540  0.16670  0.48810  Biso   1.000  H
  C194     1.0000 0.71086  0.14533  0.58180  Biso   1.000  C
  C195     1.0000 0.68171  0.11648  0.63147  Biso   1.000  C
  H150     1.0000 0.69130  0.11720  0.67580  Biso   1.000  H
  C196     1.0000 0.63856  0.08713  0.61252  Biso   1.000  C
  H151     1.0000 0.61890  0.06680  0.64410  Biso   1.000  H
  C197     1.0000 0.75787  0.17336  0.60023  Biso   1.000  C
  C198     1.0000 0.77841  0.15458  0.63351  Biso   1.000  C
  H152     1.0000 0.76190  0.12440  0.64430  Biso   1.000  H
  H153     1.0000 0.71890  0.23510  0.62980  Biso   1.000  H
  H154     1.0000 0.74820  0.29700  0.51580  Biso   1.000  H
  O45      1.0000 0.22023  0.36257  0.90865  Biso   1.000  O
  O46      1.0000 0.23333  0.38871  0.80292  Biso   1.000  O
  C199     1.0000 0.24424  0.38840  0.86142  Biso   1.000  C
  C200     1.0000 0.29088  0.42058  0.88243  Biso   1.000  C
  C201     1.0000 0.31923  0.45049  0.83369  Biso   1.000  C
  H155     1.0000 0.30927  0.45093  0.79003  Biso   1.000  H
  C202     1.0000 0.36252  0.47932  0.85282  Biso   1.000  C
  H156     1.0000 0.38207  0.50003  0.82143  Biso   1.000  H
  C203     1.0000 0.37753  0.47866  0.91513  Biso   1.000  C
  C204     1.0000 0.34838  0.44981  0.96480  Biso   1.000  C
  H157     1.0000 0.35797  0.45053  0.00913  Biso   1.000  H
  C205     1.0000 0.30523  0.42046  0.94585  Biso   1.000  C
  H158     1.0000 0.28557  0.40013  0.97743  Biso   1.000  H
  C206     1.0000 0.42454  0.50669  0.93356  Biso   1.000  C
  C207     1.0000 0.44508  0.48791  0.96684  Biso   1.000  C
  H159     1.0000 0.42857  0.45773  0.97763  Biso   1.000  H
  H160     1.0000 0.38557  0.56843  0.96313  Biso   1.000  H
  H161     1.0000 0.41487  0.63033  0.84913  Biso   1.000  H
  O47      1.0000 0.88689  0.69591  0.24199  Biso   1.000  O
  O48      1.0000 0.89999  0.72205  0.13626  Biso   1.000  O
  C208     1.0000 0.91090  0.72174  0.19476  Biso   1.000  C
  C209     1.0000 0.95754  0.75392  0.21577  Biso   1.000  C
  C210     1.0000 0.98589  0.78383  0.16703  Biso   1.000  C
  H162     1.0000 0.97593  0.78427  0.12337  Biso   1.000  H
  C211     1.0000 0.02918  0.81266  0.18616  Biso   1.000  C
  H163     1.0000 0.04873  0.83337  0.15477  Biso   1.000  H
  C212     1.0000 0.04419  0.81200  0.24847  Biso   1.000  C
  C213     1.0000 0.01504  0.78315  0.29814  Biso   1.000  C
  H164     1.0000 0.02463  0.78387  0.34247  Biso   1.000  H
  C214     1.0000 0.97189  0.75380  0.27919  Biso   1.000  C
  H165     1.0000 0.95223  0.73347  0.31077  Biso   1.000  H
  C215     1.0000 0.09120  0.84003  0.26690  Biso   1.000  C
  C216     1.0000 0.11174  0.82125  0.30018  Biso   1.000  C
  H166     1.0000 0.09523  0.79107  0.31097  Biso   1.000  H
  H167     1.0000 0.05223  0.90177  0.29647  Biso   1.000  H
  H168     1.0000 0.08153  0.96367  0.18247  Biso   1.000  H
  O49      1.0000 0.97076  0.52432  0.57532  Biso   1.000  O
  O50      1.0000 0.94462  0.51128  0.46959  Biso   1.000  O
  C217     1.0000 0.94493  0.52250  0.52809  Biso   1.000  C
  C218     1.0000 0.91275  0.53696  0.54910  Biso   1.000  C
  C219     1.0000 0.88284  0.53540  0.50036  Biso   1.000  C
  H169     1.0000 0.88240  0.52500  0.45670  Biso   1.000  H
  C220     1.0000 0.85401  0.54986  0.51949  Biso   1.000  C
  H170     1.0000 0.83330  0.54870  0.48810  Biso   1.000  H
  C221     1.0000 0.85467  0.56553  0.58180  Biso   1.000  C
  C222     1.0000 0.88352  0.56523  0.63147  Biso   1.000  C
  H171     1.0000 0.88280  0.57410  0.67580  Biso   1.000  H
  C223     1.0000 0.91287  0.55143  0.61252  Biso   1.000  C
  H172     1.0000 0.93320  0.55210  0.64410  Biso   1.000  H
  C224     1.0000 0.82664  0.58451  0.60023  Biso   1.000  C
  C225     1.0000 0.84542  0.62383  0.63351  Biso   1.000  C
  H173     1.0000 0.87560  0.63750  0.64430  Biso   1.000  H
  H174     1.0000 0.76490  0.48380  0.62980  Biso   1.000  H
  H175     1.0000 0.70300  0.45120  0.51580  Biso   1.000  H
  O51      1.0000 0.63743  0.85765  0.90865  Biso   1.000  O
  O52      1.0000 0.61129  0.84461  0.80292  Biso   1.000  O
  C226     1.0000 0.61160  0.85583  0.86142  Biso   1.000  C
  C227     1.0000 0.57942  0.87029  0.88243  Biso   1.000  C
  C228     1.0000 0.54951  0.86873  0.83369  Biso   1.000  C
  H176     1.0000 0.54907  0.85833  0.79003  Biso   1.000  H
  C229     1.0000 0.52068  0.88319  0.85282  Biso   1.000  C
  H177     1.0000 0.49997  0.88203  0.82143  Biso   1.000  H
  C230     1.0000 0.52134  0.89886  0.91513  Biso   1.000  C
  C231     1.0000 0.55019  0.89856  0.96480  Biso   1.000  C
  H178     1.0000 0.54947  0.90743  0.00913  Biso   1.000  H
  C232     1.0000 0.57954  0.88476  0.94585  Biso   1.000  C
  H179     1.0000 0.59987  0.88543  0.97743  Biso   1.000  H
  C233     1.0000 0.49331  0.91784  0.93356  Biso   1.000  C
  C234     1.0000 0.51209  0.95716  0.96684  Biso   1.000  C
  H180     1.0000 0.54227  0.97083  0.97763  Biso   1.000  H
  H181     1.0000 0.43157  0.81713  0.96313  Biso   1.000  H
  H182     1.0000 0.36967  0.78453  0.84913  Biso   1.000  H
  O53      1.0000 0.30409  0.19099  0.24199  Biso   1.000  O
  O54      1.0000 0.27795  0.17795  0.13626  Biso   1.000  O
  C235     1.0000 0.27826  0.18917  0.19476  Biso   1.000  C
  C236     1.0000 0.24608  0.20363  0.21577  Biso   1.000  C
  C237     1.0000 0.21617  0.20207  0.16703  Biso   1.000  C
  H183     1.0000 0.21573  0.19167  0.12337  Biso   1.000  H
  C238     1.0000 0.18734  0.21653  0.18616  Biso   1.000  C
  H184     1.0000 0.16663  0.21537  0.15477  Biso   1.000  H
  C239     1.0000 0.18800  0.23220  0.24847  Biso   1.000  C
  C240     1.0000 0.21685  0.23190  0.29814  Biso   1.000  C
  H185     1.0000 0.21613  0.24077  0.34247  Biso   1.000  H
  C241     1.0000 0.24620  0.21810  0.27919  Biso   1.000  C
  H186     1.0000 0.26653  0.21877  0.31077  Biso   1.000  H
  C242     1.0000 0.15997  0.25118  0.26690  Biso   1.000  C
  C243     1.0000 0.17875  0.29050  0.30018  Biso   1.000  C
  H187     1.0000 0.20893  0.30417  0.31097  Biso   1.000  H
  H188     1.0000 0.09823  0.15047  0.29647  Biso   1.000  H
  H189     1.0000 0.03633  0.11787  0.18247  Biso   1.000  H
  O55      1.0000 0.44644  0.47568  0.42468  Biso   1.000  O
  O56      1.0000 0.43334  0.48872  0.53041  Biso   1.000  O
  C244     1.0000 0.42243  0.47750  0.47191  Biso   1.000  C
  C245     1.0000 0.37579  0.46304  0.45090  Biso   1.000  C
  C246     1.0000 0.34744  0.46460  0.49964  Biso   1.000  C
  H190     1.0000 0.35740  0.47500  0.54330  Biso   1.000  H
  C247     1.0000 0.30415  0.45014  0.48051  Biso   1.000  C
  H191     1.0000 0.28460  0.45130  0.51190  Biso   1.000  H
  C248     1.0000 0.28914  0.43447  0.41820  Biso   1.000  C
  C249     1.0000 0.31829  0.43477  0.36853  Biso   1.000  C
  H192     1.0000 0.30870  0.42590  0.32420  Biso   1.000  H
  C250     1.0000 0.36144  0.44857  0.38748  Biso   1.000  C
  H193     1.0000 0.38110  0.44790  0.35590  Biso   1.000  H
  C251     1.0000 0.24213  0.41549  0.39977  Biso   1.000  C
  C252     1.0000 0.22159  0.37617  0.36649  Biso   1.000  C
  H194     1.0000 0.23810  0.36250  0.35570  Biso   1.000  H
  H195     1.0000 0.28110  0.51620  0.37020  Biso   1.000  H
  H196     1.0000 0.25180  0.54880  0.48420  Biso   1.000  H
  O57      1.0000 0.11311  0.80901  0.75801  Biso   1.000  O
  O58      1.0000 0.10001  0.82205  0.86374  Biso   1.000  O
  C253     1.0000 0.08910  0.81083  0.80524  Biso   1.000  C
  C254     1.0000 0.04246  0.79637  0.78423  Biso   1.000  C
  C255     1.0000 0.01411  0.79793  0.83297  Biso   1.000  C
  H197     1.0000 0.02407  0.80833  0.87663  Biso   1.000  H
  C256     1.0000 0.97082  0.78347  0.81384  Biso   1.000  C
  H198     1.0000 0.95127  0.78463  0.84523  Biso   1.000  H
  C257     1.0000 0.95581  0.76780  0.75153  Biso   1.000  C
  C258     1.0000 0.98496  0.76810  0.70186  Biso   1.000  C
  H199     1.0000 0.97537  0.75923  0.65753  Biso   1.000  H
  C259     1.0000 0.02811  0.78190  0.72081  Biso   1.000  C
  H200     1.0000 0.04777  0.78123  0.68923  Biso   1.000  H
  C260     1.0000 0.90880  0.74882  0.73310  Biso   1.000  C
  C261     1.0000 0.88826  0.70950  0.69982  Biso   1.000  C
  H201     1.0000 0.90477  0.69583  0.68903  Biso   1.000  H
  H202     1.0000 0.94777  0.84953  0.70353  Biso   1.000  H
  H203     1.0000 0.91847  0.88213  0.81753  Biso   1.000  H
  O59      1.0000 0.77977  0.14235  0.09135  Biso   1.000  O
  O60      1.0000 0.76667  0.15539  0.19708  Biso   1.000  O
  C262     1.0000 0.75576  0.14417  0.13858  Biso   1.000  C
  C263     1.0000 0.70912  0.12971  0.11757  Biso   1.000  C
  C264     1.0000 0.68077  0.13127  0.16631  Biso   1.000  C
  H204     1.0000 0.69073  0.14167  0.20997  Biso   1.000  H
  C265     1.0000 0.63748  0.11681  0.14718  Biso   1.000  C
  H205     1.0000 0.61793  0.11797  0.17857  Biso   1.000  H
  C266     1.0000 0.62247  0.10114  0.08487  Biso   1.000  C
  C267     1.0000 0.65162  0.10144  0.03520  Biso   1.000  C
  H206     1.0000 0.64203  0.09257  0.99087  Biso   1.000  H
  C268     1.0000 0.69477  0.11524  0.05415  Biso   1.000  C
  H207     1.0000 0.71443  0.11457  0.02257  Biso   1.000  H
  C269     1.0000 0.57546  0.08216  0.06644  Biso   1.000  C
  C270     1.0000 0.55492  0.04284  0.03316  Biso   1.000  C
  H208     1.0000 0.57143  0.02917  0.02237  Biso   1.000  H
  H209     1.0000 0.61443  0.18287  0.03687  Biso   1.000  H
  H210     1.0000 0.58513  0.21547  0.15087  Biso   1.000  H
  O61      1.0000 0.02924  0.55356  0.42468  Biso   1.000  O
  O62      1.0000 0.05538  0.56666  0.53041  Biso   1.000  O
  C271     1.0000 0.05507  0.57757  0.47191  Biso   1.000  C
  C272     1.0000 0.08725  0.62421  0.45090  Biso   1.000  C
  C273     1.0000 0.11716  0.65256  0.49964  Biso   1.000  C
  H211     1.0000 0.11760  0.64260  0.54330  Biso   1.000  H
  C274     1.0000 0.14599  0.69585  0.48051  Biso   1.000  C
  H212     1.0000 0.16670  0.71540  0.51190  Biso   1.000  H
  C275     1.0000 0.14533  0.71086  0.41820  Biso   1.000  C
  C276     1.0000 0.11648  0.68171  0.36853  Biso   1.000  C
  H213     1.0000 0.11720  0.69130  0.32420  Biso   1.000  H
  C277     1.0000 0.08713  0.63856  0.38748  Biso   1.000  C
  H214     1.0000 0.06680  0.61890  0.35590  Biso   1.000  H
  C278     1.0000 0.17336  0.75787  0.39977  Biso   1.000  C
  C279     1.0000 0.15458  0.77841  0.36649  Biso   1.000  C
  H215     1.0000 0.12440  0.76190  0.35570  Biso   1.000  H
  H216     1.0000 0.23510  0.71890  0.37020  Biso   1.000  H
  H217     1.0000 0.29700  0.74820  0.48420  Biso   1.000  H
  O63      1.0000 0.69591  0.88689  0.75801  Biso   1.000  O
  O64      1.0000 0.72205  0.89999  0.86374  Biso   1.000  O
  C280     1.0000 0.72174  0.91090  0.80524  Biso   1.000  C
  C281     1.0000 0.75392  0.95754  0.78423  Biso   1.000  C
  C282     1.0000 0.78383  0.98589  0.83297  Biso   1.000  C
  H218     1.0000 0.78427  0.97593  0.87663  Biso   1.000  H
  C283     1.0000 0.81266  0.02918  0.81384  Biso   1.000  C
  H219     1.0000 0.83337  0.04873  0.84523  Biso   1.000  H
  C284     1.0000 0.81200  0.04419  0.75153  Biso   1.000  C
  C285     1.0000 0.78315  0.01504  0.70186  Biso   1.000  C
  H220     1.0000 0.78387  0.02463  0.65753  Biso   1.000  H
  C286     1.0000 0.75380  0.97189  0.72081  Biso   1.000  C
  H221     1.0000 0.73347  0.95223  0.68923  Biso   1.000  H
  C287     1.0000 0.84003  0.09120  0.73310  Biso   1.000  C
  C288     1.0000 0.82125  0.11174  0.69982  Biso   1.000  C
  H222     1.0000 0.79107  0.09523  0.68903  Biso   1.000  H
  H223     1.0000 0.90177  0.05223  0.70353  Biso   1.000  H
  H224     1.0000 0.96367  0.08153  0.81753  Biso   1.000  H
  O65      1.0000 0.36257  0.22023  0.09135  Biso   1.000  O
  O66      1.0000 0.38871  0.23333  0.19708  Biso   1.000  O
  C289     1.0000 0.38840  0.24424  0.13858  Biso   1.000  C
  C290     1.0000 0.42058  0.29088  0.11757  Biso   1.000  C
  C291     1.0000 0.45049  0.31923  0.16631  Biso   1.000  C
  H225     1.0000 0.45093  0.30927  0.20997  Biso   1.000  H
  C292     1.0000 0.47932  0.36252  0.14718  Biso   1.000  C
  H226     1.0000 0.50003  0.38207  0.17857  Biso   1.000  H
  C293     1.0000 0.47866  0.37753  0.08487  Biso   1.000  C
  C294     1.0000 0.44981  0.34838  0.03520  Biso   1.000  C
  H227     1.0000 0.45053  0.35797  0.99087  Biso   1.000  H
  C295     1.0000 0.42046  0.30523  0.05415  Biso   1.000  C
  H228     1.0000 0.40013  0.28557  0.02257  Biso   1.000  H
  C296     1.0000 0.50669  0.42454  0.06644  Biso   1.000  C
  C297     1.0000 0.48791  0.44508  0.03316  Biso   1.000  C
  H229     1.0000 0.45773  0.42857  0.02237  Biso   1.000  H
  H230     1.0000 0.56843  0.38557  0.03687  Biso   1.000  H
  H231     1.0000 0.63033  0.41487  0.15087  Biso   1.000  H
  O67      1.0000 0.52432  0.97076  0.42468  Biso   1.000  O
  O68      1.0000 0.51128  0.94462  0.53041  Biso   1.000  O
  C298     1.0000 0.52250  0.94493  0.47191  Biso   1.000  C
  C299     1.0000 0.53696  0.91275  0.45090  Biso   1.000  C
  C300     1.0000 0.53540  0.88284  0.49964  Biso   1.000  C
  H232     1.0000 0.52500  0.88240  0.54330  Biso   1.000  H
  C301     1.0000 0.54986  0.85401  0.48051  Biso   1.000  C
  H233     1.0000 0.54870  0.83330  0.51190  Biso   1.000  H
  C302     1.0000 0.56553  0.85467  0.41820  Biso   1.000  C
  C303     1.0000 0.56523  0.88352  0.36853  Biso   1.000  C
  H234     1.0000 0.57410  0.88280  0.32420  Biso   1.000  H
  C304     1.0000 0.55143  0.91287  0.38748  Biso   1.000  C
  H235     1.0000 0.55210  0.93320  0.35590  Biso   1.000  H
  C305     1.0000 0.58451  0.82664  0.39977  Biso   1.000  C
  C306     1.0000 0.62383  0.84542  0.36649  Biso   1.000  C
  H236     1.0000 0.63750  0.87560  0.35570  Biso   1.000  H
  H237     1.0000 0.48380  0.76490  0.37020  Biso   1.000  H
  H238     1.0000 0.45120  0.70300  0.48420  Biso   1.000  H
  O69      1.0000 0.19099  0.30409  0.75801  Biso   1.000  O
  O70      1.0000 0.17795  0.27795  0.86374  Biso   1.000  O
  C307     1.0000 0.18917  0.27826  0.80524  Biso   1.000  C
  C308     1.0000 0.20363  0.24608  0.78423  Biso   1.000  C
  C309     1.0000 0.20207  0.21617  0.83297  Biso   1.000  C
  H239     1.0000 0.19167  0.21573  0.87663  Biso   1.000  H
  C310     1.0000 0.21653  0.18734  0.81384  Biso   1.000  C
  H240     1.0000 0.21537  0.16663  0.84523  Biso   1.000  H
  C311     1.0000 0.23220  0.18800  0.75153  Biso   1.000  C
  C312     1.0000 0.23190  0.21685  0.70186  Biso   1.000  C
  H241     1.0000 0.24077  0.21613  0.65753  Biso   1.000  H
  C313     1.0000 0.21810  0.24620  0.72081  Biso   1.000  C
  H242     1.0000 0.21877  0.26653  0.68923  Biso   1.000  H
  C314     1.0000 0.25118  0.15997  0.73310  Biso   1.000  C
  C315     1.0000 0.29050  0.17875  0.69982  Biso   1.000  C
  H243     1.0000 0.30417  0.20893  0.68903  Biso   1.000  H
  H244     1.0000 0.15047  0.09823  0.70353  Biso   1.000  H
  H245     1.0000 0.11787  0.03633  0.81753  Biso   1.000  H
  O71      1.0000 0.85765  0.63743  0.09135  Biso   1.000  O
  O72      1.0000 0.84461  0.61129  0.19708  Biso   1.000  O
  C316     1.0000 0.85583  0.61160  0.13858  Biso   1.000  C
  C317     1.0000 0.87029  0.57942  0.11757  Biso   1.000  C
  C318     1.0000 0.86873  0.54951  0.16631  Biso   1.000  C
  H246     1.0000 0.85833  0.54907  0.20997  Biso   1.000  H
  C319     1.0000 0.88319  0.52068  0.14718  Biso   1.000  C
  H247     1.0000 0.88203  0.49997  0.17857  Biso   1.000  H
  C320     1.0000 0.89886  0.52134  0.08487  Biso   1.000  C
  C321     1.0000 0.89856  0.55019  0.03520  Biso   1.000  C
  H248     1.0000 0.90743  0.54947  0.99087  Biso   1.000  H
  C322     1.0000 0.88476  0.57954  0.05415  Biso   1.000  C
  H249     1.0000 0.88543  0.59987  0.02257  Biso   1.000  H
  C323     1.0000 0.91784  0.49331  0.06644  Biso   1.000  C
  C324     1.0000 0.95716  0.51209  0.03316  Biso   1.000  C
  H250     1.0000 0.97083  0.54227  0.02237  Biso   1.000  H
  H251     1.0000 0.81713  0.43157  0.03687  Biso   1.000  H
  H252     1.0000 0.78453  0.36967  0.15087  Biso   1.000  H
  Cu1      1.0000 0.49247  0.50753  0.56086  Biso   1.000  Cu
  Cu2      1.0000 0.15913  0.84087  0.89419  Biso   1.000  Cu
  Cu3      1.0000 0.82580  0.17420  0.22753  Biso   1.000  Cu
  Cu4      1.0000 0.49247  0.98493  0.56086  Biso   1.000  Cu
  Cu5      1.0000 0.15913  0.31826  0.89419  Biso   1.000  Cu
  Cu6      1.0000 0.82580  0.65160  0.22753  Biso   1.000  Cu
  Cu7      1.0000 0.01507  0.50753  0.56086  Biso   1.000  Cu
  Cu8      1.0000 0.68174  0.84087  0.89419  Biso   1.000  Cu
  Cu9      1.0000 0.34840  0.17420  0.22753  Biso   1.000  Cu
  Cu10     1.0000 0.50753  0.49247  0.43914  Biso   1.000  Cu
  Cu11     1.0000 0.17420  0.82580  0.77247  Biso   1.000  Cu
  Cu12     1.0000 0.84087  0.15913  0.10581  Biso   1.000  Cu
  Cu13     1.0000 0.98493  0.49247  0.43914  Biso   1.000  Cu
  Cu14     1.0000 0.65160  0.82580  0.77247  Biso   1.000  Cu
  Cu15     1.0000 0.31826  0.15913  0.10581  Biso   1.000  Cu
  Cu16     1.0000 0.50753  0.01507  0.43914  Biso   1.000  Cu
  Cu17     1.0000 0.17420  0.34840  0.77247  Biso   1.000  Cu
  Cu18     1.0000 0.84087  0.68174  0.10581  Biso   1.000  Cu
  O73      1.0000 0.52356  0.76178  0.44990  Biso   1.000  O
  C325     1.0000 0.64470  0.82235  0.34780  Biso   1.000  C
  C326     1.0000 0.56461  0.78230  0.41630  Biso   1.000  C
  C327     1.0000 0.48460  0.74230  0.39820  Biso   1.000  C
  C328     1.0000 0.44770  0.72385  0.45660  Biso   1.000  C
  H253     1.0000 0.41850  0.70925  0.43640  Biso   1.000  H
  O74      1.0000 0.19023  0.09511  0.78323  Biso   1.000  O
  C329     1.0000 0.31137  0.15568  0.68113  Biso   1.000  C
  C330     1.0000 0.23128  0.11564  0.74963  Biso   1.000  C
  C331     1.0000 0.15127  0.07563  0.73153  Biso   1.000  C
  C332     1.0000 0.11437  0.05718  0.78993  Biso   1.000  C
  H254     1.0000 0.08517  0.04258  0.76973  Biso   1.000  H
  O75      1.0000 0.85689  0.42845  0.11657  Biso   1.000  O
  C333     1.0000 0.97803  0.48902  0.01447  Biso   1.000  C
  C334     1.0000 0.89794  0.44897  0.08297  Biso   1.000  C
  C335     1.0000 0.81793  0.40897  0.06487  Biso   1.000  C
  C336     1.0000 0.78103  0.39052  0.12327  Biso   1.000  C
  H255     1.0000 0.75183  0.37592  0.10307  Biso   1.000  H
  O76      1.0000 0.23822  0.76178  0.44990  Biso   1.000  O
  C337     1.0000 0.17765  0.82235  0.34780  Biso   1.000  C
  C338     1.0000 0.21770  0.78230  0.41630  Biso   1.000  C
  C339     1.0000 0.25770  0.74230  0.39820  Biso   1.000  C
  C340     1.0000 0.27615  0.72385  0.45660  Biso   1.000  C
  H256     1.0000 0.29075  0.70925  0.43640  Biso   1.000  H
  O77      1.0000 0.90489  0.09511  0.78323  Biso   1.000  O
  C341     1.0000 0.84432  0.15568  0.68113  Biso   1.000  C
  C342     1.0000 0.88436  0.11564  0.74963  Biso   1.000  C
  C343     1.0000 0.92437  0.07563  0.73153  Biso   1.000  C
  C344     1.0000 0.94282  0.05718  0.78993  Biso   1.000  C
  H257     1.0000 0.95742  0.04258  0.76973  Biso   1.000  H
  O78      1.0000 0.57155  0.42845  0.11657  Biso   1.000  O
  C345     1.0000 0.51098  0.48902  0.01447  Biso   1.000  C
  C346     1.0000 0.55103  0.44897  0.08297  Biso   1.000  C
  C347     1.0000 0.59103  0.40897  0.06487  Biso   1.000  C
  C348     1.0000 0.60948  0.39052  0.12327  Biso   1.000  C
  H258     1.0000 0.62408  0.37592  0.10307  Biso   1.000  H
  O79      1.0000 0.23822  0.47644  0.44990  Biso   1.000  O
  C349     1.0000 0.17765  0.35530  0.34780  Biso   1.000  C
  C350     1.0000 0.21769  0.43539  0.41630  Biso   1.000  C
  C351     1.0000 0.25770  0.51540  0.39820  Biso   1.000  C
  C352     1.0000 0.27615  0.55230  0.45660  Biso   1.000  C
  H259     1.0000 0.29075  0.58150  0.43640  Biso   1.000  H
  O80      1.0000 0.90489  0.80977  0.78323  Biso   1.000  O
  C353     1.0000 0.84432  0.68863  0.68113  Biso   1.000  C
  C354     1.0000 0.88436  0.76872  0.74963  Biso   1.000  C
  C355     1.0000 0.92437  0.84873  0.73153  Biso   1.000  C
  C356     1.0000 0.94282  0.88563  0.78993  Biso   1.000  C
  H260     1.0000 0.95742  0.91483  0.76973  Biso   1.000  H
  O81      1.0000 0.57155  0.14311  0.11657  Biso   1.000  O
  C357     1.0000 0.51098  0.02197  0.01447  Biso   1.000  C
  C358     1.0000 0.55103  0.10206  0.08297  Biso   1.000  C
  C359     1.0000 0.59103  0.18207  0.06487  Biso   1.000  C
  C360     1.0000 0.60948  0.21897  0.12327  Biso   1.000  C
  H261     1.0000 0.62408  0.24817  0.10307  Biso   1.000  H
  O82      1.0000 0.76178  0.52356  0.55010  Biso   1.000  O
  C361     1.0000 0.82235  0.64470  0.65220  Biso   1.000  C
  C362     1.0000 0.78230  0.56461  0.58370  Biso   1.000  C
  C363     1.0000 0.74230  0.48460  0.60180  Biso   1.000  C
  C364     1.0000 0.72385  0.44770  0.54340  Biso   1.000  C
  H262     1.0000 0.70925  0.41850  0.56360  Biso   1.000  H
  O83      1.0000 0.42845  0.85689  0.88343  Biso   1.000  O
  C365     1.0000 0.48902  0.97803  0.98553  Biso   1.000  C
  C366     1.0000 0.44897  0.89794  0.91703  Biso   1.000  C
  C367     1.0000 0.40897  0.81793  0.93513  Biso   1.000  C
  C368     1.0000 0.39052  0.78103  0.87673  Biso   1.000  C
  H263     1.0000 0.37592  0.75183  0.89693  Biso   1.000  H
  O84      1.0000 0.09511  0.19023  0.21677  Biso   1.000  O
  C369     1.0000 0.15568  0.31137  0.31887  Biso   1.000  C
  C370     1.0000 0.11564  0.23128  0.25037  Biso   1.000  C
  C371     1.0000 0.07563  0.15127  0.26847  Biso   1.000  C
  C372     1.0000 0.05718  0.11437  0.21007  Biso   1.000  C
  H264     1.0000 0.04258  0.08517  0.23027  Biso   1.000  H
  O85      1.0000 0.76178  0.23822  0.55010  Biso   1.000  O
  C373     1.0000 0.82235  0.17765  0.65220  Biso   1.000  C
  C374     1.0000 0.78231  0.21770  0.58370  Biso   1.000  C
  C375     1.0000 0.74230  0.25770  0.60180  Biso   1.000  C
  C376     1.0000 0.72385  0.27615  0.54340  Biso   1.000  C
  H265     1.0000 0.70925  0.29075  0.56360  Biso   1.000  H
  O86      1.0000 0.42845  0.57155  0.88343  Biso   1.000  O
  C377     1.0000 0.48902  0.51098  0.98553  Biso   1.000  C
  C378     1.0000 0.44897  0.55103  0.91703  Biso   1.000  C
  C379     1.0000 0.40897  0.59103  0.93513  Biso   1.000  C
  C380     1.0000 0.39052  0.60948  0.87673  Biso   1.000  C
  H266     1.0000 0.37592  0.62408  0.89693  Biso   1.000  H
  O87      1.0000 0.09511  0.90489  0.21677  Biso   1.000  O
  C381     1.0000 0.15568  0.84432  0.31887  Biso   1.000  C
  C382     1.0000 0.11564  0.88436  0.25037  Biso   1.000  C
  C383     1.0000 0.07563  0.92437  0.26847  Biso   1.000  C
  C384     1.0000 0.05718  0.94282  0.21007  Biso   1.000  C
  H267     1.0000 0.04258  0.95742  0.23027  Biso   1.000  H
  O88      1.0000 0.47644  0.23822  0.55010  Biso   1.000  O
  C385     1.0000 0.35530  0.17765  0.65220  Biso   1.000  C
  C386     1.0000 0.43539  0.21770  0.58370  Biso   1.000  C
  C387     1.0000 0.51540  0.25770  0.60180  Biso   1.000  C
  C388     1.0000 0.55230  0.27615  0.54340  Biso   1.000  C
  H268     1.0000 0.58150  0.29075  0.56360  Biso   1.000  H
  O89      1.0000 0.14311  0.57155  0.88343  Biso   1.000  O
  C389     1.0000 0.02197  0.51098  0.98553  Biso   1.000  C
  C390     1.0000 0.10206  0.55103  0.91703  Biso   1.000  C
  C391     1.0000 0.18207  0.59103  0.93513  Biso   1.000  C
  C392     1.0000 0.21897  0.60948  0.87673  Biso   1.000  C
  H269     1.0000 0.24817  0.62408  0.89693  Biso   1.000  H
  O90      1.0000 0.80977  0.90489  0.21677  Biso   1.000  O
  C393     1.0000 0.68863  0.84432  0.31887  Biso   1.000  C
  C394     1.0000 0.76872  0.88436  0.25037  Biso   1.000  C
  C395     1.0000 0.84873  0.92437  0.26847  Biso   1.000  C
  C396     1.0000 0.88563  0.94282  0.21007  Biso   1.000  C
  H270     1.0000 0.91483  0.95742  0.23027  Biso   1.000  H
