data_image0
_cell_length_a       35.7192
_cell_length_b       35.7192
_cell_length_c       17.1093
_cell_angle_alpha    90
_cell_angle_beta     90
_cell_angle_gamma    120

_symmetry_space_group_name_H-M    "P 1"
_symmetry_int_tables_number       1

loop_
  _symmetry_equiv_pos_as_xyz
  'x, y, z'

loop_
  _atom_site_label
  _atom_site_occupancy
  _atom_site_fract_x
  _atom_site_fract_y
  _atom_site_fract_z
  _atom_site_thermal_displace_type
  _atom_site_B_iso_or_equiv
  _atom_site_type_symbol
  O1       1.0000 0.89862  0.17842  0.12148  Biso   1.000  O
  O2       1.0000 0.88887  0.18833  0.24810  Biso   1.000  O
  C1       1.0000 0.91126  0.18853  0.18970  Biso   1.000  C
  C2       1.0000 0.95754  0.20207  0.20760  Biso   1.000  C
  C3       1.0000 0.98526  0.20454  0.14890  Biso   1.000  C
  C4       1.0000 0.97327  0.21343  0.28260  Biso   1.000  C
  H1       1.0000 0.97490  0.19660  0.09690  Biso   1.000  H
  C5       1.0000 0.02851  0.21885  0.16640  Biso   1.000  C
  C6       1.0000 0.01662  0.22820  0.29910  Biso   1.000  C
  H2       1.0000 0.95430  0.21120  0.32350  Biso   1.000  H
  C7       1.0000 0.04469  0.23160  0.23830  Biso   1.000  C
  H3       1.0000 0.04710  0.21960  0.12600  Biso   1.000  H
  H4       1.0000 0.02720  0.23590  0.35110  Biso   1.000  H
  C8       1.0000 0.09167  0.25087  0.25720  Biso   1.000  C
  C9       1.0000 0.11236  0.29090  0.29450  Biso   1.000  C
  H5       1.0000 0.09610  0.30460  0.30660  Biso   1.000  H
  H6       1.0000 0.05430  0.15380  0.28880  Biso   1.000  H
  O3       1.0000 0.56529  0.51175  0.45481  Biso   1.000  O
  O4       1.0000 0.55554  0.52166  0.58143  Biso   1.000  O
  C10      1.0000 0.57793  0.52186  0.52303  Biso   1.000  C
  C11      1.0000 0.62421  0.53540  0.54093  Biso   1.000  C
  C12      1.0000 0.65193  0.53787  0.48223  Biso   1.000  C
  C13      1.0000 0.63994  0.54676  0.61593  Biso   1.000  C
  H7       1.0000 0.64157  0.52993  0.43023  Biso   1.000  H
  C14      1.0000 0.69518  0.55218  0.49973  Biso   1.000  C
  C15      1.0000 0.68329  0.56153  0.63243  Biso   1.000  C
  H8       1.0000 0.62097  0.54453  0.65683  Biso   1.000  H
  C16      1.0000 0.71136  0.56493  0.57163  Biso   1.000  C
  H9       1.0000 0.71377  0.55293  0.45933  Biso   1.000  H
  H10      1.0000 0.69387  0.56923  0.68443  Biso   1.000  H
  C17      1.0000 0.75834  0.58420  0.59053  Biso   1.000  C
  C18      1.0000 0.77903  0.62423  0.62783  Biso   1.000  C
  H11      1.0000 0.76277  0.63793  0.63993  Biso   1.000  H
  H12      1.0000 0.72097  0.48713  0.62213  Biso   1.000  H
  O5       1.0000 0.23195  0.84509  0.78815  Biso   1.000  O
  O6       1.0000 0.22220  0.85500  0.91477  Biso   1.000  O
  C19      1.0000 0.24459  0.85520  0.85637  Biso   1.000  C
  C20      1.0000 0.29087  0.86874  0.87427  Biso   1.000  C
  C21      1.0000 0.31859  0.87121  0.81557  Biso   1.000  C
  C22      1.0000 0.30660  0.88010  0.94927  Biso   1.000  C
  H13      1.0000 0.30823  0.86327  0.76357  Biso   1.000  H
  C23      1.0000 0.36184  0.88552  0.83307  Biso   1.000  C
  C24      1.0000 0.34995  0.89487  0.96577  Biso   1.000  C
  H14      1.0000 0.28763  0.87787  0.99017  Biso   1.000  H
  C25      1.0000 0.37802  0.89827  0.90497  Biso   1.000  C
  H15      1.0000 0.38043  0.88627  0.79267  Biso   1.000  H
  H16      1.0000 0.36053  0.90257  0.01777  Biso   1.000  H
  C26      1.0000 0.42500  0.91754  0.92387  Biso   1.000  C
  C27      1.0000 0.44569  0.95757  0.96117  Biso   1.000  C
  H17      1.0000 0.42943  0.97127  0.97327  Biso   1.000  H
  H18      1.0000 0.38763  0.82047  0.95547  Biso   1.000  H
  O7       1.0000 0.82158  0.72020  0.12148  Biso   1.000  O
  O8       1.0000 0.81167  0.70054  0.24810  Biso   1.000  O
  C28      1.0000 0.81147  0.72273  0.18970  Biso   1.000  C
  C29      1.0000 0.79793  0.75547  0.20760  Biso   1.000  C
  C30      1.0000 0.79546  0.78072  0.14890  Biso   1.000  C
  C31      1.0000 0.78657  0.75984  0.28260  Biso   1.000  C
  H19      1.0000 0.80340  0.77830  0.09690  Biso   1.000  H
  C32      1.0000 0.78115  0.80966  0.16640  Biso   1.000  C
  C33      1.0000 0.77180  0.78842  0.29910  Biso   1.000  C
  H20      1.0000 0.78880  0.74310  0.32350  Biso   1.000  H
  C34      1.0000 0.76840  0.81309  0.23830  Biso   1.000  C
  H21      1.0000 0.78040  0.82750  0.12600  Biso   1.000  H
  H22      1.0000 0.76410  0.79130  0.35110  Biso   1.000  H
  C35      1.0000 0.74913  0.84080  0.25720  Biso   1.000  C
  C36      1.0000 0.70910  0.82146  0.29450  Biso   1.000  C
  H23      1.0000 0.69540  0.79150  0.30660  Biso   1.000  H
  H24      1.0000 0.84620  0.90050  0.28880  Biso   1.000  H
  O9       1.0000 0.48825  0.05353  0.45481  Biso   1.000  O
  O10      1.0000 0.47834  0.03387  0.58143  Biso   1.000  O
  C37      1.0000 0.47814  0.05606  0.52303  Biso   1.000  C
  C38      1.0000 0.46460  0.08880  0.54093  Biso   1.000  C
  C39      1.0000 0.46213  0.11405  0.48223  Biso   1.000  C
  C40      1.0000 0.45324  0.09317  0.61593  Biso   1.000  C
  H25      1.0000 0.47007  0.11163  0.43023  Biso   1.000  H
  C41      1.0000 0.44782  0.14299  0.49973  Biso   1.000  C
  C42      1.0000 0.43847  0.12175  0.63243  Biso   1.000  C
  H26      1.0000 0.45547  0.07643  0.65683  Biso   1.000  H
  C43      1.0000 0.43507  0.14642  0.57163  Biso   1.000  C
  H27      1.0000 0.44707  0.16083  0.45933  Biso   1.000  H
  H28      1.0000 0.43077  0.12463  0.68443  Biso   1.000  H
  C44      1.0000 0.41580  0.17413  0.59053  Biso   1.000  C
  C45      1.0000 0.37577  0.15479  0.62783  Biso   1.000  C
  H29      1.0000 0.36207  0.12483  0.63993  Biso   1.000  H
  H30      1.0000 0.51287  0.23383  0.62213  Biso   1.000  H
  O11      1.0000 0.15491  0.38687  0.78815  Biso   1.000  O
  O12      1.0000 0.14500  0.36721  0.91477  Biso   1.000  O
  C46      1.0000 0.14480  0.38940  0.85637  Biso   1.000  C
  C47      1.0000 0.13126  0.42214  0.87427  Biso   1.000  C
  C48      1.0000 0.12879  0.44739  0.81557  Biso   1.000  C
  C49      1.0000 0.11990  0.42651  0.94927  Biso   1.000  C
  H31      1.0000 0.13673  0.44497  0.76357  Biso   1.000  H
  C50      1.0000 0.11448  0.47633  0.83307  Biso   1.000  C
  C51      1.0000 0.10513  0.45509  0.96577  Biso   1.000  C
  H32      1.0000 0.12213  0.40977  0.99017  Biso   1.000  H
  C52      1.0000 0.10173  0.47976  0.90497  Biso   1.000  C
  H33      1.0000 0.11373  0.49417  0.79267  Biso   1.000  H
  H34      1.0000 0.09743  0.45797  0.01777  Biso   1.000  H
  C53      1.0000 0.08246  0.50747  0.92387  Biso   1.000  C
  C54      1.0000 0.04243  0.48813  0.96117  Biso   1.000  C
  H35      1.0000 0.02873  0.45817  0.97327  Biso   1.000  H
  H36      1.0000 0.17953  0.56717  0.95547  Biso   1.000  H
  O13      1.0000 0.27980  0.10138  0.12148  Biso   1.000  O
  O14      1.0000 0.29946  0.11113  0.24810  Biso   1.000  O
  C55      1.0000 0.27727  0.08874  0.18970  Biso   1.000  C
  C56      1.0000 0.24453  0.04246  0.20760  Biso   1.000  C
  C57      1.0000 0.21928  0.01474  0.14890  Biso   1.000  C
  C58      1.0000 0.24016  0.02673  0.28260  Biso   1.000  C
  H37      1.0000 0.22170  0.02510  0.09690  Biso   1.000  H
  C59      1.0000 0.19034  0.97149  0.16640  Biso   1.000  C
  C60      1.0000 0.21158  0.98338  0.29910  Biso   1.000  C
  H38      1.0000 0.25690  0.04570  0.32350  Biso   1.000  H
  C61      1.0000 0.18691  0.95531  0.23830  Biso   1.000  C
  H39      1.0000 0.17250  0.95290  0.12600  Biso   1.000  H
  H40      1.0000 0.20870  0.97280  0.35110  Biso   1.000  H
  C62      1.0000 0.15920  0.90833  0.25720  Biso   1.000  C
  C63      1.0000 0.17854  0.88764  0.29450  Biso   1.000  C
  H41      1.0000 0.20850  0.90390  0.30660  Biso   1.000  H
  H42      1.0000 0.09950  0.94570  0.28880  Biso   1.000  H
  O15      1.0000 0.94647  0.43471  0.45481  Biso   1.000  O
  O16      1.0000 0.96613  0.44446  0.58143  Biso   1.000  O
  C64      1.0000 0.94394  0.42207  0.52303  Biso   1.000  C
  C65      1.0000 0.91120  0.37579  0.54093  Biso   1.000  C
  C66      1.0000 0.88595  0.34807  0.48223  Biso   1.000  C
  C67      1.0000 0.90683  0.36006  0.61593  Biso   1.000  C
  H43      1.0000 0.88837  0.35843  0.43023  Biso   1.000  H
  C68      1.0000 0.85701  0.30482  0.49973  Biso   1.000  C
  C69      1.0000 0.87825  0.31671  0.63243  Biso   1.000  C
  H44      1.0000 0.92357  0.37903  0.65683  Biso   1.000  H
  C70      1.0000 0.85358  0.28864  0.57163  Biso   1.000  C
  H45      1.0000 0.83917  0.28623  0.45933  Biso   1.000  H
  H46      1.0000 0.87537  0.30613  0.68443  Biso   1.000  H
  C71      1.0000 0.82587  0.24166  0.59053  Biso   1.000  C
  C72      1.0000 0.84521  0.22097  0.62783  Biso   1.000  C
  H47      1.0000 0.87517  0.23723  0.63993  Biso   1.000  H
  H48      1.0000 0.76617  0.27903  0.62213  Biso   1.000  H
  O17      1.0000 0.61313  0.76805  0.78815  Biso   1.000  O
  O18      1.0000 0.63279  0.77780  0.91477  Biso   1.000  O
  C73      1.0000 0.61060  0.75541  0.85637  Biso   1.000  C
  C74      1.0000 0.57786  0.70913  0.87427  Biso   1.000  C
  C75      1.0000 0.55261  0.68141  0.81557  Biso   1.000  C
  C76      1.0000 0.57349  0.69340  0.94927  Biso   1.000  C
  H49      1.0000 0.55503  0.69177  0.76357  Biso   1.000  H
  C77      1.0000 0.52367  0.63816  0.83307  Biso   1.000  C
  C78      1.0000 0.54491  0.65005  0.96577  Biso   1.000  C
  H50      1.0000 0.59023  0.71237  0.99017  Biso   1.000  H
  C79      1.0000 0.52024  0.62198  0.90497  Biso   1.000  C
  H51      1.0000 0.50583  0.61957  0.79267  Biso   1.000  H
  H52      1.0000 0.54203  0.63947  0.01777  Biso   1.000  H
  C80      1.0000 0.49253  0.57500  0.92387  Biso   1.000  C
  C81      1.0000 0.51187  0.55431  0.96117  Biso   1.000  C
  H53      1.0000 0.54183  0.57057  0.97327  Biso   1.000  H
  H54      1.0000 0.43283  0.61237  0.95547  Biso   1.000  H
  O19      1.0000 0.17842  0.89862  0.87852  Biso   1.000  O
  O20      1.0000 0.18833  0.88887  0.75190  Biso   1.000  O
  C82      1.0000 0.18853  0.91126  0.81030  Biso   1.000  C
  C83      1.0000 0.20207  0.95754  0.79240  Biso   1.000  C
  C84      1.0000 0.20454  0.98526  0.85110  Biso   1.000  C
  C85      1.0000 0.21343  0.97327  0.71740  Biso   1.000  C
  H55      1.0000 0.19660  0.97490  0.90310  Biso   1.000  H
  C86      1.0000 0.21885  0.02851  0.83360  Biso   1.000  C
  C87      1.0000 0.22820  0.01662  0.70090  Biso   1.000  C
  H56      1.0000 0.21120  0.95430  0.67650  Biso   1.000  H
  C88      1.0000 0.23160  0.04469  0.76170  Biso   1.000  C
  H57      1.0000 0.21960  0.04710  0.87400  Biso   1.000  H
  H58      1.0000 0.23590  0.02720  0.64890  Biso   1.000  H
  C89      1.0000 0.25087  0.09167  0.74280  Biso   1.000  C
  C90      1.0000 0.29090  0.11236  0.70550  Biso   1.000  C
  H59      1.0000 0.30460  0.09610  0.69340  Biso   1.000  H
  H60      1.0000 0.15380  0.05430  0.71120  Biso   1.000  H
  O21      1.0000 0.84509  0.23195  0.21185  Biso   1.000  O
  O22      1.0000 0.85500  0.22220  0.08523  Biso   1.000  O
  C91      1.0000 0.85520  0.24459  0.14363  Biso   1.000  C
  C92      1.0000 0.86874  0.29087  0.12573  Biso   1.000  C
  C93      1.0000 0.87121  0.31859  0.18443  Biso   1.000  C
  C94      1.0000 0.88010  0.30660  0.05073  Biso   1.000  C
  H61      1.0000 0.86327  0.30823  0.23643  Biso   1.000  H
  C95      1.0000 0.88552  0.36184  0.16693  Biso   1.000  C
  C96      1.0000 0.89487  0.34995  0.03423  Biso   1.000  C
  H62      1.0000 0.87787  0.28763  0.00983  Biso   1.000  H
  C97      1.0000 0.89827  0.37802  0.09503  Biso   1.000  C
  H63      1.0000 0.88627  0.38043  0.20733  Biso   1.000  H
  H64      1.0000 0.90257  0.36053  0.98223  Biso   1.000  H
  C98      1.0000 0.91754  0.42500  0.07613  Biso   1.000  C
  C99      1.0000 0.95757  0.44569  0.03883  Biso   1.000  C
  H65      1.0000 0.97127  0.42943  0.02673  Biso   1.000  H
  H66      1.0000 0.82047  0.38763  0.04453  Biso   1.000  H
  O23      1.0000 0.51175  0.56529  0.54519  Biso   1.000  O
  O24      1.0000 0.52166  0.55554  0.41857  Biso   1.000  O
  C100     1.0000 0.52186  0.57793  0.47697  Biso   1.000  C
  C101     1.0000 0.53540  0.62421  0.45907  Biso   1.000  C
  C102     1.0000 0.53787  0.65193  0.51777  Biso   1.000  C
  C103     1.0000 0.54676  0.63994  0.38407  Biso   1.000  C
  H67      1.0000 0.52993  0.64157  0.56977  Biso   1.000  H
  C104     1.0000 0.55218  0.69518  0.50027  Biso   1.000  C
  C105     1.0000 0.56153  0.68329  0.36757  Biso   1.000  C
  H68      1.0000 0.54453  0.62097  0.34317  Biso   1.000  H
  C106     1.0000 0.56493  0.71136  0.42837  Biso   1.000  C
  H69      1.0000 0.55293  0.71377  0.54067  Biso   1.000  H
  H70      1.0000 0.56923  0.69387  0.31557  Biso   1.000  H
  C107     1.0000 0.58420  0.75834  0.40947  Biso   1.000  C
  C108     1.0000 0.62423  0.77903  0.37217  Biso   1.000  C
  H71      1.0000 0.63793  0.76277  0.36007  Biso   1.000  H
  H72      1.0000 0.48713  0.72097  0.37787  Biso   1.000  H
  O25      1.0000 0.72020  0.82158  0.87852  Biso   1.000  O
  O26      1.0000 0.70054  0.81167  0.75190  Biso   1.000  O
  C109     1.0000 0.72273  0.81147  0.81030  Biso   1.000  C
  C110     1.0000 0.75547  0.79793  0.79240  Biso   1.000  C
  C111     1.0000 0.78072  0.79546  0.85110  Biso   1.000  C
  C112     1.0000 0.75984  0.78657  0.71740  Biso   1.000  C
  H73      1.0000 0.77830  0.80340  0.90310  Biso   1.000  H
  C113     1.0000 0.80966  0.78115  0.83360  Biso   1.000  C
  C114     1.0000 0.78842  0.77180  0.70090  Biso   1.000  C
  H74      1.0000 0.74310  0.78880  0.67650  Biso   1.000  H
  C115     1.0000 0.81309  0.76840  0.76170  Biso   1.000  C
  H75      1.0000 0.82750  0.78040  0.87400  Biso   1.000  H
  H76      1.0000 0.79130  0.76410  0.64890  Biso   1.000  H
  C116     1.0000 0.84080  0.74913  0.74280  Biso   1.000  C
  C117     1.0000 0.82146  0.70910  0.70550  Biso   1.000  C
  H77      1.0000 0.79150  0.69540  0.69340  Biso   1.000  H
  H78      1.0000 0.90050  0.84620  0.71120  Biso   1.000  H
  O27      1.0000 0.38687  0.15491  0.21185  Biso   1.000  O
  O28      1.0000 0.36721  0.14500  0.08523  Biso   1.000  O
  C118     1.0000 0.38940  0.14480  0.14363  Biso   1.000  C
  C119     1.0000 0.42214  0.13126  0.12573  Biso   1.000  C
  C120     1.0000 0.44739  0.12879  0.18443  Biso   1.000  C
  C121     1.0000 0.42651  0.11990  0.05073  Biso   1.000  C
  H79      1.0000 0.44497  0.13673  0.23643  Biso   1.000  H
  C122     1.0000 0.47633  0.11448  0.16693  Biso   1.000  C
  C123     1.0000 0.45509  0.10513  0.03423  Biso   1.000  C
  H80      1.0000 0.40977  0.12213  0.00983  Biso   1.000  H
  C124     1.0000 0.47976  0.10173  0.09503  Biso   1.000  C
  H81      1.0000 0.49417  0.11373  0.20733  Biso   1.000  H
  H82      1.0000 0.45797  0.09743  0.98223  Biso   1.000  H
  C125     1.0000 0.50747  0.08246  0.07613  Biso   1.000  C
  C126     1.0000 0.48813  0.04243  0.03883  Biso   1.000  C
  H83      1.0000 0.45817  0.02873  0.02673  Biso   1.000  H
  H84      1.0000 0.56717  0.17953  0.04453  Biso   1.000  H
  O29      1.0000 0.05353  0.48825  0.54519  Biso   1.000  O
  O30      1.0000 0.03387  0.47834  0.41857  Biso   1.000  O
  C127     1.0000 0.05606  0.47814  0.47697  Biso   1.000  C
  C128     1.0000 0.08880  0.46460  0.45907  Biso   1.000  C
  C129     1.0000 0.11405  0.46213  0.51777  Biso   1.000  C
  C130     1.0000 0.09317  0.45324  0.38407  Biso   1.000  C
  H85      1.0000 0.11163  0.47007  0.56977  Biso   1.000  H
  C131     1.0000 0.14299  0.44782  0.50027  Biso   1.000  C
  C132     1.0000 0.12175  0.43847  0.36757  Biso   1.000  C
  H86      1.0000 0.07643  0.45547  0.34317  Biso   1.000  H
  C133     1.0000 0.14642  0.43507  0.42837  Biso   1.000  C
  H87      1.0000 0.16083  0.44707  0.54067  Biso   1.000  H
  H88      1.0000 0.12463  0.43077  0.31557  Biso   1.000  H
  C134     1.0000 0.17413  0.41580  0.40947  Biso   1.000  C
  C135     1.0000 0.15479  0.37577  0.37217  Biso   1.000  C
  H89      1.0000 0.12483  0.36207  0.36007  Biso   1.000  H
  H90      1.0000 0.23383  0.51287  0.37787  Biso   1.000  H
  O31      1.0000 0.10138  0.27980  0.87852  Biso   1.000  O
  O32      1.0000 0.11113  0.29946  0.75190  Biso   1.000  O
  C136     1.0000 0.08874  0.27727  0.81030  Biso   1.000  C
  C137     1.0000 0.04246  0.24453  0.79240  Biso   1.000  C
  C138     1.0000 0.01474  0.21928  0.85110  Biso   1.000  C
  C139     1.0000 0.02673  0.24016  0.71740  Biso   1.000  C
  H91      1.0000 0.02510  0.22170  0.90310  Biso   1.000  H
  C140     1.0000 0.97149  0.19034  0.83360  Biso   1.000  C
  C141     1.0000 0.98338  0.21158  0.70090  Biso   1.000  C
  H92      1.0000 0.04570  0.25690  0.67650  Biso   1.000  H
  C142     1.0000 0.95531  0.18691  0.76170  Biso   1.000  C
  H93      1.0000 0.95290  0.17250  0.87400  Biso   1.000  H
  H94      1.0000 0.97280  0.20870  0.64890  Biso   1.000  H
  C143     1.0000 0.90833  0.15920  0.74280  Biso   1.000  C
  C144     1.0000 0.88764  0.17854  0.70550  Biso   1.000  C
  H95      1.0000 0.90390  0.20850  0.69340  Biso   1.000  H
  H96      1.0000 0.94570  0.09950  0.71120  Biso   1.000  H
  O33      1.0000 0.76805  0.61313  0.21185  Biso   1.000  O
  O34      1.0000 0.77780  0.63279  0.08523  Biso   1.000  O
  C145     1.0000 0.75541  0.61060  0.14363  Biso   1.000  C
  C146     1.0000 0.70913  0.57786  0.12573  Biso   1.000  C
  C147     1.0000 0.68141  0.55261  0.18443  Biso   1.000  C
  C148     1.0000 0.69340  0.57349  0.05073  Biso   1.000  C
  H97      1.0000 0.69177  0.55503  0.23643  Biso   1.000  H
  C149     1.0000 0.63816  0.52367  0.16693  Biso   1.000  C
  C150     1.0000 0.65005  0.54491  0.03423  Biso   1.000  C
  H98      1.0000 0.71237  0.59023  0.00983  Biso   1.000  H
  C151     1.0000 0.62198  0.52024  0.09503  Biso   1.000  C
  H99      1.0000 0.61957  0.50583  0.20733  Biso   1.000  H
  H100     1.0000 0.63947  0.54203  0.98223  Biso   1.000  H
  C152     1.0000 0.57500  0.49253  0.07613  Biso   1.000  C
  C153     1.0000 0.55431  0.51187  0.03883  Biso   1.000  C
  H101     1.0000 0.57057  0.54183  0.02673  Biso   1.000  H
  H102     1.0000 0.61237  0.43283  0.04453  Biso   1.000  H
  O35      1.0000 0.43471  0.94647  0.54519  Biso   1.000  O
  O36      1.0000 0.44446  0.96613  0.41857  Biso   1.000  O
  C154     1.0000 0.42207  0.94394  0.47697  Biso   1.000  C
  C155     1.0000 0.37579  0.91120  0.45907  Biso   1.000  C
  C156     1.0000 0.34807  0.88595  0.51777  Biso   1.000  C
  C157     1.0000 0.36006  0.90683  0.38407  Biso   1.000  C
  H103     1.0000 0.35843  0.88837  0.56977  Biso   1.000  H
  C158     1.0000 0.30482  0.85701  0.50027  Biso   1.000  C
  C159     1.0000 0.31671  0.87825  0.36757  Biso   1.000  C
  H104     1.0000 0.37903  0.92357  0.34317  Biso   1.000  H
  C160     1.0000 0.28864  0.85358  0.42837  Biso   1.000  C
  H105     1.0000 0.28623  0.83917  0.54067  Biso   1.000  H
  H106     1.0000 0.30613  0.87537  0.31557  Biso   1.000  H
  C161     1.0000 0.24166  0.82587  0.40947  Biso   1.000  C
  C162     1.0000 0.22097  0.84521  0.37217  Biso   1.000  C
  H107     1.0000 0.23723  0.87517  0.36007  Biso   1.000  H
  H108     1.0000 0.27903  0.76617  0.37787  Biso   1.000  H
  O37      1.0000 0.10138  0.82158  0.87852  Biso   1.000  O
  O38      1.0000 0.11113  0.81167  0.75190  Biso   1.000  O
  C163     1.0000 0.08874  0.81147  0.81030  Biso   1.000  C
  C164     1.0000 0.04246  0.79793  0.79240  Biso   1.000  C
  C165     1.0000 0.01474  0.79546  0.85110  Biso   1.000  C
  C166     1.0000 0.02673  0.78657  0.71740  Biso   1.000  C
  H109     1.0000 0.02510  0.80340  0.90310  Biso   1.000  H
  C167     1.0000 0.97149  0.78115  0.83360  Biso   1.000  C
  C168     1.0000 0.98338  0.77180  0.70090  Biso   1.000  C
  H110     1.0000 0.04570  0.78880  0.67650  Biso   1.000  H
  C169     1.0000 0.95531  0.76840  0.76170  Biso   1.000  C
  H111     1.0000 0.95290  0.78040  0.87400  Biso   1.000  H
  H112     1.0000 0.97280  0.76410  0.64890  Biso   1.000  H
  C170     1.0000 0.90833  0.74913  0.74280  Biso   1.000  C
  C171     1.0000 0.88764  0.70910  0.70550  Biso   1.000  C
  H113     1.0000 0.90390  0.69540  0.69340  Biso   1.000  H
  H114     1.0000 0.94570  0.84620  0.71120  Biso   1.000  H
  O39      1.0000 0.76805  0.15491  0.21185  Biso   1.000  O
  O40      1.0000 0.77780  0.14500  0.08523  Biso   1.000  O
  C172     1.0000 0.75541  0.14480  0.14363  Biso   1.000  C
  C173     1.0000 0.70913  0.13126  0.12573  Biso   1.000  C
  C174     1.0000 0.68141  0.12879  0.18443  Biso   1.000  C
  C175     1.0000 0.69340  0.11990  0.05073  Biso   1.000  C
  H115     1.0000 0.69177  0.13673  0.23643  Biso   1.000  H
  C176     1.0000 0.63816  0.11448  0.16693  Biso   1.000  C
  C177     1.0000 0.65005  0.10513  0.03423  Biso   1.000  C
  H116     1.0000 0.71237  0.12213  0.00983  Biso   1.000  H
  C178     1.0000 0.62198  0.10173  0.09503  Biso   1.000  C
  H117     1.0000 0.61957  0.11373  0.20733  Biso   1.000  H
  H118     1.0000 0.63947  0.09743  0.98223  Biso   1.000  H
  C179     1.0000 0.57500  0.08246  0.07613  Biso   1.000  C
  C180     1.0000 0.55431  0.04243  0.03883  Biso   1.000  C
  H119     1.0000 0.57057  0.02873  0.02673  Biso   1.000  H
  H120     1.0000 0.61237  0.17953  0.04453  Biso   1.000  H
  O41      1.0000 0.43471  0.48825  0.54519  Biso   1.000  O
  O42      1.0000 0.44446  0.47834  0.41857  Biso   1.000  O
  C181     1.0000 0.42207  0.47814  0.47697  Biso   1.000  C
  C182     1.0000 0.37579  0.46460  0.45907  Biso   1.000  C
  C183     1.0000 0.34807  0.46213  0.51777  Biso   1.000  C
  C184     1.0000 0.36006  0.45324  0.38407  Biso   1.000  C
  H121     1.0000 0.35843  0.47007  0.56977  Biso   1.000  H
  C185     1.0000 0.30482  0.44782  0.50027  Biso   1.000  C
  C186     1.0000 0.31671  0.43847  0.36757  Biso   1.000  C
  H122     1.0000 0.37903  0.45547  0.34317  Biso   1.000  H
  C187     1.0000 0.28864  0.43507  0.42837  Biso   1.000  C
  H123     1.0000 0.28623  0.44707  0.54067  Biso   1.000  H
  H124     1.0000 0.30613  0.43077  0.31557  Biso   1.000  H
  C188     1.0000 0.24166  0.41580  0.40947  Biso   1.000  C
  C189     1.0000 0.22097  0.37577  0.37217  Biso   1.000  C
  H125     1.0000 0.23723  0.36207  0.36007  Biso   1.000  H
  H126     1.0000 0.27903  0.51287  0.37787  Biso   1.000  H
  O43      1.0000 0.17842  0.27980  0.87852  Biso   1.000  O
  O44      1.0000 0.18833  0.29946  0.75190  Biso   1.000  O
  C190     1.0000 0.18853  0.27727  0.81030  Biso   1.000  C
  C191     1.0000 0.20207  0.24453  0.79240  Biso   1.000  C
  C192     1.0000 0.20454  0.21928  0.85110  Biso   1.000  C
  C193     1.0000 0.21343  0.24016  0.71740  Biso   1.000  C
  H127     1.0000 0.19660  0.22170  0.90310  Biso   1.000  H
  C194     1.0000 0.21885  0.19034  0.83360  Biso   1.000  C
  C195     1.0000 0.22820  0.21158  0.70090  Biso   1.000  C
  H128     1.0000 0.21120  0.25690  0.67650  Biso   1.000  H
  C196     1.0000 0.23160  0.18691  0.76170  Biso   1.000  C
  H129     1.0000 0.21960  0.17250  0.87400  Biso   1.000  H
  H130     1.0000 0.23590  0.20870  0.64890  Biso   1.000  H
  C197     1.0000 0.25087  0.15920  0.74280  Biso   1.000  C
  C198     1.0000 0.29090  0.17854  0.70550  Biso   1.000  C
  H131     1.0000 0.30460  0.20850  0.69340  Biso   1.000  H
  H132     1.0000 0.15380  0.09950  0.71120  Biso   1.000  H
  O45      1.0000 0.84509  0.61313  0.21185  Biso   1.000  O
  O46      1.0000 0.85500  0.63279  0.08523  Biso   1.000  O
  C199     1.0000 0.85520  0.61060  0.14363  Biso   1.000  C
  C200     1.0000 0.86874  0.57786  0.12573  Biso   1.000  C
  C201     1.0000 0.87121  0.55261  0.18443  Biso   1.000  C
  C202     1.0000 0.88010  0.57349  0.05073  Biso   1.000  C
  H133     1.0000 0.86327  0.55503  0.23643  Biso   1.000  H
  C203     1.0000 0.88552  0.52367  0.16693  Biso   1.000  C
  C204     1.0000 0.89487  0.54491  0.03423  Biso   1.000  C
  H134     1.0000 0.87787  0.59023  0.00983  Biso   1.000  H
  C205     1.0000 0.89827  0.52024  0.09503  Biso   1.000  C
  H135     1.0000 0.88627  0.50583  0.20733  Biso   1.000  H
  H136     1.0000 0.90257  0.54203  0.98223  Biso   1.000  H
  C206     1.0000 0.91754  0.49253  0.07613  Biso   1.000  C
  C207     1.0000 0.95757  0.51187  0.03883  Biso   1.000  C
  H137     1.0000 0.97127  0.54183  0.02673  Biso   1.000  H
  H138     1.0000 0.82047  0.43283  0.04453  Biso   1.000  H
  O47      1.0000 0.51175  0.94647  0.54519  Biso   1.000  O
  O48      1.0000 0.52166  0.96613  0.41857  Biso   1.000  O
  C208     1.0000 0.52186  0.94394  0.47697  Biso   1.000  C
  C209     1.0000 0.53540  0.91120  0.45907  Biso   1.000  C
  C210     1.0000 0.53787  0.88595  0.51777  Biso   1.000  C
  C211     1.0000 0.54676  0.90683  0.38407  Biso   1.000  C
  H139     1.0000 0.52993  0.88837  0.56977  Biso   1.000  H
  C212     1.0000 0.55218  0.85701  0.50027  Biso   1.000  C
  C213     1.0000 0.56153  0.87825  0.36757  Biso   1.000  C
  H140     1.0000 0.54453  0.92357  0.34317  Biso   1.000  H
  C214     1.0000 0.56493  0.85358  0.42837  Biso   1.000  C
  H141     1.0000 0.55293  0.83917  0.54067  Biso   1.000  H
  H142     1.0000 0.56923  0.87537  0.31557  Biso   1.000  H
  C215     1.0000 0.58420  0.82587  0.40947  Biso   1.000  C
  C216     1.0000 0.62423  0.84521  0.37217  Biso   1.000  C
  H143     1.0000 0.63793  0.87517  0.36007  Biso   1.000  H
  H144     1.0000 0.48713  0.76617  0.37787  Biso   1.000  H
  O49      1.0000 0.72020  0.89862  0.87852  Biso   1.000  O
  O50      1.0000 0.70054  0.88887  0.75190  Biso   1.000  O
  C217     1.0000 0.72273  0.91126  0.81030  Biso   1.000  C
  C218     1.0000 0.75547  0.95754  0.79240  Biso   1.000  C
  C219     1.0000 0.78072  0.98526  0.85110  Biso   1.000  C
  C220     1.0000 0.75984  0.97327  0.71740  Biso   1.000  C
  H145     1.0000 0.77830  0.97490  0.90310  Biso   1.000  H
  C221     1.0000 0.80966  0.02851  0.83360  Biso   1.000  C
  C222     1.0000 0.78842  0.01662  0.70090  Biso   1.000  C
  H146     1.0000 0.74310  0.95430  0.67650  Biso   1.000  H
  C223     1.0000 0.81309  0.04469  0.76170  Biso   1.000  C
  H147     1.0000 0.82750  0.04710  0.87400  Biso   1.000  H
  H148     1.0000 0.79130  0.02720  0.64890  Biso   1.000  H
  C224     1.0000 0.84080  0.09167  0.74280  Biso   1.000  C
  C225     1.0000 0.82146  0.11236  0.70550  Biso   1.000  C
  H149     1.0000 0.79150  0.09610  0.69340  Biso   1.000  H
  H150     1.0000 0.90050  0.05430  0.71120  Biso   1.000  H
  O51      1.0000 0.38687  0.23195  0.21185  Biso   1.000  O
  O52      1.0000 0.36721  0.22220  0.08523  Biso   1.000  O
  C226     1.0000 0.38940  0.24459  0.14363  Biso   1.000  C
  C227     1.0000 0.42214  0.29087  0.12573  Biso   1.000  C
  C228     1.0000 0.44739  0.31859  0.18443  Biso   1.000  C
  C229     1.0000 0.42651  0.30660  0.05073  Biso   1.000  C
  H151     1.0000 0.44497  0.30823  0.23643  Biso   1.000  H
  C230     1.0000 0.47633  0.36184  0.16693  Biso   1.000  C
  C231     1.0000 0.45509  0.34995  0.03423  Biso   1.000  C
  H152     1.0000 0.40977  0.28763  0.00983  Biso   1.000  H
  C232     1.0000 0.47976  0.37802  0.09503  Biso   1.000  C
  H153     1.0000 0.49417  0.38043  0.20733  Biso   1.000  H
  H154     1.0000 0.45797  0.36053  0.98223  Biso   1.000  H
  C233     1.0000 0.50747  0.42500  0.07613  Biso   1.000  C
  C234     1.0000 0.48813  0.44569  0.03883  Biso   1.000  C
  H155     1.0000 0.45817  0.42943  0.02673  Biso   1.000  H
  H156     1.0000 0.56717  0.38763  0.04453  Biso   1.000  H
  O53      1.0000 0.05353  0.56529  0.54519  Biso   1.000  O
  O54      1.0000 0.03387  0.55554  0.41857  Biso   1.000  O
  C235     1.0000 0.05606  0.57793  0.47697  Biso   1.000  C
  C236     1.0000 0.08880  0.62421  0.45907  Biso   1.000  C
  C237     1.0000 0.11405  0.65193  0.51777  Biso   1.000  C
  C238     1.0000 0.09317  0.63994  0.38407  Biso   1.000  C
  H157     1.0000 0.11163  0.64157  0.56977  Biso   1.000  H
  C239     1.0000 0.14299  0.69518  0.50027  Biso   1.000  C
  C240     1.0000 0.12175  0.68329  0.36757  Biso   1.000  C
  H158     1.0000 0.07643  0.62097  0.34317  Biso   1.000  H
  C241     1.0000 0.14642  0.71136  0.42837  Biso   1.000  C
  H159     1.0000 0.16083  0.71377  0.54067  Biso   1.000  H
  H160     1.0000 0.12463  0.69387  0.31557  Biso   1.000  H
  C242     1.0000 0.17413  0.75834  0.40947  Biso   1.000  C
  C243     1.0000 0.15479  0.77903  0.37217  Biso   1.000  C
  H161     1.0000 0.12483  0.76277  0.36007  Biso   1.000  H
  H162     1.0000 0.23383  0.72097  0.37787  Biso   1.000  H
  O55      1.0000 0.82158  0.10138  0.12148  Biso   1.000  O
  O56      1.0000 0.81167  0.11113  0.24810  Biso   1.000  O
  C244     1.0000 0.81147  0.08874  0.18970  Biso   1.000  C
  C245     1.0000 0.79793  0.04246  0.20760  Biso   1.000  C
  C246     1.0000 0.79546  0.01474  0.14890  Biso   1.000  C
  C247     1.0000 0.78657  0.02673  0.28260  Biso   1.000  C
  H163     1.0000 0.80340  0.02510  0.09690  Biso   1.000  H
  C248     1.0000 0.78115  0.97149  0.16640  Biso   1.000  C
  C249     1.0000 0.77180  0.98338  0.29910  Biso   1.000  C
  H164     1.0000 0.78880  0.04570  0.32350  Biso   1.000  H
  C250     1.0000 0.76840  0.95531  0.23830  Biso   1.000  C
  H165     1.0000 0.78040  0.95290  0.12600  Biso   1.000  H
  H166     1.0000 0.76410  0.97280  0.35110  Biso   1.000  H
  C251     1.0000 0.74913  0.90833  0.25720  Biso   1.000  C
  C252     1.0000 0.70910  0.88764  0.29450  Biso   1.000  C
  H167     1.0000 0.69540  0.90390  0.30660  Biso   1.000  H
  H168     1.0000 0.84620  0.94570  0.28880  Biso   1.000  H
  O57      1.0000 0.48825  0.43471  0.45481  Biso   1.000  O
  O58      1.0000 0.47834  0.44446  0.58143  Biso   1.000  O
  C253     1.0000 0.47814  0.42207  0.52303  Biso   1.000  C
  C254     1.0000 0.46460  0.37579  0.54093  Biso   1.000  C
  C255     1.0000 0.46213  0.34807  0.48223  Biso   1.000  C
  C256     1.0000 0.45324  0.36006  0.61593  Biso   1.000  C
  H169     1.0000 0.47007  0.35843  0.43023  Biso   1.000  H
  C257     1.0000 0.44782  0.30482  0.49973  Biso   1.000  C
  C258     1.0000 0.43847  0.31671  0.63243  Biso   1.000  C
  H170     1.0000 0.45547  0.37903  0.65683  Biso   1.000  H
  C259     1.0000 0.43507  0.28864  0.57163  Biso   1.000  C
  H171     1.0000 0.44707  0.28623  0.45933  Biso   1.000  H
  H172     1.0000 0.43077  0.30613  0.68443  Biso   1.000  H
  C260     1.0000 0.41580  0.24166  0.59053  Biso   1.000  C
  C261     1.0000 0.37577  0.22097  0.62783  Biso   1.000  C
  H173     1.0000 0.36207  0.23723  0.63993  Biso   1.000  H
  H174     1.0000 0.51287  0.27903  0.62213  Biso   1.000  H
  O59      1.0000 0.15491  0.76805  0.78815  Biso   1.000  O
  O60      1.0000 0.14500  0.77780  0.91477  Biso   1.000  O
  C262     1.0000 0.14480  0.75541  0.85637  Biso   1.000  C
  C263     1.0000 0.13126  0.70913  0.87427  Biso   1.000  C
  C264     1.0000 0.12879  0.68141  0.81557  Biso   1.000  C
  C265     1.0000 0.11990  0.69340  0.94927  Biso   1.000  C
  H175     1.0000 0.13673  0.69177  0.76357  Biso   1.000  H
  C266     1.0000 0.11448  0.63816  0.83307  Biso   1.000  C
  C267     1.0000 0.10513  0.65005  0.96577  Biso   1.000  C
  H176     1.0000 0.12213  0.71237  0.99017  Biso   1.000  H
  C268     1.0000 0.10173  0.62198  0.90497  Biso   1.000  C
  H177     1.0000 0.11373  0.61957  0.79267  Biso   1.000  H
  H178     1.0000 0.09743  0.63947  0.01777  Biso   1.000  H
  C269     1.0000 0.08246  0.57500  0.92387  Biso   1.000  C
  C270     1.0000 0.04243  0.55431  0.96117  Biso   1.000  C
  H179     1.0000 0.02873  0.57057  0.97327  Biso   1.000  H
  H180     1.0000 0.17953  0.61237  0.95547  Biso   1.000  H
  O61      1.0000 0.27980  0.17842  0.12148  Biso   1.000  O
  O62      1.0000 0.29946  0.18833  0.24810  Biso   1.000  O
  C271     1.0000 0.27727  0.18853  0.18970  Biso   1.000  C
  C272     1.0000 0.24453  0.20207  0.20760  Biso   1.000  C
  C273     1.0000 0.21928  0.20454  0.14890  Biso   1.000  C
  C274     1.0000 0.24016  0.21343  0.28260  Biso   1.000  C
  H181     1.0000 0.22170  0.19660  0.09690  Biso   1.000  H
  C275     1.0000 0.19034  0.21885  0.16640  Biso   1.000  C
  C276     1.0000 0.21158  0.22820  0.29910  Biso   1.000  C
  H182     1.0000 0.25690  0.21120  0.32350  Biso   1.000  H
  C277     1.0000 0.18691  0.23160  0.23830  Biso   1.000  C
  H183     1.0000 0.17250  0.21960  0.12600  Biso   1.000  H
  H184     1.0000 0.20870  0.23590  0.35110  Biso   1.000  H
  C278     1.0000 0.15920  0.25087  0.25720  Biso   1.000  C
  C279     1.0000 0.17854  0.29090  0.29450  Biso   1.000  C
  H185     1.0000 0.20850  0.30460  0.30660  Biso   1.000  H
  H186     1.0000 0.09950  0.15380  0.28880  Biso   1.000  H
  O63      1.0000 0.94647  0.51175  0.45481  Biso   1.000  O
  O64      1.0000 0.96613  0.52166  0.58143  Biso   1.000  O
  C280     1.0000 0.94394  0.52186  0.52303  Biso   1.000  C
  C281     1.0000 0.91120  0.53540  0.54093  Biso   1.000  C
  C282     1.0000 0.88595  0.53787  0.48223  Biso   1.000  C
  C283     1.0000 0.90683  0.54676  0.61593  Biso   1.000  C
  H187     1.0000 0.88837  0.52993  0.43023  Biso   1.000  H
  C284     1.0000 0.85701  0.55218  0.49973  Biso   1.000  C
  C285     1.0000 0.87825  0.56153  0.63243  Biso   1.000  C
  H188     1.0000 0.92357  0.54453  0.65683  Biso   1.000  H
  C286     1.0000 0.85358  0.56493  0.57163  Biso   1.000  C
  H189     1.0000 0.83917  0.55293  0.45933  Biso   1.000  H
  H190     1.0000 0.87537  0.56923  0.68443  Biso   1.000  H
  C287     1.0000 0.82587  0.58420  0.59053  Biso   1.000  C
  C288     1.0000 0.84521  0.62423  0.62783  Biso   1.000  C
  H191     1.0000 0.87517  0.63793  0.63993  Biso   1.000  H
  H192     1.0000 0.76617  0.48713  0.62213  Biso   1.000  H
  O65      1.0000 0.61313  0.84509  0.78815  Biso   1.000  O
  O66      1.0000 0.63279  0.85500  0.91477  Biso   1.000  O
  C289     1.0000 0.61060  0.85520  0.85637  Biso   1.000  C
  C290     1.0000 0.57786  0.86874  0.87427  Biso   1.000  C
  C291     1.0000 0.55261  0.87121  0.81557  Biso   1.000  C
  C292     1.0000 0.57349  0.88010  0.94927  Biso   1.000  C
  H193     1.0000 0.55503  0.86327  0.76357  Biso   1.000  H
  C293     1.0000 0.52367  0.88552  0.83307  Biso   1.000  C
  C294     1.0000 0.54491  0.89487  0.96577  Biso   1.000  C
  H194     1.0000 0.59023  0.87787  0.99017  Biso   1.000  H
  C295     1.0000 0.52024  0.89827  0.90497  Biso   1.000  C
  H195     1.0000 0.50583  0.88627  0.79267  Biso   1.000  H
  H196     1.0000 0.54203  0.90257  0.01777  Biso   1.000  H
  C296     1.0000 0.49253  0.91754  0.92387  Biso   1.000  C
  C297     1.0000 0.51187  0.95757  0.96117  Biso   1.000  C
  H197     1.0000 0.54183  0.97127  0.97327  Biso   1.000  H
  H198     1.0000 0.43283  0.82047  0.95547  Biso   1.000  H
  O67      1.0000 0.89862  0.72020  0.12148  Biso   1.000  O
  O68      1.0000 0.88887  0.70054  0.24810  Biso   1.000  O
  C298     1.0000 0.91126  0.72273  0.18970  Biso   1.000  C
  C299     1.0000 0.95754  0.75547  0.20760  Biso   1.000  C
  C300     1.0000 0.98526  0.78072  0.14890  Biso   1.000  C
  C301     1.0000 0.97327  0.75984  0.28260  Biso   1.000  C
  H199     1.0000 0.97490  0.77830  0.09690  Biso   1.000  H
  C302     1.0000 0.02851  0.80966  0.16640  Biso   1.000  C
  C303     1.0000 0.01662  0.78842  0.29910  Biso   1.000  C
  H200     1.0000 0.95430  0.74310  0.32350  Biso   1.000  H
  C304     1.0000 0.04469  0.81309  0.23830  Biso   1.000  C
  H201     1.0000 0.04710  0.82750  0.12600  Biso   1.000  H
  H202     1.0000 0.02720  0.79130  0.35110  Biso   1.000  H
  C305     1.0000 0.09167  0.84080  0.25720  Biso   1.000  C
  C306     1.0000 0.11236  0.82146  0.29450  Biso   1.000  C
  H203     1.0000 0.09610  0.79150  0.30660  Biso   1.000  H
  H204     1.0000 0.05430  0.90050  0.28880  Biso   1.000  H
  O69      1.0000 0.56529  0.05353  0.45481  Biso   1.000  O
  O70      1.0000 0.55554  0.03387  0.58143  Biso   1.000  O
  C307     1.0000 0.57793  0.05606  0.52303  Biso   1.000  C
  C308     1.0000 0.62421  0.08880  0.54093  Biso   1.000  C
  C309     1.0000 0.65193  0.11405  0.48223  Biso   1.000  C
  C310     1.0000 0.63994  0.09317  0.61593  Biso   1.000  C
  H205     1.0000 0.64157  0.11163  0.43023  Biso   1.000  H
  C311     1.0000 0.69518  0.14299  0.49973  Biso   1.000  C
  C312     1.0000 0.68329  0.12175  0.63243  Biso   1.000  C
  H206     1.0000 0.62097  0.07643  0.65683  Biso   1.000  H
  C313     1.0000 0.71136  0.14642  0.57163  Biso   1.000  C
  H207     1.0000 0.71377  0.16083  0.45933  Biso   1.000  H
  H208     1.0000 0.69387  0.12463  0.68443  Biso   1.000  H
  C314     1.0000 0.75834  0.17413  0.59053  Biso   1.000  C
  C315     1.0000 0.77903  0.15479  0.62783  Biso   1.000  C
  H209     1.0000 0.76277  0.12483  0.63993  Biso   1.000  H
  H210     1.0000 0.72097  0.23383  0.62213  Biso   1.000  H
  O71      1.0000 0.23195  0.38687  0.78815  Biso   1.000  O
  O72      1.0000 0.22220  0.36721  0.91477  Biso   1.000  O
  C316     1.0000 0.24459  0.38940  0.85637  Biso   1.000  C
  C317     1.0000 0.29087  0.42214  0.87427  Biso   1.000  C
  C318     1.0000 0.31859  0.44739  0.81557  Biso   1.000  C
  C319     1.0000 0.30660  0.42651  0.94927  Biso   1.000  C
  H211     1.0000 0.30823  0.44497  0.76357  Biso   1.000  H
  C320     1.0000 0.36184  0.47633  0.83307  Biso   1.000  C
  C321     1.0000 0.34995  0.45509  0.96577  Biso   1.000  C
  H212     1.0000 0.28763  0.40977  0.99017  Biso   1.000  H
  C322     1.0000 0.37802  0.47976  0.90497  Biso   1.000  C
  H213     1.0000 0.38043  0.49417  0.79267  Biso   1.000  H
  H214     1.0000 0.36053  0.45797  0.01777  Biso   1.000  H
  C323     1.0000 0.42500  0.50747  0.92387  Biso   1.000  C
  C324     1.0000 0.44569  0.48813  0.96117  Biso   1.000  C
  H215     1.0000 0.42943  0.45817  0.97327  Biso   1.000  H
  H216     1.0000 0.38763  0.56717  0.95547  Biso   1.000  H
  Cu1      1.0000 0.83892  0.16108  0.09233  Biso   1.000  Cu
  Cu2      1.0000 0.50559  0.49441  0.42566  Biso   1.000  Cu
  Cu3      1.0000 0.17225  0.82775  0.75900  Biso   1.000  Cu
  Cu4      1.0000 0.83892  0.67784  0.09233  Biso   1.000  Cu
  Cu5      1.0000 0.50559  0.01117  0.42566  Biso   1.000  Cu
  Cu6      1.0000 0.17225  0.34451  0.75900  Biso   1.000  Cu
  Cu7      1.0000 0.32216  0.16108  0.09233  Biso   1.000  Cu
  Cu8      1.0000 0.98883  0.49441  0.42566  Biso   1.000  Cu
  Cu9      1.0000 0.65549  0.82775  0.75900  Biso   1.000  Cu
  Cu10     1.0000 0.16108  0.83892  0.90767  Biso   1.000  Cu
  Cu11     1.0000 0.82775  0.17225  0.24100  Biso   1.000  Cu
  Cu12     1.0000 0.49441  0.50559  0.57434  Biso   1.000  Cu
  Cu13     1.0000 0.67784  0.83892  0.90767  Biso   1.000  Cu
  Cu14     1.0000 0.34451  0.17225  0.24100  Biso   1.000  Cu
  Cu15     1.0000 0.01117  0.50559  0.57434  Biso   1.000  Cu
  Cu16     1.0000 0.16108  0.32216  0.90767  Biso   1.000  Cu
  Cu17     1.0000 0.82775  0.65549  0.24100  Biso   1.000  Cu
  Cu18     1.0000 0.49441  0.98883  0.57434  Biso   1.000  Cu
  C325     1.0000 0.11543  0.23086  0.23890  Biso   1.000  C
  C326     1.0000 0.15578  0.31156  0.31470  Biso   1.000  C
  O73      1.0000 0.09596  0.19193  0.20120  Biso   1.000  O
  C327     1.0000 0.07695  0.15390  0.25530  Biso   1.000  C
  C328     1.0000 0.78210  0.56419  0.57223  Biso   1.000  C
  C329     1.0000 0.82245  0.64489  0.64803  Biso   1.000  C
  O74      1.0000 0.76263  0.52526  0.53453  Biso   1.000  O
  C330     1.0000 0.74362  0.48723  0.58863  Biso   1.000  C
  C331     1.0000 0.44876  0.89753  0.90557  Biso   1.000  C
  C332     1.0000 0.48911  0.97823  0.98137  Biso   1.000  C
  O75      1.0000 0.42930  0.85860  0.86787  Biso   1.000  O
  C333     1.0000 0.41028  0.82057  0.92197  Biso   1.000  C
  C334     1.0000 0.76914  0.88457  0.23890  Biso   1.000  C
  C335     1.0000 0.68844  0.84422  0.31470  Biso   1.000  C
  O76      1.0000 0.80807  0.90404  0.20120  Biso   1.000  O
  C336     1.0000 0.84610  0.92305  0.25530  Biso   1.000  C
  C337     1.0000 0.43581  0.21790  0.57223  Biso   1.000  C
  C338     1.0000 0.35511  0.17755  0.64803  Biso   1.000  C
  O77      1.0000 0.47474  0.23737  0.53453  Biso   1.000  O
  C339     1.0000 0.51277  0.25638  0.58863  Biso   1.000  C
  C340     1.0000 0.10247  0.55124  0.90557  Biso   1.000  C
  C341     1.0000 0.02177  0.51089  0.98137  Biso   1.000  C
  O78      1.0000 0.14140  0.57070  0.86787  Biso   1.000  O
  C342     1.0000 0.17943  0.58972  0.92197  Biso   1.000  C
  C343     1.0000 0.11543  0.88457  0.23890  Biso   1.000  C
  C344     1.0000 0.15578  0.84422  0.31470  Biso   1.000  C
  O79      1.0000 0.09596  0.90404  0.20120  Biso   1.000  O
  C345     1.0000 0.07695  0.92305  0.25530  Biso   1.000  C
  C346     1.0000 0.78210  0.21790  0.57223  Biso   1.000  C
  C347     1.0000 0.82245  0.17755  0.64803  Biso   1.000  C
  O80      1.0000 0.76263  0.23737  0.53453  Biso   1.000  O
  C348     1.0000 0.74362  0.25638  0.58863  Biso   1.000  C
  C349     1.0000 0.44876  0.55124  0.90557  Biso   1.000  C
  C350     1.0000 0.48911  0.51089  0.98137  Biso   1.000  C
  O81      1.0000 0.42930  0.57070  0.86787  Biso   1.000  O
  C351     1.0000 0.41028  0.58972  0.92197  Biso   1.000  C
  C352     1.0000 0.23086  0.11543  0.76110  Biso   1.000  C
  C353     1.0000 0.31156  0.15578  0.68530  Biso   1.000  C
  O82      1.0000 0.19193  0.09596  0.79880  Biso   1.000  O
  C354     1.0000 0.15390  0.07695  0.74470  Biso   1.000  C
  C355     1.0000 0.89753  0.44876  0.09443  Biso   1.000  C
  C356     1.0000 0.97823  0.48911  0.01863  Biso   1.000  C
  O83      1.0000 0.85860  0.42930  0.13213  Biso   1.000  O
  C357     1.0000 0.82057  0.41028  0.07803  Biso   1.000  C
  C358     1.0000 0.56419  0.78210  0.42777  Biso   1.000  C
  C359     1.0000 0.64489  0.82245  0.35197  Biso   1.000  C
  O84      1.0000 0.52526  0.76263  0.46547  Biso   1.000  O
  C360     1.0000 0.48723  0.74362  0.41137  Biso   1.000  C
  C361     1.0000 0.88457  0.76914  0.76110  Biso   1.000  C
  C362     1.0000 0.84422  0.68844  0.68530  Biso   1.000  C
  O85      1.0000 0.90403  0.80807  0.79880  Biso   1.000  O
  C363     1.0000 0.92305  0.84610  0.74470  Biso   1.000  C
  C364     1.0000 0.55124  0.10247  0.09443  Biso   1.000  C
  C365     1.0000 0.51089  0.02177  0.01863  Biso   1.000  C
  O86      1.0000 0.57070  0.14140  0.13213  Biso   1.000  O
  C366     1.0000 0.58972  0.17943  0.07803  Biso   1.000  C
  C367     1.0000 0.21790  0.43581  0.42777  Biso   1.000  C
  C368     1.0000 0.17755  0.35511  0.35197  Biso   1.000  C
  O87      1.0000 0.23737  0.47474  0.46547  Biso   1.000  O
  C369     1.0000 0.25638  0.51277  0.41137  Biso   1.000  C
  C370     1.0000 0.88457  0.11543  0.76110  Biso   1.000  C
  C371     1.0000 0.84422  0.15578  0.68530  Biso   1.000  C
  O88      1.0000 0.90404  0.09596  0.79880  Biso   1.000  O
  C372     1.0000 0.92305  0.07695  0.74470  Biso   1.000  C
  C373     1.0000 0.55124  0.44876  0.09443  Biso   1.000  C
  C374     1.0000 0.51089  0.48911  0.01863  Biso   1.000  C
  O89      1.0000 0.57070  0.42930  0.13213  Biso   1.000  O
  C375     1.0000 0.58972  0.41028  0.07803  Biso   1.000  C
  C376     1.0000 0.21790  0.78210  0.42777  Biso   1.000  C
  C377     1.0000 0.17755  0.82245  0.35197  Biso   1.000  C
  O90      1.0000 0.23737  0.76263  0.46547  Biso   1.000  O
  C378     1.0000 0.25638  0.74362  0.41137  Biso   1.000  C
