data_image0
_cell_length_a       35.1357
_cell_length_b       35.1357
_cell_length_c       22.3814
_cell_angle_alpha    90
_cell_angle_beta     90
_cell_angle_gamma    120

_symmetry_space_group_name_H-M    "P 1"
_symmetry_int_tables_number       1

loop_
  _symmetry_equiv_pos_as_xyz
  'x, y, z'

loop_
  _atom_site_label
  _atom_site_occupancy
  _atom_site_fract_x
  _atom_site_fract_y
  _atom_site_fract_z
  _atom_site_thermal_displace_type
  _atom_site_B_iso_or_equiv
  _atom_site_type_symbol
  O1       1.0000 0.52503  0.97167  0.93128  Biso   1.000  O
  O2       1.0000 0.51138  0.94419  0.02436  Biso   1.000  O
  C1       1.0000 0.52390  0.94602  0.97164  Biso   1.000  C
  C2       1.0000 0.53934  0.91433  0.95358  Biso   1.000  C
  C3       1.0000 0.53971  0.88513  0.99478  Biso   1.000  C
  H1       1.0000 0.53020  0.88470  0.03370  Biso   1.000  H
  C4       1.0000 0.55418  0.85668  0.97830  Biso   1.000  C
  H2       1.0000 0.55370  0.83690  0.00630  Biso   1.000  H
  C5       1.0000 0.56930  0.85680  0.92127  Biso   1.000  C
  C6       1.0000 0.56833  0.88578  0.87971  Biso   1.000  C
  H3       1.0000 0.57750  0.88600  0.84070  Biso   1.000  H
  C7       1.0000 0.55363  0.91441  0.89639  Biso   1.000  C
  H4       1.0000 0.55350  0.93390  0.86840  Biso   1.000  H
  C8       1.0000 0.58814  0.82864  0.90391  Biso   1.000  C
  C9       1.0000 0.62598  0.84677  0.86968  Biso   1.000  C
  H5       1.0000 0.63850  0.87600  0.85820  Biso   1.000  H
  H6       1.0000 0.48970  0.72250  0.89870  Biso   1.000  H
  H7       1.0000 0.45570  0.70550  0.98860  Biso   1.000  H
  O3       1.0000 0.19170  0.30500  0.26461  Biso   1.000  O
  O4       1.0000 0.17805  0.27752  0.35769  Biso   1.000  O
  C10      1.0000 0.19057  0.27935  0.30497  Biso   1.000  C
  C11      1.0000 0.20601  0.24766  0.28691  Biso   1.000  C
  C12      1.0000 0.20638  0.21846  0.32811  Biso   1.000  C
  H8       1.0000 0.19687  0.21803  0.36703  Biso   1.000  H
  C13      1.0000 0.22085  0.19001  0.31163  Biso   1.000  C
  H9       1.0000 0.22037  0.17023  0.33963  Biso   1.000  H
  C14      1.0000 0.23597  0.19013  0.25460  Biso   1.000  C
  C15      1.0000 0.23500  0.21911  0.21304  Biso   1.000  C
  H10      1.0000 0.24417  0.21933  0.17403  Biso   1.000  H
  C16      1.0000 0.22030  0.24774  0.22972  Biso   1.000  C
  H11      1.0000 0.22017  0.26723  0.20173  Biso   1.000  H
  C17      1.0000 0.25481  0.16197  0.23724  Biso   1.000  C
  C18      1.0000 0.29265  0.18010  0.20301  Biso   1.000  C
  H12      1.0000 0.30517  0.20933  0.19153  Biso   1.000  H
  H13      1.0000 0.15637  0.05583  0.23203  Biso   1.000  H
  H14      1.0000 0.12237  0.03883  0.32193  Biso   1.000  H
  O5       1.0000 0.85836  0.63834  0.59795  Biso   1.000  O
  O6       1.0000 0.84471  0.61086  0.69103  Biso   1.000  O
  C19      1.0000 0.85723  0.61269  0.63831  Biso   1.000  C
  C20      1.0000 0.87267  0.58100  0.62025  Biso   1.000  C
  C21      1.0000 0.87304  0.55180  0.66145  Biso   1.000  C
  H15      1.0000 0.86353  0.55137  0.70037  Biso   1.000  H
  C22      1.0000 0.88751  0.52335  0.64497  Biso   1.000  C
  H16      1.0000 0.88703  0.50357  0.67297  Biso   1.000  H
  C23      1.0000 0.90263  0.52347  0.58794  Biso   1.000  C
  C24      1.0000 0.90166  0.55245  0.54638  Biso   1.000  C
  H17      1.0000 0.91083  0.55267  0.50737  Biso   1.000  H
  C25      1.0000 0.88696  0.58108  0.56306  Biso   1.000  C
  H18      1.0000 0.88683  0.60057  0.53507  Biso   1.000  H
  C26      1.0000 0.92147  0.49531  0.57058  Biso   1.000  C
  C27      1.0000 0.95931  0.51344  0.53635  Biso   1.000  C
  H19      1.0000 0.97183  0.54267  0.52487  Biso   1.000  H
  H20      1.0000 0.82303  0.38917  0.56537  Biso   1.000  H
  H21      1.0000 0.78903  0.37217  0.65527  Biso   1.000  H
  O7       1.0000 0.02833  0.55336  0.93128  Biso   1.000  O
  O8       1.0000 0.05581  0.56719  0.02436  Biso   1.000  O
  C28      1.0000 0.05398  0.57788  0.97164  Biso   1.000  C
  C29      1.0000 0.08567  0.62501  0.95358  Biso   1.000  C
  C30      1.0000 0.11487  0.65458  0.99478  Biso   1.000  C
  H22      1.0000 0.11530  0.64550  0.03370  Biso   1.000  H
  C31      1.0000 0.14332  0.69750  0.97830  Biso   1.000  C
  H23      1.0000 0.16310  0.71680  0.00630  Biso   1.000  H
  C32      1.0000 0.14320  0.71250  0.92127  Biso   1.000  C
  C33      1.0000 0.11422  0.68255  0.87971  Biso   1.000  C
  H24      1.0000 0.11400  0.69150  0.84070  Biso   1.000  H
  C34      1.0000 0.08559  0.63922  0.89639  Biso   1.000  C
  H25      1.0000 0.06610  0.61960  0.86840  Biso   1.000  H
  C35      1.0000 0.17136  0.75950  0.90391  Biso   1.000  C
  C36      1.0000 0.15323  0.77921  0.86968  Biso   1.000  C
  H26      1.0000 0.12400  0.76250  0.85820  Biso   1.000  H
  H27      1.0000 0.27750  0.76720  0.89870  Biso   1.000  H
  H28      1.0000 0.29450  0.75020  0.98860  Biso   1.000  H
  O9       1.0000 0.69500  0.88669  0.26461  Biso   1.000  O
  O10      1.0000 0.72248  0.90052  0.35769  Biso   1.000  O
  C37      1.0000 0.72065  0.91121  0.30497  Biso   1.000  C
  C38      1.0000 0.75234  0.95834  0.28691  Biso   1.000  C
  C39      1.0000 0.78154  0.98791  0.32811  Biso   1.000  C
  H29      1.0000 0.78197  0.97883  0.36703  Biso   1.000  H
  C40      1.0000 0.80999  0.03083  0.31163  Biso   1.000  C
  H30      1.0000 0.82977  0.05013  0.33963  Biso   1.000  H
  C41      1.0000 0.80987  0.04583  0.25460  Biso   1.000  C
  C42      1.0000 0.78089  0.01588  0.21304  Biso   1.000  C
  H31      1.0000 0.78067  0.02483  0.17403  Biso   1.000  H
  C43      1.0000 0.75226  0.97255  0.22972  Biso   1.000  C
  H32      1.0000 0.73277  0.95293  0.20173  Biso   1.000  H
  C44      1.0000 0.83803  0.09283  0.23724  Biso   1.000  C
  C45      1.0000 0.81990  0.11254  0.20301  Biso   1.000  C
  H33      1.0000 0.79067  0.09583  0.19153  Biso   1.000  H
  H34      1.0000 0.94417  0.10053  0.23203  Biso   1.000  H
  H35      1.0000 0.96117  0.08353  0.32193  Biso   1.000  H
  O11      1.0000 0.36166  0.22003  0.59795  Biso   1.000  O
  O12      1.0000 0.38914  0.23386  0.69103  Biso   1.000  O
  C46      1.0000 0.38731  0.24455  0.63831  Biso   1.000  C
  C47      1.0000 0.41900  0.29168  0.62025  Biso   1.000  C
  C48      1.0000 0.44820  0.32125  0.66145  Biso   1.000  C
  H36      1.0000 0.44863  0.31217  0.70037  Biso   1.000  H
  C49      1.0000 0.47665  0.36417  0.64497  Biso   1.000  C
  H37      1.0000 0.49643  0.38347  0.67297  Biso   1.000  H
  C50      1.0000 0.47653  0.37917  0.58794  Biso   1.000  C
  C51      1.0000 0.44755  0.34922  0.54638  Biso   1.000  C
  H38      1.0000 0.44733  0.35817  0.50737  Biso   1.000  H
  C52      1.0000 0.41892  0.30589  0.56306  Biso   1.000  C
  H39      1.0000 0.39943  0.28627  0.53507  Biso   1.000  H
  C53      1.0000 0.50469  0.42617  0.57058  Biso   1.000  C
  C54      1.0000 0.48656  0.44588  0.53635  Biso   1.000  C
  H40      1.0000 0.45733  0.42917  0.52487  Biso   1.000  H
  H41      1.0000 0.61083  0.43387  0.56537  Biso   1.000  H
  H42      1.0000 0.62783  0.41687  0.65527  Biso   1.000  H
  O13      1.0000 0.44664  0.47497  0.93128  Biso   1.000  O
  O14      1.0000 0.43281  0.48862  0.02436  Biso   1.000  O
  C55      1.0000 0.42212  0.47610  0.97164  Biso   1.000  C
  C56      1.0000 0.37499  0.46066  0.95358  Biso   1.000  C
  C57      1.0000 0.34542  0.46029  0.99478  Biso   1.000  C
  H43      1.0000 0.35450  0.46980  0.03370  Biso   1.000  H
  C58      1.0000 0.30250  0.44582  0.97830  Biso   1.000  C
  H44      1.0000 0.28320  0.44630  0.00630  Biso   1.000  H
  C59      1.0000 0.28750  0.43070  0.92127  Biso   1.000  C
  C60      1.0000 0.31745  0.43167  0.87971  Biso   1.000  C
  H45      1.0000 0.30850  0.42250  0.84070  Biso   1.000  H
  C61      1.0000 0.36078  0.44637  0.89639  Biso   1.000  C
  H46      1.0000 0.38040  0.44650  0.86840  Biso   1.000  H
  C62      1.0000 0.24050  0.41186  0.90391  Biso   1.000  C
  C63      1.0000 0.22079  0.37402  0.86968  Biso   1.000  C
  H47      1.0000 0.23750  0.36150  0.85820  Biso   1.000  H
  H48      1.0000 0.23280  0.51030  0.89870  Biso   1.000  H
  H49      1.0000 0.24980  0.54430  0.98860  Biso   1.000  H
  O15      1.0000 0.11331  0.80830  0.26461  Biso   1.000  O
  O16      1.0000 0.09948  0.82195  0.35769  Biso   1.000  O
  C64      1.0000 0.08879  0.80943  0.30497  Biso   1.000  C
  C65      1.0000 0.04166  0.79399  0.28691  Biso   1.000  C
  C66      1.0000 0.01209  0.79362  0.32811  Biso   1.000  C
  H50      1.0000 0.02117  0.80313  0.36703  Biso   1.000  H
  C67      1.0000 0.96917  0.77915  0.31163  Biso   1.000  C
  H51      1.0000 0.94987  0.77963  0.33963  Biso   1.000  H
  C68      1.0000 0.95417  0.76403  0.25460  Biso   1.000  C
  C69      1.0000 0.98412  0.76500  0.21304  Biso   1.000  C
  H52      1.0000 0.97517  0.75583  0.17403  Biso   1.000  H
  C70      1.0000 0.02745  0.77970  0.22972  Biso   1.000  C
  H53      1.0000 0.04707  0.77983  0.20173  Biso   1.000  H
  C71      1.0000 0.90717  0.74519  0.23724  Biso   1.000  C
  C72      1.0000 0.88746  0.70735  0.20301  Biso   1.000  C
  H54      1.0000 0.90417  0.69483  0.19153  Biso   1.000  H
  H55      1.0000 0.89947  0.84363  0.23203  Biso   1.000  H
  H56      1.0000 0.91647  0.87763  0.32193  Biso   1.000  H
  O17      1.0000 0.77997  0.14164  0.59795  Biso   1.000  O
  O18      1.0000 0.76614  0.15529  0.69103  Biso   1.000  O
  C73      1.0000 0.75545  0.14277  0.63831  Biso   1.000  C
  C74      1.0000 0.70832  0.12733  0.62025  Biso   1.000  C
  C75      1.0000 0.67875  0.12696  0.66145  Biso   1.000  C
  H57      1.0000 0.68783  0.13647  0.70037  Biso   1.000  H
  C76      1.0000 0.63583  0.11249  0.64497  Biso   1.000  C
  H58      1.0000 0.61653  0.11297  0.67297  Biso   1.000  H
  C77      1.0000 0.62083  0.09737  0.58794  Biso   1.000  C
  C78      1.0000 0.65078  0.09834  0.54638  Biso   1.000  C
  H59      1.0000 0.64183  0.08917  0.50737  Biso   1.000  H
  C79      1.0000 0.69411  0.11304  0.56306  Biso   1.000  C
  H60      1.0000 0.71373  0.11317  0.53507  Biso   1.000  H
  C80      1.0000 0.57383  0.07853  0.57058  Biso   1.000  C
  C81      1.0000 0.55412  0.04069  0.53635  Biso   1.000  C
  H61      1.0000 0.57083  0.02817  0.52487  Biso   1.000  H
  H62      1.0000 0.56613  0.17697  0.56537  Biso   1.000  H
  H63      1.0000 0.58313  0.21097  0.65527  Biso   1.000  H
  O19      1.0000 0.97167  0.52503  0.06872  Biso   1.000  O
  O20      1.0000 0.94419  0.51138  0.97564  Biso   1.000  O
  C82      1.0000 0.94602  0.52390  0.02836  Biso   1.000  C
  C83      1.0000 0.91433  0.53934  0.04642  Biso   1.000  C
  C84      1.0000 0.88513  0.53971  0.00522  Biso   1.000  C
  H64      1.0000 0.88470  0.53020  0.96630  Biso   1.000  H
  C85      1.0000 0.85668  0.55418  0.02170  Biso   1.000  C
  H65      1.0000 0.83690  0.55370  0.99370  Biso   1.000  H
  C86      1.0000 0.85680  0.56930  0.07873  Biso   1.000  C
  C87      1.0000 0.88578  0.56833  0.12029  Biso   1.000  C
  H66      1.0000 0.88600  0.57750  0.15930  Biso   1.000  H
  C88      1.0000 0.91441  0.55363  0.10361  Biso   1.000  C
  H67      1.0000 0.93390  0.55350  0.13160  Biso   1.000  H
  C89      1.0000 0.82864  0.58814  0.09609  Biso   1.000  C
  C90      1.0000 0.84677  0.62598  0.13032  Biso   1.000  C
  H68      1.0000 0.87600  0.63850  0.14180  Biso   1.000  H
  H69      1.0000 0.72250  0.48970  0.10130  Biso   1.000  H
  H70      1.0000 0.70550  0.45570  0.01140  Biso   1.000  H
  O21      1.0000 0.63834  0.85836  0.40205  Biso   1.000  O
  O22      1.0000 0.61086  0.84471  0.30897  Biso   1.000  O
  C91      1.0000 0.61269  0.85723  0.36169  Biso   1.000  C
  C92      1.0000 0.58100  0.87267  0.37975  Biso   1.000  C
  C93      1.0000 0.55180  0.87304  0.33855  Biso   1.000  C
  H71      1.0000 0.55137  0.86353  0.29963  Biso   1.000  H
  C94      1.0000 0.52335  0.88751  0.35503  Biso   1.000  C
  H72      1.0000 0.50357  0.88703  0.32703  Biso   1.000  H
  C95      1.0000 0.52347  0.90263  0.41206  Biso   1.000  C
  C96      1.0000 0.55245  0.90166  0.45362  Biso   1.000  C
  H73      1.0000 0.55267  0.91083  0.49263  Biso   1.000  H
  C97      1.0000 0.58108  0.88696  0.43694  Biso   1.000  C
  H74      1.0000 0.60057  0.88683  0.46493  Biso   1.000  H
  C98      1.0000 0.49531  0.92147  0.42942  Biso   1.000  C
  C99      1.0000 0.51344  0.95931  0.46365  Biso   1.000  C
  H75      1.0000 0.54267  0.97183  0.47513  Biso   1.000  H
  H76      1.0000 0.38917  0.82303  0.43463  Biso   1.000  H
  H77      1.0000 0.37217  0.78903  0.34473  Biso   1.000  H
  O23      1.0000 0.30500  0.19170  0.73539  Biso   1.000  O
  O24      1.0000 0.27752  0.17805  0.64231  Biso   1.000  O
  C100     1.0000 0.27935  0.19057  0.69503  Biso   1.000  C
  C101     1.0000 0.24766  0.20601  0.71309  Biso   1.000  C
  C102     1.0000 0.21846  0.20638  0.67189  Biso   1.000  C
  H78      1.0000 0.21803  0.19687  0.63297  Biso   1.000  H
  C103     1.0000 0.19001  0.22085  0.68837  Biso   1.000  C
  H79      1.0000 0.17023  0.22037  0.66037  Biso   1.000  H
  C104     1.0000 0.19013  0.23597  0.74540  Biso   1.000  C
  C105     1.0000 0.21911  0.23500  0.78696  Biso   1.000  C
  H80      1.0000 0.21933  0.24417  0.82597  Biso   1.000  H
  C106     1.0000 0.24774  0.22030  0.77028  Biso   1.000  C
  H81      1.0000 0.26723  0.22017  0.79827  Biso   1.000  H
  C107     1.0000 0.16197  0.25481  0.76276  Biso   1.000  C
  C108     1.0000 0.18010  0.29265  0.79699  Biso   1.000  C
  H82      1.0000 0.20933  0.30517  0.80847  Biso   1.000  H
  H83      1.0000 0.05583  0.15637  0.76797  Biso   1.000  H
  H84      1.0000 0.03883  0.12237  0.67807  Biso   1.000  H
  O25      1.0000 0.55336  0.02833  0.06872  Biso   1.000  O
  O26      1.0000 0.56719  0.05581  0.97564  Biso   1.000  O
  C109     1.0000 0.57788  0.05398  0.02836  Biso   1.000  C
  C110     1.0000 0.62501  0.08567  0.04642  Biso   1.000  C
  C111     1.0000 0.65458  0.11487  0.00522  Biso   1.000  C
  H85      1.0000 0.64550  0.11530  0.96630  Biso   1.000  H
  C112     1.0000 0.69750  0.14332  0.02170  Biso   1.000  C
  H86      1.0000 0.71680  0.16310  0.99370  Biso   1.000  H
  C113     1.0000 0.71250  0.14320  0.07873  Biso   1.000  C
  C114     1.0000 0.68255  0.11422  0.12029  Biso   1.000  C
  H87      1.0000 0.69150  0.11400  0.15930  Biso   1.000  H
  C115     1.0000 0.63922  0.08559  0.10361  Biso   1.000  C
  H88      1.0000 0.61960  0.06610  0.13160  Biso   1.000  H
  C116     1.0000 0.75950  0.17136  0.09609  Biso   1.000  C
  C117     1.0000 0.77921  0.15323  0.13032  Biso   1.000  C
  H89      1.0000 0.76250  0.12400  0.14180  Biso   1.000  H
  H90      1.0000 0.76720  0.27750  0.10130  Biso   1.000  H
  H91      1.0000 0.75020  0.29450  0.01140  Biso   1.000  H
  O27      1.0000 0.22003  0.36166  0.40205  Biso   1.000  O
  O28      1.0000 0.23386  0.38914  0.30897  Biso   1.000  O
  C118     1.0000 0.24455  0.38731  0.36169  Biso   1.000  C
  C119     1.0000 0.29168  0.41900  0.37975  Biso   1.000  C
  C120     1.0000 0.32125  0.44820  0.33855  Biso   1.000  C
  H92      1.0000 0.31217  0.44863  0.29963  Biso   1.000  H
  C121     1.0000 0.36417  0.47665  0.35503  Biso   1.000  C
  H93      1.0000 0.38347  0.49643  0.32703  Biso   1.000  H
  C122     1.0000 0.37917  0.47653  0.41206  Biso   1.000  C
  C123     1.0000 0.34922  0.44755  0.45362  Biso   1.000  C
  H94      1.0000 0.35817  0.44733  0.49263  Biso   1.000  H
  C124     1.0000 0.30589  0.41892  0.43694  Biso   1.000  C
  H95      1.0000 0.28627  0.39943  0.46493  Biso   1.000  H
  C125     1.0000 0.42617  0.50469  0.42942  Biso   1.000  C
  C126     1.0000 0.44588  0.48656  0.46365  Biso   1.000  C
  H96      1.0000 0.42917  0.45733  0.47513  Biso   1.000  H
  H97      1.0000 0.43387  0.61083  0.43463  Biso   1.000  H
  H98      1.0000 0.41687  0.62783  0.34473  Biso   1.000  H
  O29      1.0000 0.88669  0.69500  0.73539  Biso   1.000  O
  O30      1.0000 0.90052  0.72248  0.64231  Biso   1.000  O
  C127     1.0000 0.91121  0.72065  0.69503  Biso   1.000  C
  C128     1.0000 0.95834  0.75234  0.71309  Biso   1.000  C
  C129     1.0000 0.98791  0.78154  0.67189  Biso   1.000  C
  H99      1.0000 0.97883  0.78197  0.63297  Biso   1.000  H
  C130     1.0000 0.03083  0.80999  0.68837  Biso   1.000  C
  H100     1.0000 0.05013  0.82977  0.66037  Biso   1.000  H
  C131     1.0000 0.04583  0.80987  0.74540  Biso   1.000  C
  C132     1.0000 0.01588  0.78089  0.78696  Biso   1.000  C
  H101     1.0000 0.02483  0.78067  0.82597  Biso   1.000  H
  C133     1.0000 0.97255  0.75226  0.77028  Biso   1.000  C
  H102     1.0000 0.95293  0.73277  0.79827  Biso   1.000  H
  C134     1.0000 0.09283  0.83803  0.76276  Biso   1.000  C
  C135     1.0000 0.11254  0.81990  0.79699  Biso   1.000  C
  H103     1.0000 0.09583  0.79067  0.80847  Biso   1.000  H
  H104     1.0000 0.10053  0.94417  0.76797  Biso   1.000  H
  H105     1.0000 0.08353  0.96117  0.67807  Biso   1.000  H
  O31      1.0000 0.47497  0.44664  0.06872  Biso   1.000  O
  O32      1.0000 0.48862  0.43281  0.97564  Biso   1.000  O
  C136     1.0000 0.47610  0.42212  0.02836  Biso   1.000  C
  C137     1.0000 0.46066  0.37499  0.04642  Biso   1.000  C
  C138     1.0000 0.46029  0.34542  0.00522  Biso   1.000  C
  H106     1.0000 0.46980  0.35450  0.96630  Biso   1.000  H
  C139     1.0000 0.44582  0.30250  0.02170  Biso   1.000  C
  H107     1.0000 0.44630  0.28320  0.99370  Biso   1.000  H
  C140     1.0000 0.43070  0.28750  0.07873  Biso   1.000  C
  C141     1.0000 0.43167  0.31745  0.12029  Biso   1.000  C
  H108     1.0000 0.42250  0.30850  0.15930  Biso   1.000  H
  C142     1.0000 0.44637  0.36078  0.10361  Biso   1.000  C
  H109     1.0000 0.44650  0.38040  0.13160  Biso   1.000  H
  C143     1.0000 0.41186  0.24050  0.09609  Biso   1.000  C
  C144     1.0000 0.37402  0.22079  0.13032  Biso   1.000  C
  H110     1.0000 0.36150  0.23750  0.14180  Biso   1.000  H
  H111     1.0000 0.51030  0.23280  0.10130  Biso   1.000  H
  H112     1.0000 0.54430  0.24980  0.01140  Biso   1.000  H
  O33      1.0000 0.14164  0.77997  0.40205  Biso   1.000  O
  O34      1.0000 0.15529  0.76614  0.30897  Biso   1.000  O
  C145     1.0000 0.14277  0.75545  0.36169  Biso   1.000  C
  C146     1.0000 0.12733  0.70832  0.37975  Biso   1.000  C
  C147     1.0000 0.12696  0.67875  0.33855  Biso   1.000  C
  H113     1.0000 0.13647  0.68783  0.29963  Biso   1.000  H
  C148     1.0000 0.11249  0.63583  0.35503  Biso   1.000  C
  H114     1.0000 0.11297  0.61653  0.32703  Biso   1.000  H
  C149     1.0000 0.09737  0.62083  0.41206  Biso   1.000  C
  C150     1.0000 0.09834  0.65078  0.45362  Biso   1.000  C
  H115     1.0000 0.08917  0.64183  0.49263  Biso   1.000  H
  C151     1.0000 0.11304  0.69411  0.43694  Biso   1.000  C
  H116     1.0000 0.11317  0.71373  0.46493  Biso   1.000  H
  C152     1.0000 0.07853  0.57383  0.42942  Biso   1.000  C
  C153     1.0000 0.04069  0.55412  0.46365  Biso   1.000  C
  H117     1.0000 0.02817  0.57083  0.47513  Biso   1.000  H
  H118     1.0000 0.17697  0.56613  0.43463  Biso   1.000  H
  H119     1.0000 0.21097  0.58313  0.34473  Biso   1.000  H
  O35      1.0000 0.80830  0.11331  0.73539  Biso   1.000  O
  O36      1.0000 0.82195  0.09948  0.64231  Biso   1.000  O
  C154     1.0000 0.80943  0.08879  0.69503  Biso   1.000  C
  C155     1.0000 0.79399  0.04166  0.71309  Biso   1.000  C
  C156     1.0000 0.79362  0.01209  0.67189  Biso   1.000  C
  H120     1.0000 0.80313  0.02117  0.63297  Biso   1.000  H
  C157     1.0000 0.77915  0.96917  0.68837  Biso   1.000  C
  H121     1.0000 0.77963  0.94987  0.66037  Biso   1.000  H
  C158     1.0000 0.76403  0.95417  0.74540  Biso   1.000  C
  C159     1.0000 0.76500  0.98412  0.78696  Biso   1.000  C
  H122     1.0000 0.75583  0.97517  0.82597  Biso   1.000  H
  C160     1.0000 0.77970  0.02745  0.77028  Biso   1.000  C
  H123     1.0000 0.77983  0.04707  0.79827  Biso   1.000  H
  C161     1.0000 0.74519  0.90717  0.76276  Biso   1.000  C
  C162     1.0000 0.70735  0.88746  0.79699  Biso   1.000  C
  H124     1.0000 0.69483  0.90417  0.80847  Biso   1.000  H
  H125     1.0000 0.84363  0.89947  0.76797  Biso   1.000  H
  H126     1.0000 0.87763  0.91647  0.67807  Biso   1.000  H
  O37      1.0000 0.47497  0.02833  0.06872  Biso   1.000  O
  O38      1.0000 0.48862  0.05581  0.97564  Biso   1.000  O
  C163     1.0000 0.47610  0.05398  0.02836  Biso   1.000  C
  C164     1.0000 0.46066  0.08567  0.04642  Biso   1.000  C
  C165     1.0000 0.46029  0.11487  0.00522  Biso   1.000  C
  H127     1.0000 0.46980  0.11530  0.96630  Biso   1.000  H
  C166     1.0000 0.44582  0.14332  0.02170  Biso   1.000  C
  H128     1.0000 0.44630  0.16310  0.99370  Biso   1.000  H
  C167     1.0000 0.43070  0.14320  0.07873  Biso   1.000  C
  C168     1.0000 0.43167  0.11422  0.12029  Biso   1.000  C
  H129     1.0000 0.42250  0.11400  0.15930  Biso   1.000  H
  C169     1.0000 0.44637  0.08559  0.10361  Biso   1.000  C
  H130     1.0000 0.44650  0.06610  0.13160  Biso   1.000  H
  C170     1.0000 0.41186  0.17136  0.09609  Biso   1.000  C
  C171     1.0000 0.37402  0.15323  0.13032  Biso   1.000  C
  H131     1.0000 0.36150  0.12400  0.14180  Biso   1.000  H
  H132     1.0000 0.51030  0.27750  0.10130  Biso   1.000  H
  H133     1.0000 0.54430  0.29450  0.01140  Biso   1.000  H
  O39      1.0000 0.14164  0.36166  0.40205  Biso   1.000  O
  O40      1.0000 0.15529  0.38914  0.30897  Biso   1.000  O
  C172     1.0000 0.14277  0.38731  0.36169  Biso   1.000  C
  C173     1.0000 0.12733  0.41900  0.37975  Biso   1.000  C
  C174     1.0000 0.12696  0.44820  0.33855  Biso   1.000  C
  H134     1.0000 0.13647  0.44863  0.29963  Biso   1.000  H
  C175     1.0000 0.11249  0.47665  0.35503  Biso   1.000  C
  H135     1.0000 0.11297  0.49643  0.32703  Biso   1.000  H
  C176     1.0000 0.09737  0.47653  0.41206  Biso   1.000  C
  C177     1.0000 0.09834  0.44755  0.45362  Biso   1.000  C
  H136     1.0000 0.08917  0.44733  0.49263  Biso   1.000  H
  C178     1.0000 0.11304  0.41892  0.43694  Biso   1.000  C
  H137     1.0000 0.11317  0.39943  0.46493  Biso   1.000  H
  C179     1.0000 0.07853  0.50469  0.42942  Biso   1.000  C
  C180     1.0000 0.04069  0.48656  0.46365  Biso   1.000  C
  H138     1.0000 0.02817  0.45733  0.47513  Biso   1.000  H
  H139     1.0000 0.17697  0.61083  0.43463  Biso   1.000  H
  H140     1.0000 0.21097  0.62783  0.34473  Biso   1.000  H
  O41      1.0000 0.80830  0.69500  0.73539  Biso   1.000  O
  O42      1.0000 0.82195  0.72248  0.64231  Biso   1.000  O
  C181     1.0000 0.80943  0.72065  0.69503  Biso   1.000  C
  C182     1.0000 0.79399  0.75234  0.71309  Biso   1.000  C
  C183     1.0000 0.79362  0.78154  0.67189  Biso   1.000  C
  H141     1.0000 0.80313  0.78197  0.63297  Biso   1.000  H
  C184     1.0000 0.77915  0.80999  0.68837  Biso   1.000  C
  H142     1.0000 0.77963  0.82977  0.66037  Biso   1.000  H
  C185     1.0000 0.76403  0.80987  0.74540  Biso   1.000  C
  C186     1.0000 0.76500  0.78089  0.78696  Biso   1.000  C
  H143     1.0000 0.75583  0.78067  0.82597  Biso   1.000  H
  C187     1.0000 0.77970  0.75226  0.77028  Biso   1.000  C
  H144     1.0000 0.77983  0.73277  0.79827  Biso   1.000  H
  C188     1.0000 0.74519  0.83803  0.76276  Biso   1.000  C
  C189     1.0000 0.70735  0.81990  0.79699  Biso   1.000  C
  H145     1.0000 0.69483  0.79067  0.80847  Biso   1.000  H
  H146     1.0000 0.84363  0.94417  0.76797  Biso   1.000  H
  H147     1.0000 0.87763  0.96117  0.67807  Biso   1.000  H
  O43      1.0000 0.97167  0.44664  0.06872  Biso   1.000  O
  O44      1.0000 0.94419  0.43281  0.97564  Biso   1.000  O
  C190     1.0000 0.94602  0.42212  0.02836  Biso   1.000  C
  C191     1.0000 0.91433  0.37499  0.04642  Biso   1.000  C
  C192     1.0000 0.88513  0.34542  0.00522  Biso   1.000  C
  H148     1.0000 0.88470  0.35450  0.96630  Biso   1.000  H
  C193     1.0000 0.85668  0.30250  0.02170  Biso   1.000  C
  H149     1.0000 0.83690  0.28320  0.99370  Biso   1.000  H
  C194     1.0000 0.85680  0.28750  0.07873  Biso   1.000  C
  C195     1.0000 0.88578  0.31745  0.12029  Biso   1.000  C
  H150     1.0000 0.88600  0.30850  0.15930  Biso   1.000  H
  C196     1.0000 0.91441  0.36078  0.10361  Biso   1.000  C
  H151     1.0000 0.93390  0.38040  0.13160  Biso   1.000  H
  C197     1.0000 0.82864  0.24050  0.09609  Biso   1.000  C
  C198     1.0000 0.84677  0.22079  0.13032  Biso   1.000  C
  H152     1.0000 0.87600  0.23750  0.14180  Biso   1.000  H
  H153     1.0000 0.72250  0.23280  0.10130  Biso   1.000  H
  H154     1.0000 0.70550  0.24980  0.01140  Biso   1.000  H
  O45      1.0000 0.63834  0.77997  0.40205  Biso   1.000  O
  O46      1.0000 0.61086  0.76614  0.30897  Biso   1.000  O
  C199     1.0000 0.61269  0.75545  0.36169  Biso   1.000  C
  C200     1.0000 0.58100  0.70832  0.37975  Biso   1.000  C
  C201     1.0000 0.55180  0.67875  0.33855  Biso   1.000  C
  H155     1.0000 0.55137  0.68783  0.29963  Biso   1.000  H
  C202     1.0000 0.52335  0.63583  0.35503  Biso   1.000  C
  H156     1.0000 0.50357  0.61653  0.32703  Biso   1.000  H
  C203     1.0000 0.52347  0.62083  0.41206  Biso   1.000  C
  C204     1.0000 0.55245  0.65078  0.45362  Biso   1.000  C
  H157     1.0000 0.55267  0.64183  0.49263  Biso   1.000  H
  C205     1.0000 0.58108  0.69411  0.43694  Biso   1.000  C
  H158     1.0000 0.60057  0.71373  0.46493  Biso   1.000  H
  C206     1.0000 0.49531  0.57383  0.42942  Biso   1.000  C
  C207     1.0000 0.51344  0.55412  0.46365  Biso   1.000  C
  H159     1.0000 0.54267  0.57083  0.47513  Biso   1.000  H
  H160     1.0000 0.38917  0.56613  0.43463  Biso   1.000  H
  H161     1.0000 0.37217  0.58313  0.34473  Biso   1.000  H
  O47      1.0000 0.30500  0.11331  0.73539  Biso   1.000  O
  O48      1.0000 0.27752  0.09948  0.64231  Biso   1.000  O
  C208     1.0000 0.27935  0.08879  0.69503  Biso   1.000  C
  C209     1.0000 0.24766  0.04166  0.71309  Biso   1.000  C
  C210     1.0000 0.21846  0.01209  0.67189  Biso   1.000  C
  H162     1.0000 0.21803  0.02117  0.63297  Biso   1.000  H
  C211     1.0000 0.19001  0.96917  0.68837  Biso   1.000  C
  H163     1.0000 0.17023  0.94987  0.66037  Biso   1.000  H
  C212     1.0000 0.19013  0.95417  0.74540  Biso   1.000  C
  C213     1.0000 0.21911  0.98412  0.78696  Biso   1.000  C
  H164     1.0000 0.21933  0.97517  0.82597  Biso   1.000  H
  C214     1.0000 0.24774  0.02745  0.77028  Biso   1.000  C
  H165     1.0000 0.26723  0.04707  0.79827  Biso   1.000  H
  C215     1.0000 0.16197  0.90717  0.76276  Biso   1.000  C
  C216     1.0000 0.18010  0.88746  0.79699  Biso   1.000  C
  H166     1.0000 0.20933  0.90417  0.80847  Biso   1.000  H
  H167     1.0000 0.05583  0.89947  0.76797  Biso   1.000  H
  H168     1.0000 0.03883  0.91647  0.67807  Biso   1.000  H
  O49      1.0000 0.55336  0.52503  0.06872  Biso   1.000  O
  O50      1.0000 0.56719  0.51138  0.97564  Biso   1.000  O
  C217     1.0000 0.57788  0.52390  0.02836  Biso   1.000  C
  C218     1.0000 0.62501  0.53934  0.04642  Biso   1.000  C
  C219     1.0000 0.65458  0.53971  0.00522  Biso   1.000  C
  H169     1.0000 0.64550  0.53020  0.96630  Biso   1.000  H
  C220     1.0000 0.69750  0.55418  0.02170  Biso   1.000  C
  H170     1.0000 0.71680  0.55370  0.99370  Biso   1.000  H
  C221     1.0000 0.71250  0.56930  0.07873  Biso   1.000  C
  C222     1.0000 0.68255  0.56833  0.12029  Biso   1.000  C
  H171     1.0000 0.69150  0.57750  0.15930  Biso   1.000  H
  C223     1.0000 0.63922  0.55363  0.10361  Biso   1.000  C
  H172     1.0000 0.61960  0.55350  0.13160  Biso   1.000  H
  C224     1.0000 0.75950  0.58814  0.09609  Biso   1.000  C
  C225     1.0000 0.77921  0.62598  0.13032  Biso   1.000  C
  H173     1.0000 0.76250  0.63850  0.14180  Biso   1.000  H
  H174     1.0000 0.76720  0.48970  0.10130  Biso   1.000  H
  H175     1.0000 0.75020  0.45570  0.01140  Biso   1.000  H
  O51      1.0000 0.22003  0.85836  0.40205  Biso   1.000  O
  O52      1.0000 0.23386  0.84471  0.30897  Biso   1.000  O
  C226     1.0000 0.24455  0.85723  0.36169  Biso   1.000  C
  C227     1.0000 0.29168  0.87267  0.37975  Biso   1.000  C
  C228     1.0000 0.32125  0.87304  0.33855  Biso   1.000  C
  H176     1.0000 0.31217  0.86353  0.29963  Biso   1.000  H
  C229     1.0000 0.36417  0.88751  0.35503  Biso   1.000  C
  H177     1.0000 0.38347  0.88703  0.32703  Biso   1.000  H
  C230     1.0000 0.37917  0.90263  0.41206  Biso   1.000  C
  C231     1.0000 0.34922  0.90166  0.45362  Biso   1.000  C
  H178     1.0000 0.35817  0.91083  0.49263  Biso   1.000  H
  C232     1.0000 0.30589  0.88696  0.43694  Biso   1.000  C
  H179     1.0000 0.28627  0.88683  0.46493  Biso   1.000  H
  C233     1.0000 0.42617  0.92147  0.42942  Biso   1.000  C
  C234     1.0000 0.44588  0.95931  0.46365  Biso   1.000  C
  H180     1.0000 0.42917  0.97183  0.47513  Biso   1.000  H
  H181     1.0000 0.43387  0.82303  0.43463  Biso   1.000  H
  H182     1.0000 0.41687  0.78903  0.34473  Biso   1.000  H
  O53      1.0000 0.88669  0.19170  0.73539  Biso   1.000  O
  O54      1.0000 0.90052  0.17805  0.64231  Biso   1.000  O
  C235     1.0000 0.91121  0.19057  0.69503  Biso   1.000  C
  C236     1.0000 0.95834  0.20601  0.71309  Biso   1.000  C
  C237     1.0000 0.98791  0.20638  0.67189  Biso   1.000  C
  H183     1.0000 0.97883  0.19687  0.63297  Biso   1.000  H
  C238     1.0000 0.03083  0.22085  0.68837  Biso   1.000  C
  H184     1.0000 0.05013  0.22037  0.66037  Biso   1.000  H
  C239     1.0000 0.04583  0.23597  0.74540  Biso   1.000  C
  C240     1.0000 0.01588  0.23500  0.78696  Biso   1.000  C
  H185     1.0000 0.02483  0.24417  0.82597  Biso   1.000  H
  C241     1.0000 0.97255  0.22030  0.77028  Biso   1.000  C
  H186     1.0000 0.95293  0.22017  0.79827  Biso   1.000  H
  C242     1.0000 0.09283  0.25481  0.76276  Biso   1.000  C
  C243     1.0000 0.11254  0.29265  0.79699  Biso   1.000  C
  H187     1.0000 0.09583  0.30517  0.80847  Biso   1.000  H
  H188     1.0000 0.10053  0.15637  0.76797  Biso   1.000  H
  H189     1.0000 0.08353  0.12237  0.67807  Biso   1.000  H
  O55      1.0000 0.02833  0.47497  0.93128  Biso   1.000  O
  O56      1.0000 0.05581  0.48862  0.02436  Biso   1.000  O
  C244     1.0000 0.05398  0.47610  0.97164  Biso   1.000  C
  C245     1.0000 0.08567  0.46066  0.95358  Biso   1.000  C
  C246     1.0000 0.11487  0.46029  0.99478  Biso   1.000  C
  H190     1.0000 0.11530  0.46980  0.03370  Biso   1.000  H
  C247     1.0000 0.14332  0.44582  0.97830  Biso   1.000  C
  H191     1.0000 0.16310  0.44630  0.00630  Biso   1.000  H
  C248     1.0000 0.14320  0.43070  0.92127  Biso   1.000  C
  C249     1.0000 0.11422  0.43167  0.87971  Biso   1.000  C
  H192     1.0000 0.11400  0.42250  0.84070  Biso   1.000  H
  C250     1.0000 0.08559  0.44637  0.89639  Biso   1.000  C
  H193     1.0000 0.06610  0.44650  0.86840  Biso   1.000  H
  C251     1.0000 0.17136  0.41186  0.90391  Biso   1.000  C
  C252     1.0000 0.15323  0.37402  0.86968  Biso   1.000  C
  H194     1.0000 0.12400  0.36150  0.85820  Biso   1.000  H
  H195     1.0000 0.27750  0.51030  0.89870  Biso   1.000  H
  H196     1.0000 0.29450  0.54430  0.98860  Biso   1.000  H
  O57      1.0000 0.69500  0.80830  0.26461  Biso   1.000  O
  O58      1.0000 0.72248  0.82195  0.35769  Biso   1.000  O
  C253     1.0000 0.72065  0.80943  0.30497  Biso   1.000  C
  C254     1.0000 0.75234  0.79399  0.28691  Biso   1.000  C
  C255     1.0000 0.78154  0.79362  0.32811  Biso   1.000  C
  H197     1.0000 0.78197  0.80313  0.36703  Biso   1.000  H
  C256     1.0000 0.80999  0.77915  0.31163  Biso   1.000  C
  H198     1.0000 0.82977  0.77963  0.33963  Biso   1.000  H
  C257     1.0000 0.80987  0.76403  0.25460  Biso   1.000  C
  C258     1.0000 0.78089  0.76500  0.21304  Biso   1.000  C
  H199     1.0000 0.78067  0.75583  0.17403  Biso   1.000  H
  C259     1.0000 0.75226  0.77970  0.22972  Biso   1.000  C
  H200     1.0000 0.73277  0.77983  0.20173  Biso   1.000  H
  C260     1.0000 0.83803  0.74519  0.23724  Biso   1.000  C
  C261     1.0000 0.81990  0.70735  0.20301  Biso   1.000  C
  H201     1.0000 0.79067  0.69483  0.19153  Biso   1.000  H
  H202     1.0000 0.94417  0.84363  0.23203  Biso   1.000  H
  H203     1.0000 0.96117  0.87763  0.32193  Biso   1.000  H
  O59      1.0000 0.36166  0.14164  0.59795  Biso   1.000  O
  O60      1.0000 0.38914  0.15529  0.69103  Biso   1.000  O
  C262     1.0000 0.38731  0.14277  0.63831  Biso   1.000  C
  C263     1.0000 0.41900  0.12733  0.62025  Biso   1.000  C
  C264     1.0000 0.44820  0.12696  0.66145  Biso   1.000  C
  H204     1.0000 0.44863  0.13647  0.70037  Biso   1.000  H
  C265     1.0000 0.47665  0.11249  0.64497  Biso   1.000  C
  H205     1.0000 0.49643  0.11297  0.67297  Biso   1.000  H
  C266     1.0000 0.47653  0.09737  0.58794  Biso   1.000  C
  C267     1.0000 0.44755  0.09834  0.54638  Biso   1.000  C
  H206     1.0000 0.44733  0.08917  0.50737  Biso   1.000  H
  C268     1.0000 0.41892  0.11304  0.56306  Biso   1.000  C
  H207     1.0000 0.39943  0.11317  0.53507  Biso   1.000  H
  C269     1.0000 0.50469  0.07853  0.57058  Biso   1.000  C
  C270     1.0000 0.48656  0.04069  0.53635  Biso   1.000  C
  H208     1.0000 0.45733  0.02817  0.52487  Biso   1.000  H
  H209     1.0000 0.61083  0.17697  0.56537  Biso   1.000  H
  H210     1.0000 0.62783  0.21097  0.65527  Biso   1.000  H
  O61      1.0000 0.44664  0.97167  0.93128  Biso   1.000  O
  O62      1.0000 0.43281  0.94419  0.02436  Biso   1.000  O
  C271     1.0000 0.42212  0.94602  0.97164  Biso   1.000  C
  C272     1.0000 0.37499  0.91433  0.95358  Biso   1.000  C
  C273     1.0000 0.34542  0.88513  0.99478  Biso   1.000  C
  H211     1.0000 0.35450  0.88470  0.03370  Biso   1.000  H
  C274     1.0000 0.30250  0.85668  0.97830  Biso   1.000  C
  H212     1.0000 0.28320  0.83690  0.00630  Biso   1.000  H
  C275     1.0000 0.28750  0.85680  0.92127  Biso   1.000  C
  C276     1.0000 0.31745  0.88578  0.87971  Biso   1.000  C
  H213     1.0000 0.30850  0.88600  0.84070  Biso   1.000  H
  C277     1.0000 0.36078  0.91441  0.89639  Biso   1.000  C
  H214     1.0000 0.38040  0.93390  0.86840  Biso   1.000  H
  C278     1.0000 0.24050  0.82864  0.90391  Biso   1.000  C
  C279     1.0000 0.22079  0.84677  0.86968  Biso   1.000  C
  H215     1.0000 0.23750  0.87600  0.85820  Biso   1.000  H
  H216     1.0000 0.23280  0.72250  0.89870  Biso   1.000  H
  H217     1.0000 0.24980  0.70550  0.98860  Biso   1.000  H
  O63      1.0000 0.11331  0.30500  0.26461  Biso   1.000  O
  O64      1.0000 0.09948  0.27752  0.35769  Biso   1.000  O
  C280     1.0000 0.08879  0.27935  0.30497  Biso   1.000  C
  C281     1.0000 0.04166  0.24766  0.28691  Biso   1.000  C
  C282     1.0000 0.01209  0.21846  0.32811  Biso   1.000  C
  H218     1.0000 0.02117  0.21803  0.36703  Biso   1.000  H
  C283     1.0000 0.96917  0.19001  0.31163  Biso   1.000  C
  H219     1.0000 0.94987  0.17023  0.33963  Biso   1.000  H
  C284     1.0000 0.95417  0.19013  0.25460  Biso   1.000  C
  C285     1.0000 0.98412  0.21911  0.21304  Biso   1.000  C
  H220     1.0000 0.97517  0.21933  0.17403  Biso   1.000  H
  C286     1.0000 0.02745  0.24774  0.22972  Biso   1.000  C
  H221     1.0000 0.04707  0.26723  0.20173  Biso   1.000  H
  C287     1.0000 0.90717  0.16197  0.23724  Biso   1.000  C
  C288     1.0000 0.88746  0.18010  0.20301  Biso   1.000  C
  H222     1.0000 0.90417  0.20933  0.19153  Biso   1.000  H
  H223     1.0000 0.89947  0.05583  0.23203  Biso   1.000  H
  H224     1.0000 0.91647  0.03883  0.32193  Biso   1.000  H
  O65      1.0000 0.77997  0.63834  0.59795  Biso   1.000  O
  O66      1.0000 0.76614  0.61086  0.69103  Biso   1.000  O
  C289     1.0000 0.75545  0.61269  0.63831  Biso   1.000  C
  C290     1.0000 0.70832  0.58100  0.62025  Biso   1.000  C
  C291     1.0000 0.67875  0.55180  0.66145  Biso   1.000  C
  H225     1.0000 0.68783  0.55137  0.70037  Biso   1.000  H
  C292     1.0000 0.63583  0.52335  0.64497  Biso   1.000  C
  H226     1.0000 0.61653  0.50357  0.67297  Biso   1.000  H
  C293     1.0000 0.62083  0.52347  0.58794  Biso   1.000  C
  C294     1.0000 0.65078  0.55245  0.54638  Biso   1.000  C
  H227     1.0000 0.64183  0.55267  0.50737  Biso   1.000  H
  C295     1.0000 0.69411  0.58108  0.56306  Biso   1.000  C
  H228     1.0000 0.71373  0.60057  0.53507  Biso   1.000  H
  C296     1.0000 0.57383  0.49531  0.57058  Biso   1.000  C
  C297     1.0000 0.55412  0.51344  0.53635  Biso   1.000  C
  H229     1.0000 0.57083  0.54267  0.52487  Biso   1.000  H
  H230     1.0000 0.56613  0.38917  0.56537  Biso   1.000  H
  H231     1.0000 0.58313  0.37217  0.65527  Biso   1.000  H
  O67      1.0000 0.52503  0.55336  0.93128  Biso   1.000  O
  O68      1.0000 0.51138  0.56719  0.02436  Biso   1.000  O
  C298     1.0000 0.52390  0.57788  0.97164  Biso   1.000  C
  C299     1.0000 0.53934  0.62501  0.95358  Biso   1.000  C
  C300     1.0000 0.53971  0.65458  0.99478  Biso   1.000  C
  H232     1.0000 0.53020  0.64550  0.03370  Biso   1.000  H
  C301     1.0000 0.55418  0.69750  0.97830  Biso   1.000  C
  H233     1.0000 0.55370  0.71680  0.00630  Biso   1.000  H
  C302     1.0000 0.56930  0.71250  0.92127  Biso   1.000  C
  C303     1.0000 0.56833  0.68255  0.87971  Biso   1.000  C
  H234     1.0000 0.57750  0.69150  0.84070  Biso   1.000  H
  C304     1.0000 0.55363  0.63922  0.89639  Biso   1.000  C
  H235     1.0000 0.55350  0.61960  0.86840  Biso   1.000  H
  C305     1.0000 0.58814  0.75950  0.90391  Biso   1.000  C
  C306     1.0000 0.62598  0.77921  0.86968  Biso   1.000  C
  H236     1.0000 0.63850  0.76250  0.85820  Biso   1.000  H
  H237     1.0000 0.48970  0.76720  0.89870  Biso   1.000  H
  H238     1.0000 0.45570  0.75020  0.98860  Biso   1.000  H
  O69      1.0000 0.19170  0.88669  0.26461  Biso   1.000  O
  O70      1.0000 0.17805  0.90052  0.35769  Biso   1.000  O
  C307     1.0000 0.19057  0.91121  0.30497  Biso   1.000  C
  C308     1.0000 0.20601  0.95834  0.28691  Biso   1.000  C
  C309     1.0000 0.20638  0.98791  0.32811  Biso   1.000  C
  H239     1.0000 0.19687  0.97883  0.36703  Biso   1.000  H
  C310     1.0000 0.22085  0.03083  0.31163  Biso   1.000  C
  H240     1.0000 0.22037  0.05013  0.33963  Biso   1.000  H
  C311     1.0000 0.23597  0.04583  0.25460  Biso   1.000  C
  C312     1.0000 0.23500  0.01588  0.21304  Biso   1.000  C
  H241     1.0000 0.24417  0.02483  0.17403  Biso   1.000  H
  C313     1.0000 0.22030  0.97255  0.22972  Biso   1.000  C
  H242     1.0000 0.22017  0.95293  0.20173  Biso   1.000  H
  C314     1.0000 0.25481  0.09283  0.23724  Biso   1.000  C
  C315     1.0000 0.29265  0.11254  0.20301  Biso   1.000  C
  H243     1.0000 0.30517  0.09583  0.19153  Biso   1.000  H
  H244     1.0000 0.15637  0.10053  0.23203  Biso   1.000  H
  H245     1.0000 0.12237  0.08353  0.32193  Biso   1.000  H
  O71      1.0000 0.85836  0.22003  0.59795  Biso   1.000  O
  O72      1.0000 0.84471  0.23386  0.69103  Biso   1.000  O
  C316     1.0000 0.85723  0.24455  0.63831  Biso   1.000  C
  C317     1.0000 0.87267  0.29168  0.62025  Biso   1.000  C
  C318     1.0000 0.87304  0.32125  0.66145  Biso   1.000  C
  H246     1.0000 0.86353  0.31217  0.70037  Biso   1.000  H
  C319     1.0000 0.88751  0.36417  0.64497  Biso   1.000  C
  H247     1.0000 0.88703  0.38347  0.67297  Biso   1.000  H
  C320     1.0000 0.90263  0.37917  0.58794  Biso   1.000  C
  C321     1.0000 0.90166  0.34922  0.54638  Biso   1.000  C
  H248     1.0000 0.91083  0.35817  0.50737  Biso   1.000  H
  C322     1.0000 0.88696  0.30589  0.56306  Biso   1.000  C
  H249     1.0000 0.88683  0.28627  0.53507  Biso   1.000  H
  C323     1.0000 0.92147  0.42617  0.57058  Biso   1.000  C
  C324     1.0000 0.95931  0.44588  0.53635  Biso   1.000  C
  H250     1.0000 0.97183  0.42917  0.52487  Biso   1.000  H
  H251     1.0000 0.82303  0.43387  0.56537  Biso   1.000  H
  H252     1.0000 0.78903  0.41687  0.65527  Biso   1.000  H
  Cu1      1.0000 0.50807  0.01614  0.94554  Biso   1.000  Cu
  Cu2      1.0000 0.17474  0.34947  0.27887  Biso   1.000  Cu
  Cu3      1.0000 0.84140  0.68281  0.61221  Biso   1.000  Cu
  Cu4      1.0000 0.98386  0.49193  0.94554  Biso   1.000  Cu
  Cu5      1.0000 0.65053  0.82526  0.27887  Biso   1.000  Cu
  Cu6      1.0000 0.31719  0.15860  0.61221  Biso   1.000  Cu
  Cu7      1.0000 0.50807  0.49193  0.94554  Biso   1.000  Cu
  Cu8      1.0000 0.17474  0.82526  0.27887  Biso   1.000  Cu
  Cu9      1.0000 0.84140  0.15860  0.61221  Biso   1.000  Cu
  Cu10     1.0000 0.01614  0.50807  0.05446  Biso   1.000  Cu
  Cu11     1.0000 0.68281  0.84140  0.38779  Biso   1.000  Cu
  Cu12     1.0000 0.34947  0.17474  0.72113  Biso   1.000  Cu
  Cu13     1.0000 0.49193  0.98386  0.05446  Biso   1.000  Cu
  Cu14     1.0000 0.15860  0.31719  0.38779  Biso   1.000  Cu
  Cu15     1.0000 0.82526  0.65053  0.72113  Biso   1.000  Cu
  Cu16     1.0000 0.49193  0.50807  0.05446  Biso   1.000  Cu
  Cu17     1.0000 0.15860  0.84140  0.38779  Biso   1.000  Cu
  Cu18     1.0000 0.82526  0.17474  0.72113  Biso   1.000  Cu
  O73      1.0000 0.53087  0.76544  0.95523  Biso   1.000  O
  C325     1.0000 0.64636  0.82318  0.85148  Biso   1.000  C
  C326     1.0000 0.56897  0.78449  0.92060  Biso   1.000  C
  C327     1.0000 0.49110  0.74555  0.92410  Biso   1.000  C
  C328     1.0000 0.45460  0.72730  0.96390  Biso   1.000  C
  H253     1.0000 0.42780  0.71390  0.94130  Biso   1.000  H
  O74      1.0000 0.19754  0.09877  0.28856  Biso   1.000  O
  C329     1.0000 0.31303  0.15651  0.18481  Biso   1.000  C
  C330     1.0000 0.23564  0.11782  0.25393  Biso   1.000  C
  C331     1.0000 0.15777  0.07888  0.25743  Biso   1.000  C
  C332     1.0000 0.12127  0.06063  0.29723  Biso   1.000  C
  H254     1.0000 0.09447  0.04723  0.27463  Biso   1.000  H
  O75      1.0000 0.86420  0.43210  0.62190  Biso   1.000  O
  C333     1.0000 0.97969  0.48985  0.51815  Biso   1.000  C
  C334     1.0000 0.90230  0.45115  0.58727  Biso   1.000  C
  C335     1.0000 0.82443  0.41222  0.59077  Biso   1.000  C
  C336     1.0000 0.78793  0.39397  0.63057  Biso   1.000  C
  H255     1.0000 0.76113  0.38057  0.60797  Biso   1.000  H
  O76      1.0000 0.23456  0.76544  0.95523  Biso   1.000  O
  C337     1.0000 0.17682  0.82318  0.85148  Biso   1.000  C
  C338     1.0000 0.21551  0.78449  0.92060  Biso   1.000  C
  C339     1.0000 0.25445  0.74555  0.92410  Biso   1.000  C
  C340     1.0000 0.27270  0.72730  0.96390  Biso   1.000  C
  H256     1.0000 0.28610  0.71390  0.94130  Biso   1.000  H
  O77      1.0000 0.90123  0.09877  0.28856  Biso   1.000  O
  C341     1.0000 0.84349  0.15651  0.18481  Biso   1.000  C
  C342     1.0000 0.88218  0.11782  0.25393  Biso   1.000  C
  C343     1.0000 0.92112  0.07888  0.25743  Biso   1.000  C
  C344     1.0000 0.93937  0.06063  0.29723  Biso   1.000  C
  H257     1.0000 0.95277  0.04723  0.27463  Biso   1.000  H
  O78      1.0000 0.56790  0.43210  0.62190  Biso   1.000  O
  C345     1.0000 0.51015  0.48985  0.51815  Biso   1.000  C
  C346     1.0000 0.54885  0.45115  0.58727  Biso   1.000  C
  C347     1.0000 0.58778  0.41222  0.59077  Biso   1.000  C
  C348     1.0000 0.60603  0.39397  0.63057  Biso   1.000  C
  H258     1.0000 0.61943  0.38057  0.60797  Biso   1.000  H
  O79      1.0000 0.23456  0.46913  0.95523  Biso   1.000  O
  C349     1.0000 0.17682  0.35364  0.85148  Biso   1.000  C
  C350     1.0000 0.21551  0.43103  0.92060  Biso   1.000  C
  C351     1.0000 0.25445  0.50890  0.92410  Biso   1.000  C
  C352     1.0000 0.27270  0.54540  0.96390  Biso   1.000  C
  H259     1.0000 0.28610  0.57220  0.94130  Biso   1.000  H
  O80      1.0000 0.90123  0.80246  0.28856  Biso   1.000  O
  C353     1.0000 0.84349  0.68697  0.18481  Biso   1.000  C
  C354     1.0000 0.88218  0.76436  0.25393  Biso   1.000  C
  C355     1.0000 0.92112  0.84223  0.25743  Biso   1.000  C
  C356     1.0000 0.93937  0.87873  0.29723  Biso   1.000  C
  H260     1.0000 0.95277  0.90553  0.27463  Biso   1.000  H
  O81      1.0000 0.56790  0.13580  0.62190  Biso   1.000  O
  C357     1.0000 0.51015  0.02031  0.51815  Biso   1.000  C
  C358     1.0000 0.54885  0.09770  0.58727  Biso   1.000  C
  C359     1.0000 0.58778  0.17557  0.59077  Biso   1.000  C
  C360     1.0000 0.60603  0.21207  0.63057  Biso   1.000  C
  H261     1.0000 0.61943  0.23887  0.60797  Biso   1.000  H
  O82      1.0000 0.76543  0.53087  0.04477  Biso   1.000  O
  C361     1.0000 0.82318  0.64636  0.14852  Biso   1.000  C
  C362     1.0000 0.78448  0.56897  0.07940  Biso   1.000  C
  C363     1.0000 0.74555  0.49110  0.07590  Biso   1.000  C
  C364     1.0000 0.72730  0.45460  0.03610  Biso   1.000  C
  H262     1.0000 0.71390  0.42780  0.05870  Biso   1.000  H
  O83      1.0000 0.43210  0.86420  0.37810  Biso   1.000  O
  C365     1.0000 0.48985  0.97969  0.48185  Biso   1.000  C
  C366     1.0000 0.45115  0.90230  0.41273  Biso   1.000  C
  C367     1.0000 0.41222  0.82443  0.40923  Biso   1.000  C
  C368     1.0000 0.39397  0.78793  0.36943  Biso   1.000  C
  H263     1.0000 0.38057  0.76113  0.39203  Biso   1.000  H
  O84      1.0000 0.09877  0.19754  0.71144  Biso   1.000  O
  C369     1.0000 0.15651  0.31303  0.81519  Biso   1.000  C
  C370     1.0000 0.11782  0.23564  0.74607  Biso   1.000  C
  C371     1.0000 0.07888  0.15777  0.74257  Biso   1.000  C
  C372     1.0000 0.06063  0.12127  0.70277  Biso   1.000  C
  H264     1.0000 0.04723  0.09447  0.72537  Biso   1.000  H
  O85      1.0000 0.76544  0.23456  0.04477  Biso   1.000  O
  C373     1.0000 0.82318  0.17682  0.14852  Biso   1.000  C
  C374     1.0000 0.78449  0.21551  0.07940  Biso   1.000  C
  C375     1.0000 0.74555  0.25445  0.07590  Biso   1.000  C
  C376     1.0000 0.72730  0.27270  0.03610  Biso   1.000  C
  H265     1.0000 0.71390  0.28610  0.05870  Biso   1.000  H
  O86      1.0000 0.43210  0.56790  0.37810  Biso   1.000  O
  C377     1.0000 0.48985  0.51015  0.48185  Biso   1.000  C
  C378     1.0000 0.45115  0.54885  0.41273  Biso   1.000  C
  C379     1.0000 0.41222  0.58778  0.40923  Biso   1.000  C
  C380     1.0000 0.39397  0.60603  0.36943  Biso   1.000  C
  H266     1.0000 0.38057  0.61943  0.39203  Biso   1.000  H
  O87      1.0000 0.09877  0.90123  0.71144  Biso   1.000  O
  C381     1.0000 0.15651  0.84349  0.81519  Biso   1.000  C
  C382     1.0000 0.11782  0.88218  0.74607  Biso   1.000  C
  C383     1.0000 0.07888  0.92112  0.74257  Biso   1.000  C
  C384     1.0000 0.06063  0.93937  0.70277  Biso   1.000  C
  H267     1.0000 0.04723  0.95277  0.72537  Biso   1.000  H
  O88      1.0000 0.46913  0.23456  0.04477  Biso   1.000  O
  C385     1.0000 0.35364  0.17682  0.14852  Biso   1.000  C
  C386     1.0000 0.43103  0.21551  0.07940  Biso   1.000  C
  C387     1.0000 0.50890  0.25445  0.07590  Biso   1.000  C
  C388     1.0000 0.54540  0.27270  0.03610  Biso   1.000  C
  H268     1.0000 0.57220  0.28610  0.05870  Biso   1.000  H
  O89      1.0000 0.13580  0.56790  0.37810  Biso   1.000  O
  C389     1.0000 0.02031  0.51015  0.48185  Biso   1.000  C
  C390     1.0000 0.09770  0.54885  0.41273  Biso   1.000  C
  C391     1.0000 0.17557  0.58778  0.40923  Biso   1.000  C
  C392     1.0000 0.21207  0.60603  0.36943  Biso   1.000  C
  H269     1.0000 0.23887  0.61943  0.39203  Biso   1.000  H
  O90      1.0000 0.80246  0.90123  0.71144  Biso   1.000  O
  C393     1.0000 0.68697  0.84349  0.81519  Biso   1.000  C
  C394     1.0000 0.76436  0.88218  0.74607  Biso   1.000  C
  C395     1.0000 0.84223  0.92112  0.74257  Biso   1.000  C
  C396     1.0000 0.87873  0.93937  0.70277  Biso   1.000  C
  H270     1.0000 0.90553  0.95277  0.72537  Biso   1.000  H
