data_image0
_cell_length_a       35.2935
_cell_length_b       35.2935
_cell_length_c       20.4398
_cell_angle_alpha    90
_cell_angle_beta     90
_cell_angle_gamma    120

_symmetry_space_group_name_H-M    "P 1"
_symmetry_int_tables_number       1

loop_
  _symmetry_equiv_pos_as_xyz
  'x, y, z'

loop_
  _atom_site_label
  _atom_site_occupancy
  _atom_site_fract_x
  _atom_site_fract_y
  _atom_site_fract_z
  _atom_site_thermal_displace_type
  _atom_site_B_iso_or_equiv
  _atom_site_type_symbol
  O1       1.0000 0.36262  0.22023  0.59113  Biso   1.000  O
  O2       1.0000 0.38856  0.23327  0.69434  Biso   1.000  O
  C1       1.0000 0.38775  0.24434  0.63593  Biso   1.000  C
  C2       1.0000 0.42001  0.29097  0.61721  Biso   1.000  C
  C3       1.0000 0.44829  0.31966  0.66525  Biso   1.000  C
  H1       1.0000 0.44750  0.30970  0.70870  Biso   1.000  H
  C4       1.0000 0.47759  0.36296  0.64818  Biso   1.000  C
  H2       1.0000 0.49710  0.38250  0.68020  Biso   1.000  H
  C5       1.0000 0.47857  0.37783  0.58537  Biso   1.000  C
  C6       1.0000 0.45058  0.34834  0.53796  Biso   1.000  C
  H3       1.0000 0.45170  0.35790  0.49420  Biso   1.000  H
  C7       1.0000 0.42138  0.30543  0.55482  Biso   1.000  C
  H4       1.0000 0.40210  0.28580  0.52270  Biso   1.000  H
  C8       1.0000 0.50604  0.42523  0.56843  Biso   1.000  C
  C9       1.0000 0.48747  0.44508  0.53446  Biso   1.000  C
  H5       1.0000 0.45750  0.42810  0.52250  Biso   1.000  H
  H6       1.0000 0.61140  0.43400  0.54990  Biso   1.000  H
  O3       1.0000 0.02929  0.55356  0.92446  Biso   1.000  O
  O4       1.0000 0.05523  0.56660  0.02767  Biso   1.000  O
  C10      1.0000 0.05442  0.57767  0.96926  Biso   1.000  C
  C11      1.0000 0.08668  0.62430  0.95054  Biso   1.000  C
  C12      1.0000 0.11496  0.65299  0.99858  Biso   1.000  C
  H7       1.0000 0.11417  0.64303  0.04203  Biso   1.000  H
  C13      1.0000 0.14426  0.69629  0.98151  Biso   1.000  C
  H8       1.0000 0.16377  0.71583  0.01353  Biso   1.000  H
  C14      1.0000 0.14524  0.71116  0.91870  Biso   1.000  C
  C15      1.0000 0.11725  0.68167  0.87129  Biso   1.000  C
  H9       1.0000 0.11837  0.69123  0.82753  Biso   1.000  H
  C16      1.0000 0.08805  0.63876  0.88815  Biso   1.000  C
  H10      1.0000 0.06877  0.61913  0.85603  Biso   1.000  H
  C17      1.0000 0.17271  0.75856  0.90176  Biso   1.000  C
  C18      1.0000 0.15414  0.77841  0.86779  Biso   1.000  C
  H11      1.0000 0.12417  0.76143  0.85583  Biso   1.000  H
  H12      1.0000 0.27807  0.76733  0.88323  Biso   1.000  H
  O5       1.0000 0.69595  0.88690  0.25780  Biso   1.000  O
  O6       1.0000 0.72189  0.89994  0.36101  Biso   1.000  O
  C19      1.0000 0.72108  0.91101  0.30260  Biso   1.000  C
  C20      1.0000 0.75334  0.95764  0.28388  Biso   1.000  C
  C21      1.0000 0.78162  0.98633  0.33192  Biso   1.000  C
  H13      1.0000 0.78083  0.97637  0.37537  Biso   1.000  H
  C22      1.0000 0.81092  0.02963  0.31485  Biso   1.000  C
  H14      1.0000 0.83043  0.04917  0.34687  Biso   1.000  H
  C23      1.0000 0.81190  0.04450  0.25204  Biso   1.000  C
  C24      1.0000 0.78391  0.01501  0.20463  Biso   1.000  C
  H15      1.0000 0.78503  0.02457  0.16087  Biso   1.000  H
  C25      1.0000 0.75471  0.97210  0.22149  Biso   1.000  C
  H16      1.0000 0.73543  0.95247  0.18937  Biso   1.000  H
  C26      1.0000 0.83937  0.09190  0.23510  Biso   1.000  C
  C27      1.0000 0.82080  0.11175  0.20113  Biso   1.000  C
  H17      1.0000 0.79083  0.09477  0.18917  Biso   1.000  H
  H18      1.0000 0.94473  0.10067  0.21657  Biso   1.000  H
  O7       1.0000 0.77977  0.14239  0.59113  Biso   1.000  O
  O8       1.0000 0.76673  0.15529  0.69434  Biso   1.000  O
  C28      1.0000 0.75566  0.14341  0.63593  Biso   1.000  C
  C29      1.0000 0.70903  0.12904  0.61721  Biso   1.000  C
  C30      1.0000 0.68034  0.12863  0.66525  Biso   1.000  C
  H19      1.0000 0.69030  0.13780  0.70870  Biso   1.000  H
  C31      1.0000 0.63704  0.11463  0.64818  Biso   1.000  C
  H20      1.0000 0.61750  0.11460  0.68020  Biso   1.000  H
  C32      1.0000 0.62217  0.10074  0.58537  Biso   1.000  C
  C33      1.0000 0.65166  0.10224  0.53796  Biso   1.000  C
  H21      1.0000 0.64210  0.09380  0.49420  Biso   1.000  H
  C34      1.0000 0.69457  0.11595  0.55482  Biso   1.000  C
  H22      1.0000 0.71420  0.11630  0.52270  Biso   1.000  H
  C35      1.0000 0.57477  0.08081  0.56843  Biso   1.000  C
  C36      1.0000 0.55492  0.04239  0.53446  Biso   1.000  C
  H23      1.0000 0.57190  0.02940  0.52250  Biso   1.000  H
  H24      1.0000 0.56600  0.17740  0.54990  Biso   1.000  H
  O9       1.0000 0.44644  0.47572  0.92446  Biso   1.000  O
  O10      1.0000 0.43340  0.48862  0.02767  Biso   1.000  O
  C37      1.0000 0.42233  0.47674  0.96926  Biso   1.000  C
  C38      1.0000 0.37570  0.46237  0.95054  Biso   1.000  C
  C39      1.0000 0.34701  0.46196  0.99858  Biso   1.000  C
  H25      1.0000 0.35697  0.47113  0.04203  Biso   1.000  H
  C40      1.0000 0.30371  0.44796  0.98151  Biso   1.000  C
  H26      1.0000 0.28417  0.44793  0.01353  Biso   1.000  H
  C41      1.0000 0.28884  0.43407  0.91870  Biso   1.000  C
  C42      1.0000 0.31833  0.43557  0.87129  Biso   1.000  C
  H27      1.0000 0.30877  0.42713  0.82753  Biso   1.000  H
  C43      1.0000 0.36124  0.44928  0.88815  Biso   1.000  C
  H28      1.0000 0.38087  0.44963  0.85603  Biso   1.000  H
  C44      1.0000 0.24144  0.41414  0.90176  Biso   1.000  C
  C45      1.0000 0.22159  0.37572  0.86779  Biso   1.000  C
  H29      1.0000 0.23857  0.36273  0.85583  Biso   1.000  H
  H30      1.0000 0.23267  0.51073  0.88323  Biso   1.000  H
  O11      1.0000 0.11310  0.80906  0.25780  Biso   1.000  O
  O12      1.0000 0.10006  0.82196  0.36101  Biso   1.000  O
  C46      1.0000 0.08899  0.81008  0.30260  Biso   1.000  C
  C47      1.0000 0.04236  0.79571  0.28388  Biso   1.000  C
  C48      1.0000 0.01367  0.79530  0.33192  Biso   1.000  C
  H31      1.0000 0.02363  0.80447  0.37537  Biso   1.000  H
  C49      1.0000 0.97037  0.78130  0.31485  Biso   1.000  C
  H32      1.0000 0.95083  0.78127  0.34687  Biso   1.000  H
  C50      1.0000 0.95550  0.76741  0.25204  Biso   1.000  C
  C51      1.0000 0.98499  0.76891  0.20463  Biso   1.000  C
  H33      1.0000 0.97543  0.76047  0.16087  Biso   1.000  H
  C52      1.0000 0.02790  0.78262  0.22149  Biso   1.000  C
  H34      1.0000 0.04753  0.78297  0.18937  Biso   1.000  H
  C53      1.0000 0.90810  0.74748  0.23510  Biso   1.000  C
  C54      1.0000 0.88825  0.70906  0.20113  Biso   1.000  C
  H35      1.0000 0.90523  0.69607  0.18917  Biso   1.000  H
  H36      1.0000 0.89933  0.84407  0.21657  Biso   1.000  H
  O13      1.0000 0.85761  0.63738  0.59113  Biso   1.000  O
  O14      1.0000 0.84471  0.61144  0.69434  Biso   1.000  O
  C55      1.0000 0.85659  0.61225  0.63593  Biso   1.000  C
  C56      1.0000 0.87096  0.57999  0.61721  Biso   1.000  C
  C57      1.0000 0.87137  0.55171  0.66525  Biso   1.000  C
  H37      1.0000 0.86220  0.55250  0.70870  Biso   1.000  H
  C58      1.0000 0.88537  0.52241  0.64818  Biso   1.000  C
  H38      1.0000 0.88540  0.50290  0.68020  Biso   1.000  H
  C59      1.0000 0.89926  0.52143  0.58537  Biso   1.000  C
  C60      1.0000 0.89776  0.54942  0.53796  Biso   1.000  C
  H39      1.0000 0.90620  0.54830  0.49420  Biso   1.000  H
  C61      1.0000 0.88405  0.57862  0.55482  Biso   1.000  C
  H40      1.0000 0.88370  0.59790  0.52270  Biso   1.000  H
  C62      1.0000 0.91919  0.49396  0.56843  Biso   1.000  C
  C63      1.0000 0.95761  0.51253  0.53446  Biso   1.000  C
  H41      1.0000 0.97060  0.54250  0.52250  Biso   1.000  H
  H42      1.0000 0.82260  0.38860  0.54990  Biso   1.000  H
  O15      1.0000 0.52428  0.97071  0.92446  Biso   1.000  O
  O16      1.0000 0.51138  0.94477  0.02767  Biso   1.000  O
  C64      1.0000 0.52326  0.94558  0.96926  Biso   1.000  C
  C65      1.0000 0.53763  0.91332  0.95054  Biso   1.000  C
  C66      1.0000 0.53804  0.88504  0.99858  Biso   1.000  C
  H43      1.0000 0.52887  0.88583  0.04203  Biso   1.000  H
  C67      1.0000 0.55204  0.85574  0.98151  Biso   1.000  C
  H44      1.0000 0.55207  0.83623  0.01353  Biso   1.000  H
  C68      1.0000 0.56593  0.85476  0.91870  Biso   1.000  C
  C69      1.0000 0.56443  0.88275  0.87129  Biso   1.000  C
  H45      1.0000 0.57287  0.88163  0.82753  Biso   1.000  H
  C70      1.0000 0.55072  0.91195  0.88815  Biso   1.000  C
  H46      1.0000 0.55037  0.93123  0.85603  Biso   1.000  H
  C71      1.0000 0.58586  0.82729  0.90176  Biso   1.000  C
  C72      1.0000 0.62428  0.84586  0.86779  Biso   1.000  C
  H47      1.0000 0.63727  0.87583  0.85583  Biso   1.000  H
  H48      1.0000 0.48927  0.72193  0.88323  Biso   1.000  H
  O17      1.0000 0.19094  0.30405  0.25780  Biso   1.000  O
  O18      1.0000 0.17804  0.27811  0.36101  Biso   1.000  O
  C73      1.0000 0.18992  0.27892  0.30260  Biso   1.000  C
  C74      1.0000 0.20429  0.24666  0.28388  Biso   1.000  C
  C75      1.0000 0.20470  0.21838  0.33192  Biso   1.000  C
  H49      1.0000 0.19553  0.21917  0.37537  Biso   1.000  H
  C76      1.0000 0.21870  0.18908  0.31485  Biso   1.000  C
  H50      1.0000 0.21873  0.16957  0.34687  Biso   1.000  H
  C77      1.0000 0.23259  0.18810  0.25204  Biso   1.000  C
  C78      1.0000 0.23109  0.21609  0.20463  Biso   1.000  C
  H51      1.0000 0.23953  0.21497  0.16087  Biso   1.000  H
  C79      1.0000 0.21738  0.24529  0.22149  Biso   1.000  C
  H52      1.0000 0.21703  0.26457  0.18937  Biso   1.000  H
  C80      1.0000 0.25252  0.16063  0.23510  Biso   1.000  C
  C81      1.0000 0.29094  0.17920  0.20113  Biso   1.000  C
  H53      1.0000 0.30393  0.20917  0.18917  Biso   1.000  H
  H54      1.0000 0.15593  0.05527  0.21657  Biso   1.000  H
  O19      1.0000 0.22023  0.36262  0.40887  Biso   1.000  O
  O20      1.0000 0.23327  0.38856  0.30566  Biso   1.000  O
  C82      1.0000 0.24434  0.38775  0.36407  Biso   1.000  C
  C83      1.0000 0.29097  0.42001  0.38279  Biso   1.000  C
  C84      1.0000 0.31966  0.44829  0.33475  Biso   1.000  C
  H55      1.0000 0.30970  0.44750  0.29130  Biso   1.000  H
  C85      1.0000 0.36296  0.47759  0.35182  Biso   1.000  C
  H56      1.0000 0.38250  0.49710  0.31980  Biso   1.000  H
  C86      1.0000 0.37783  0.47857  0.41463  Biso   1.000  C
  C87      1.0000 0.34834  0.45058  0.46204  Biso   1.000  C
  H57      1.0000 0.35790  0.45170  0.50580  Biso   1.000  H
  C88      1.0000 0.30543  0.42138  0.44518  Biso   1.000  C
  H58      1.0000 0.28580  0.40210  0.47730  Biso   1.000  H
  C89      1.0000 0.42523  0.50604  0.43157  Biso   1.000  C
  C90      1.0000 0.44508  0.48747  0.46554  Biso   1.000  C
  H59      1.0000 0.42810  0.45750  0.47750  Biso   1.000  H
  H60      1.0000 0.43400  0.61140  0.45010  Biso   1.000  H
  O21      1.0000 0.88690  0.69595  0.74220  Biso   1.000  O
  O22      1.0000 0.89994  0.72189  0.63899  Biso   1.000  O
  C91      1.0000 0.91101  0.72108  0.69740  Biso   1.000  C
  C92      1.0000 0.95764  0.75334  0.71612  Biso   1.000  C
  C93      1.0000 0.98633  0.78162  0.66808  Biso   1.000  C
  H61      1.0000 0.97637  0.78083  0.62463  Biso   1.000  H
  C94      1.0000 0.02963  0.81092  0.68515  Biso   1.000  C
  H62      1.0000 0.04917  0.83043  0.65313  Biso   1.000  H
  C95      1.0000 0.04450  0.81190  0.74796  Biso   1.000  C
  C96      1.0000 0.01501  0.78391  0.79537  Biso   1.000  C
  H63      1.0000 0.02457  0.78503  0.83913  Biso   1.000  H
  C97      1.0000 0.97210  0.75471  0.77851  Biso   1.000  C
  H64      1.0000 0.95247  0.73543  0.81063  Biso   1.000  H
  C98      1.0000 0.09190  0.83937  0.76490  Biso   1.000  C
  C99      1.0000 0.11175  0.82080  0.79887  Biso   1.000  C
  H65      1.0000 0.09477  0.79083  0.81083  Biso   1.000  H
  H66      1.0000 0.10067  0.94473  0.78343  Biso   1.000  H
  O23      1.0000 0.55356  0.02929  0.07554  Biso   1.000  O
  O24      1.0000 0.56660  0.05523  0.97233  Biso   1.000  O
  C100     1.0000 0.57767  0.05442  0.03074  Biso   1.000  C
  C101     1.0000 0.62430  0.08668  0.04946  Biso   1.000  C
  C102     1.0000 0.65299  0.11496  0.00142  Biso   1.000  C
  H67      1.0000 0.64303  0.11417  0.95797  Biso   1.000  H
  C103     1.0000 0.69629  0.14426  0.01849  Biso   1.000  C
  H68      1.0000 0.71583  0.16377  0.98647  Biso   1.000  H
  C104     1.0000 0.71116  0.14524  0.08130  Biso   1.000  C
  C105     1.0000 0.68167  0.11725  0.12871  Biso   1.000  C
  H69      1.0000 0.69123  0.11837  0.17247  Biso   1.000  H
  C106     1.0000 0.63876  0.08805  0.11185  Biso   1.000  C
  H70      1.0000 0.61913  0.06877  0.14397  Biso   1.000  H
  C107     1.0000 0.75856  0.17271  0.09824  Biso   1.000  C
  C108     1.0000 0.77841  0.15414  0.13221  Biso   1.000  C
  H71      1.0000 0.76143  0.12417  0.14417  Biso   1.000  H
  H72      1.0000 0.76733  0.27807  0.11677  Biso   1.000  H
  O25      1.0000 0.14239  0.77977  0.40887  Biso   1.000  O
  O26      1.0000 0.15529  0.76673  0.30566  Biso   1.000  O
  C109     1.0000 0.14341  0.75566  0.36407  Biso   1.000  C
  C110     1.0000 0.12904  0.70903  0.38279  Biso   1.000  C
  C111     1.0000 0.12863  0.68034  0.33475  Biso   1.000  C
  H73      1.0000 0.13780  0.69030  0.29130  Biso   1.000  H
  C112     1.0000 0.11463  0.63704  0.35182  Biso   1.000  C
  H74      1.0000 0.11460  0.61750  0.31980  Biso   1.000  H
  C113     1.0000 0.10074  0.62217  0.41463  Biso   1.000  C
  C114     1.0000 0.10224  0.65166  0.46204  Biso   1.000  C
  H75      1.0000 0.09380  0.64210  0.50580  Biso   1.000  H
  C115     1.0000 0.11595  0.69457  0.44518  Biso   1.000  C
  H76      1.0000 0.11630  0.71420  0.47730  Biso   1.000  H
  C116     1.0000 0.08081  0.57477  0.43157  Biso   1.000  C
  C117     1.0000 0.04239  0.55492  0.46554  Biso   1.000  C
  H77      1.0000 0.02940  0.57190  0.47750  Biso   1.000  H
  H78      1.0000 0.17740  0.56600  0.45010  Biso   1.000  H
  O27      1.0000 0.80906  0.11310  0.74220  Biso   1.000  O
  O28      1.0000 0.82196  0.10006  0.63899  Biso   1.000  O
  C118     1.0000 0.81008  0.08899  0.69740  Biso   1.000  C
  C119     1.0000 0.79571  0.04236  0.71612  Biso   1.000  C
  C120     1.0000 0.79530  0.01367  0.66808  Biso   1.000  C
  H79      1.0000 0.80447  0.02363  0.62463  Biso   1.000  H
  C121     1.0000 0.78130  0.97037  0.68515  Biso   1.000  C
  H80      1.0000 0.78127  0.95083  0.65313  Biso   1.000  H
  C122     1.0000 0.76741  0.95550  0.74796  Biso   1.000  C
  C123     1.0000 0.76891  0.98499  0.79537  Biso   1.000  C
  H81      1.0000 0.76047  0.97543  0.83913  Biso   1.000  H
  C124     1.0000 0.78262  0.02790  0.77851  Biso   1.000  C
  H82      1.0000 0.78297  0.04753  0.81063  Biso   1.000  H
  C125     1.0000 0.74748  0.90810  0.76490  Biso   1.000  C
  C126     1.0000 0.70906  0.88825  0.79887  Biso   1.000  C
  H83      1.0000 0.69607  0.90523  0.81083  Biso   1.000  H
  H84      1.0000 0.84407  0.89933  0.78343  Biso   1.000  H
  O29      1.0000 0.47572  0.44644  0.07554  Biso   1.000  O
  O30      1.0000 0.48862  0.43340  0.97233  Biso   1.000  O
  C127     1.0000 0.47674  0.42233  0.03074  Biso   1.000  C
  C128     1.0000 0.46237  0.37570  0.04946  Biso   1.000  C
  C129     1.0000 0.46196  0.34701  0.00142  Biso   1.000  C
  H85      1.0000 0.47113  0.35697  0.95797  Biso   1.000  H
  C130     1.0000 0.44796  0.30371  0.01849  Biso   1.000  C
  H86      1.0000 0.44793  0.28417  0.98647  Biso   1.000  H
  C131     1.0000 0.43407  0.28884  0.08130  Biso   1.000  C
  C132     1.0000 0.43557  0.31833  0.12871  Biso   1.000  C
  H87      1.0000 0.42713  0.30877  0.17247  Biso   1.000  H
  C133     1.0000 0.44928  0.36124  0.11185  Biso   1.000  C
  H88      1.0000 0.44963  0.38087  0.14397  Biso   1.000  H
  C134     1.0000 0.41414  0.24144  0.09824  Biso   1.000  C
  C135     1.0000 0.37572  0.22159  0.13221  Biso   1.000  C
  H89      1.0000 0.36273  0.23857  0.14417  Biso   1.000  H
  H90      1.0000 0.51073  0.23267  0.11677  Biso   1.000  H
  O31      1.0000 0.63738  0.85761  0.40887  Biso   1.000  O
  O32      1.0000 0.61144  0.84471  0.30566  Biso   1.000  O
  C136     1.0000 0.61225  0.85659  0.36407  Biso   1.000  C
  C137     1.0000 0.57999  0.87096  0.38279  Biso   1.000  C
  C138     1.0000 0.55171  0.87137  0.33475  Biso   1.000  C
  H91      1.0000 0.55250  0.86220  0.29130  Biso   1.000  H
  C139     1.0000 0.52241  0.88537  0.35182  Biso   1.000  C
  H92      1.0000 0.50290  0.88540  0.31980  Biso   1.000  H
  C140     1.0000 0.52143  0.89926  0.41463  Biso   1.000  C
  C141     1.0000 0.54942  0.89776  0.46204  Biso   1.000  C
  H93      1.0000 0.54830  0.90620  0.50580  Biso   1.000  H
  C142     1.0000 0.57862  0.88405  0.44518  Biso   1.000  C
  H94      1.0000 0.59790  0.88370  0.47730  Biso   1.000  H
  C143     1.0000 0.49396  0.91919  0.43157  Biso   1.000  C
  C144     1.0000 0.51253  0.95761  0.46554  Biso   1.000  C
  H95      1.0000 0.54250  0.97060  0.47750  Biso   1.000  H
  H96      1.0000 0.38860  0.82260  0.45010  Biso   1.000  H
  O33      1.0000 0.30405  0.19094  0.74220  Biso   1.000  O
  O34      1.0000 0.27811  0.17804  0.63899  Biso   1.000  O
  C145     1.0000 0.27892  0.18992  0.69740  Biso   1.000  C
  C146     1.0000 0.24666  0.20429  0.71612  Biso   1.000  C
  C147     1.0000 0.21838  0.20470  0.66808  Biso   1.000  C
  H97      1.0000 0.21917  0.19553  0.62463  Biso   1.000  H
  C148     1.0000 0.18908  0.21870  0.68515  Biso   1.000  C
  H98      1.0000 0.16957  0.21873  0.65313  Biso   1.000  H
  C149     1.0000 0.18810  0.23259  0.74796  Biso   1.000  C
  C150     1.0000 0.21609  0.23109  0.79537  Biso   1.000  C
  H99      1.0000 0.21497  0.23953  0.83913  Biso   1.000  H
  C151     1.0000 0.24529  0.21738  0.77851  Biso   1.000  C
  H100     1.0000 0.26457  0.21703  0.81063  Biso   1.000  H
  C152     1.0000 0.16063  0.25252  0.76490  Biso   1.000  C
  C153     1.0000 0.17920  0.29094  0.79887  Biso   1.000  C
  H101     1.0000 0.20917  0.30393  0.81083  Biso   1.000  H
  H102     1.0000 0.05527  0.15593  0.78343  Biso   1.000  H
  O35      1.0000 0.97071  0.52428  0.07554  Biso   1.000  O
  O36      1.0000 0.94477  0.51138  0.97233  Biso   1.000  O
  C154     1.0000 0.94558  0.52326  0.03074  Biso   1.000  C
  C155     1.0000 0.91332  0.53763  0.04946  Biso   1.000  C
  C156     1.0000 0.88504  0.53804  0.00142  Biso   1.000  C
  H103     1.0000 0.88583  0.52887  0.95797  Biso   1.000  H
  C157     1.0000 0.85574  0.55204  0.01849  Biso   1.000  C
  H104     1.0000 0.83623  0.55207  0.98647  Biso   1.000  H
  C158     1.0000 0.85476  0.56593  0.08130  Biso   1.000  C
  C159     1.0000 0.88275  0.56443  0.12871  Biso   1.000  C
  H105     1.0000 0.88163  0.57287  0.17247  Biso   1.000  H
  C160     1.0000 0.91195  0.55072  0.11185  Biso   1.000  C
  H106     1.0000 0.93123  0.55037  0.14397  Biso   1.000  H
  C161     1.0000 0.82729  0.58586  0.09824  Biso   1.000  C
  C162     1.0000 0.84586  0.62428  0.13221  Biso   1.000  C
  H107     1.0000 0.87583  0.63727  0.14417  Biso   1.000  H
  H108     1.0000 0.72193  0.48927  0.11677  Biso   1.000  H
  O37      1.0000 0.63738  0.77977  0.40887  Biso   1.000  O
  O38      1.0000 0.61144  0.76673  0.30566  Biso   1.000  O
  C163     1.0000 0.61225  0.75566  0.36407  Biso   1.000  C
  C164     1.0000 0.57999  0.70903  0.38279  Biso   1.000  C
  C165     1.0000 0.55171  0.68034  0.33475  Biso   1.000  C
  H109     1.0000 0.55250  0.69030  0.29130  Biso   1.000  H
  C166     1.0000 0.52241  0.63704  0.35182  Biso   1.000  C
  H110     1.0000 0.50290  0.61750  0.31980  Biso   1.000  H
  C167     1.0000 0.52143  0.62217  0.41463  Biso   1.000  C
  C168     1.0000 0.54942  0.65166  0.46204  Biso   1.000  C
  H111     1.0000 0.54830  0.64210  0.50580  Biso   1.000  H
  C169     1.0000 0.57862  0.69457  0.44518  Biso   1.000  C
  H112     1.0000 0.59790  0.71420  0.47730  Biso   1.000  H
  C170     1.0000 0.49396  0.57477  0.43157  Biso   1.000  C
  C171     1.0000 0.51253  0.55492  0.46554  Biso   1.000  C
  H113     1.0000 0.54250  0.57190  0.47750  Biso   1.000  H
  H114     1.0000 0.38860  0.56600  0.45010  Biso   1.000  H
  O39      1.0000 0.30405  0.11310  0.74220  Biso   1.000  O
  O40      1.0000 0.27811  0.10006  0.63899  Biso   1.000  O
  C172     1.0000 0.27892  0.08899  0.69740  Biso   1.000  C
  C173     1.0000 0.24666  0.04236  0.71612  Biso   1.000  C
  C174     1.0000 0.21838  0.01367  0.66808  Biso   1.000  C
  H115     1.0000 0.21917  0.02363  0.62463  Biso   1.000  H
  C175     1.0000 0.18908  0.97037  0.68515  Biso   1.000  C
  H116     1.0000 0.16957  0.95083  0.65313  Biso   1.000  H
  C176     1.0000 0.18810  0.95550  0.74796  Biso   1.000  C
  C177     1.0000 0.21609  0.98499  0.79537  Biso   1.000  C
  H117     1.0000 0.21497  0.97543  0.83913  Biso   1.000  H
  C178     1.0000 0.24529  0.02790  0.77851  Biso   1.000  C
  H118     1.0000 0.26457  0.04753  0.81063  Biso   1.000  H
  C179     1.0000 0.16063  0.90810  0.76490  Biso   1.000  C
  C180     1.0000 0.17920  0.88825  0.79887  Biso   1.000  C
  H119     1.0000 0.20917  0.90523  0.81083  Biso   1.000  H
  H120     1.0000 0.05527  0.89933  0.78343  Biso   1.000  H
  O41      1.0000 0.97071  0.44644  0.07554  Biso   1.000  O
  O42      1.0000 0.94477  0.43340  0.97233  Biso   1.000  O
  C181     1.0000 0.94558  0.42233  0.03074  Biso   1.000  C
  C182     1.0000 0.91332  0.37570  0.04946  Biso   1.000  C
  C183     1.0000 0.88504  0.34701  0.00142  Biso   1.000  C
  H121     1.0000 0.88583  0.35697  0.95797  Biso   1.000  H
  C184     1.0000 0.85574  0.30371  0.01849  Biso   1.000  C
  H122     1.0000 0.83623  0.28417  0.98647  Biso   1.000  H
  C185     1.0000 0.85476  0.28884  0.08130  Biso   1.000  C
  C186     1.0000 0.88275  0.31833  0.12871  Biso   1.000  C
  H123     1.0000 0.88163  0.30877  0.17247  Biso   1.000  H
  C187     1.0000 0.91195  0.36124  0.11185  Biso   1.000  C
  H124     1.0000 0.93123  0.38087  0.14397  Biso   1.000  H
  C188     1.0000 0.82729  0.24144  0.09824  Biso   1.000  C
  C189     1.0000 0.84586  0.22159  0.13221  Biso   1.000  C
  H125     1.0000 0.87583  0.23857  0.14417  Biso   1.000  H
  H126     1.0000 0.72193  0.23267  0.11677  Biso   1.000  H
  O43      1.0000 0.22023  0.85761  0.40887  Biso   1.000  O
  O44      1.0000 0.23327  0.84471  0.30566  Biso   1.000  O
  C190     1.0000 0.24434  0.85659  0.36407  Biso   1.000  C
  C191     1.0000 0.29097  0.87096  0.38279  Biso   1.000  C
  C192     1.0000 0.31966  0.87137  0.33475  Biso   1.000  C
  H127     1.0000 0.30970  0.86220  0.29130  Biso   1.000  H
  C193     1.0000 0.36296  0.88537  0.35182  Biso   1.000  C
  H128     1.0000 0.38250  0.88540  0.31980  Biso   1.000  H
  C194     1.0000 0.37783  0.89926  0.41463  Biso   1.000  C
  C195     1.0000 0.34834  0.89776  0.46204  Biso   1.000  C
  H129     1.0000 0.35790  0.90620  0.50580  Biso   1.000  H
  C196     1.0000 0.30543  0.88405  0.44518  Biso   1.000  C
  H130     1.0000 0.28580  0.88370  0.47730  Biso   1.000  H
  C197     1.0000 0.42523  0.91919  0.43157  Biso   1.000  C
  C198     1.0000 0.44508  0.95761  0.46554  Biso   1.000  C
  H131     1.0000 0.42810  0.97060  0.47750  Biso   1.000  H
  H132     1.0000 0.43400  0.82260  0.45010  Biso   1.000  H
  O45      1.0000 0.88690  0.19094  0.74220  Biso   1.000  O
  O46      1.0000 0.89994  0.17804  0.63899  Biso   1.000  O
  C199     1.0000 0.91101  0.18992  0.69740  Biso   1.000  C
  C200     1.0000 0.95764  0.20429  0.71612  Biso   1.000  C
  C201     1.0000 0.98633  0.20470  0.66808  Biso   1.000  C
  H133     1.0000 0.97637  0.19553  0.62463  Biso   1.000  H
  C202     1.0000 0.02963  0.21870  0.68515  Biso   1.000  C
  H134     1.0000 0.04917  0.21873  0.65313  Biso   1.000  H
  C203     1.0000 0.04450  0.23259  0.74796  Biso   1.000  C
  C204     1.0000 0.01501  0.23109  0.79537  Biso   1.000  C
  H135     1.0000 0.02457  0.23953  0.83913  Biso   1.000  H
  C205     1.0000 0.97210  0.21738  0.77851  Biso   1.000  C
  H136     1.0000 0.95247  0.21703  0.81063  Biso   1.000  H
  C206     1.0000 0.09190  0.25252  0.76490  Biso   1.000  C
  C207     1.0000 0.11175  0.29094  0.79887  Biso   1.000  C
  H137     1.0000 0.09477  0.30393  0.81083  Biso   1.000  H
  H138     1.0000 0.10067  0.15593  0.78343  Biso   1.000  H
  O47      1.0000 0.55356  0.52428  0.07554  Biso   1.000  O
  O48      1.0000 0.56660  0.51138  0.97233  Biso   1.000  O
  C208     1.0000 0.57767  0.52326  0.03074  Biso   1.000  C
  C209     1.0000 0.62430  0.53763  0.04946  Biso   1.000  C
  C210     1.0000 0.65299  0.53804  0.00142  Biso   1.000  C
  H139     1.0000 0.64303  0.52887  0.95797  Biso   1.000  H
  C211     1.0000 0.69629  0.55204  0.01849  Biso   1.000  C
  H140     1.0000 0.71583  0.55207  0.98647  Biso   1.000  H
  C212     1.0000 0.71116  0.56593  0.08130  Biso   1.000  C
  C213     1.0000 0.68167  0.56443  0.12871  Biso   1.000  C
  H141     1.0000 0.69123  0.57287  0.17247  Biso   1.000  H
  C214     1.0000 0.63876  0.55072  0.11185  Biso   1.000  C
  H142     1.0000 0.61913  0.55037  0.14397  Biso   1.000  H
  C215     1.0000 0.75856  0.58586  0.09824  Biso   1.000  C
  C216     1.0000 0.77841  0.62428  0.13221  Biso   1.000  C
  H143     1.0000 0.76143  0.63727  0.14417  Biso   1.000  H
  H144     1.0000 0.76733  0.48927  0.11677  Biso   1.000  H
  O49      1.0000 0.14239  0.36262  0.40887  Biso   1.000  O
  O50      1.0000 0.15529  0.38856  0.30566  Biso   1.000  O
  C217     1.0000 0.14341  0.38775  0.36407  Biso   1.000  C
  C218     1.0000 0.12904  0.42001  0.38279  Biso   1.000  C
  C219     1.0000 0.12863  0.44829  0.33475  Biso   1.000  C
  H145     1.0000 0.13780  0.44750  0.29130  Biso   1.000  H
  C220     1.0000 0.11463  0.47759  0.35182  Biso   1.000  C
  H146     1.0000 0.11460  0.49710  0.31980  Biso   1.000  H
  C221     1.0000 0.10074  0.47857  0.41463  Biso   1.000  C
  C222     1.0000 0.10224  0.45058  0.46204  Biso   1.000  C
  H147     1.0000 0.09380  0.45170  0.50580  Biso   1.000  H
  C223     1.0000 0.11595  0.42138  0.44518  Biso   1.000  C
  H148     1.0000 0.11630  0.40210  0.47730  Biso   1.000  H
  C224     1.0000 0.08081  0.50604  0.43157  Biso   1.000  C
  C225     1.0000 0.04239  0.48747  0.46554  Biso   1.000  C
  H149     1.0000 0.02940  0.45750  0.47750  Biso   1.000  H
  H150     1.0000 0.17740  0.61140  0.45010  Biso   1.000  H
  O51      1.0000 0.80906  0.69595  0.74220  Biso   1.000  O
  O52      1.0000 0.82196  0.72189  0.63899  Biso   1.000  O
  C226     1.0000 0.81008  0.72108  0.69740  Biso   1.000  C
  C227     1.0000 0.79571  0.75334  0.71612  Biso   1.000  C
  C228     1.0000 0.79530  0.78162  0.66808  Biso   1.000  C
  H151     1.0000 0.80447  0.78083  0.62463  Biso   1.000  H
  C229     1.0000 0.78130  0.81092  0.68515  Biso   1.000  C
  H152     1.0000 0.78127  0.83043  0.65313  Biso   1.000  H
  C230     1.0000 0.76741  0.81190  0.74796  Biso   1.000  C
  C231     1.0000 0.76891  0.78391  0.79537  Biso   1.000  C
  H153     1.0000 0.76047  0.78503  0.83913  Biso   1.000  H
  C232     1.0000 0.78262  0.75471  0.77851  Biso   1.000  C
  H154     1.0000 0.78297  0.73543  0.81063  Biso   1.000  H
  C233     1.0000 0.74748  0.83937  0.76490  Biso   1.000  C
  C234     1.0000 0.70906  0.82080  0.79887  Biso   1.000  C
  H155     1.0000 0.69607  0.79083  0.81083  Biso   1.000  H
  H156     1.0000 0.84407  0.94473  0.78343  Biso   1.000  H
  O53      1.0000 0.47572  0.02929  0.07554  Biso   1.000  O
  O54      1.0000 0.48862  0.05523  0.97233  Biso   1.000  O
  C235     1.0000 0.47674  0.05442  0.03074  Biso   1.000  C
  C236     1.0000 0.46237  0.08668  0.04946  Biso   1.000  C
  C237     1.0000 0.46196  0.11496  0.00142  Biso   1.000  C
  H157     1.0000 0.47113  0.11417  0.95797  Biso   1.000  H
  C238     1.0000 0.44796  0.14426  0.01849  Biso   1.000  C
  H158     1.0000 0.44793  0.16377  0.98647  Biso   1.000  H
  C239     1.0000 0.43407  0.14524  0.08130  Biso   1.000  C
  C240     1.0000 0.43557  0.11725  0.12871  Biso   1.000  C
  H159     1.0000 0.42713  0.11837  0.17247  Biso   1.000  H
  C241     1.0000 0.44928  0.08805  0.11185  Biso   1.000  C
  H160     1.0000 0.44963  0.06877  0.14397  Biso   1.000  H
  C242     1.0000 0.41414  0.17271  0.09824  Biso   1.000  C
  C243     1.0000 0.37572  0.15414  0.13221  Biso   1.000  C
  H161     1.0000 0.36273  0.12417  0.14417  Biso   1.000  H
  H162     1.0000 0.51073  0.27807  0.11677  Biso   1.000  H
  O55      1.0000 0.77977  0.63738  0.59113  Biso   1.000  O
  O56      1.0000 0.76673  0.61144  0.69434  Biso   1.000  O
  C244     1.0000 0.75566  0.61225  0.63593  Biso   1.000  C
  C245     1.0000 0.70903  0.57999  0.61721  Biso   1.000  C
  C246     1.0000 0.68034  0.55171  0.66525  Biso   1.000  C
  H163     1.0000 0.69030  0.55250  0.70870  Biso   1.000  H
  C247     1.0000 0.63704  0.52241  0.64818  Biso   1.000  C
  H164     1.0000 0.61750  0.50290  0.68020  Biso   1.000  H
  C248     1.0000 0.62217  0.52143  0.58537  Biso   1.000  C
  C249     1.0000 0.65166  0.54942  0.53796  Biso   1.000  C
  H165     1.0000 0.64210  0.54830  0.49420  Biso   1.000  H
  C250     1.0000 0.69457  0.57862  0.55482  Biso   1.000  C
  H166     1.0000 0.71420  0.59790  0.52270  Biso   1.000  H
  C251     1.0000 0.57477  0.49396  0.56843  Biso   1.000  C
  C252     1.0000 0.55492  0.51253  0.53446  Biso   1.000  C
  H167     1.0000 0.57190  0.54250  0.52250  Biso   1.000  H
  H168     1.0000 0.56600  0.38860  0.54990  Biso   1.000  H
  O57      1.0000 0.44644  0.97071  0.92446  Biso   1.000  O
  O58      1.0000 0.43340  0.94477  0.02767  Biso   1.000  O
  C253     1.0000 0.42233  0.94558  0.96926  Biso   1.000  C
  C254     1.0000 0.37570  0.91332  0.95054  Biso   1.000  C
  C255     1.0000 0.34701  0.88504  0.99858  Biso   1.000  C
  H169     1.0000 0.35697  0.88583  0.04203  Biso   1.000  H
  C256     1.0000 0.30371  0.85574  0.98151  Biso   1.000  C
  H170     1.0000 0.28417  0.83623  0.01353  Biso   1.000  H
  C257     1.0000 0.28884  0.85476  0.91870  Biso   1.000  C
  C258     1.0000 0.31833  0.88275  0.87129  Biso   1.000  C
  H171     1.0000 0.30877  0.88163  0.82753  Biso   1.000  H
  C259     1.0000 0.36124  0.91195  0.88815  Biso   1.000  C
  H172     1.0000 0.38087  0.93123  0.85603  Biso   1.000  H
  C260     1.0000 0.24144  0.82729  0.90176  Biso   1.000  C
  C261     1.0000 0.22159  0.84586  0.86779  Biso   1.000  C
  H173     1.0000 0.23857  0.87583  0.85583  Biso   1.000  H
  H174     1.0000 0.23267  0.72193  0.88323  Biso   1.000  H
  O59      1.0000 0.11310  0.30405  0.25780  Biso   1.000  O
  O60      1.0000 0.10006  0.27811  0.36101  Biso   1.000  O
  C262     1.0000 0.08899  0.27892  0.30260  Biso   1.000  C
  C263     1.0000 0.04236  0.24666  0.28388  Biso   1.000  C
  C264     1.0000 0.01367  0.21838  0.33192  Biso   1.000  C
  H175     1.0000 0.02363  0.21917  0.37537  Biso   1.000  H
  C265     1.0000 0.97037  0.18908  0.31485  Biso   1.000  C
  H176     1.0000 0.95083  0.16957  0.34687  Biso   1.000  H
  C266     1.0000 0.95550  0.18810  0.25204  Biso   1.000  C
  C267     1.0000 0.98499  0.21609  0.20463  Biso   1.000  C
  H177     1.0000 0.97543  0.21497  0.16087  Biso   1.000  H
  C268     1.0000 0.02790  0.24529  0.22149  Biso   1.000  C
  H178     1.0000 0.04753  0.26457  0.18937  Biso   1.000  H
  C269     1.0000 0.90810  0.16063  0.23510  Biso   1.000  C
  C270     1.0000 0.88825  0.17920  0.20113  Biso   1.000  C
  H179     1.0000 0.90523  0.20917  0.18917  Biso   1.000  H
  H180     1.0000 0.89933  0.05527  0.21657  Biso   1.000  H
  O61      1.0000 0.85761  0.22023  0.59113  Biso   1.000  O
  O62      1.0000 0.84471  0.23327  0.69434  Biso   1.000  O
  C271     1.0000 0.85659  0.24434  0.63593  Biso   1.000  C
  C272     1.0000 0.87096  0.29097  0.61721  Biso   1.000  C
  C273     1.0000 0.87137  0.31966  0.66525  Biso   1.000  C
  H181     1.0000 0.86220  0.30970  0.70870  Biso   1.000  H
  C274     1.0000 0.88537  0.36296  0.64818  Biso   1.000  C
  H182     1.0000 0.88540  0.38250  0.68020  Biso   1.000  H
  C275     1.0000 0.89926  0.37783  0.58537  Biso   1.000  C
  C276     1.0000 0.89776  0.34834  0.53796  Biso   1.000  C
  H183     1.0000 0.90620  0.35790  0.49420  Biso   1.000  H
  C277     1.0000 0.88405  0.30543  0.55482  Biso   1.000  C
  H184     1.0000 0.88370  0.28580  0.52270  Biso   1.000  H
  C278     1.0000 0.91919  0.42523  0.56843  Biso   1.000  C
  C279     1.0000 0.95761  0.44508  0.53446  Biso   1.000  C
  H185     1.0000 0.97060  0.42810  0.52250  Biso   1.000  H
  H186     1.0000 0.82260  0.43400  0.54990  Biso   1.000  H
  O63      1.0000 0.52428  0.55356  0.92446  Biso   1.000  O
  O64      1.0000 0.51138  0.56660  0.02767  Biso   1.000  O
  C280     1.0000 0.52326  0.57767  0.96926  Biso   1.000  C
  C281     1.0000 0.53763  0.62430  0.95054  Biso   1.000  C
  C282     1.0000 0.53804  0.65299  0.99858  Biso   1.000  C
  H187     1.0000 0.52887  0.64303  0.04203  Biso   1.000  H
  C283     1.0000 0.55204  0.69629  0.98151  Biso   1.000  C
  H188     1.0000 0.55207  0.71583  0.01353  Biso   1.000  H
  C284     1.0000 0.56593  0.71116  0.91870  Biso   1.000  C
  C285     1.0000 0.56443  0.68167  0.87129  Biso   1.000  C
  H189     1.0000 0.57287  0.69123  0.82753  Biso   1.000  H
  C286     1.0000 0.55072  0.63876  0.88815  Biso   1.000  C
  H190     1.0000 0.55037  0.61913  0.85603  Biso   1.000  H
  C287     1.0000 0.58586  0.75856  0.90176  Biso   1.000  C
  C288     1.0000 0.62428  0.77841  0.86779  Biso   1.000  C
  H191     1.0000 0.63727  0.76143  0.85583  Biso   1.000  H
  H192     1.0000 0.48927  0.76733  0.88323  Biso   1.000  H
  O65      1.0000 0.19094  0.88690  0.25780  Biso   1.000  O
  O66      1.0000 0.17804  0.89994  0.36101  Biso   1.000  O
  C289     1.0000 0.18992  0.91101  0.30260  Biso   1.000  C
  C290     1.0000 0.20429  0.95764  0.28388  Biso   1.000  C
  C291     1.0000 0.20470  0.98633  0.33192  Biso   1.000  C
  H193     1.0000 0.19553  0.97637  0.37537  Biso   1.000  H
  C292     1.0000 0.21870  0.02963  0.31485  Biso   1.000  C
  H194     1.0000 0.21873  0.04917  0.34687  Biso   1.000  H
  C293     1.0000 0.23259  0.04450  0.25204  Biso   1.000  C
  C294     1.0000 0.23109  0.01501  0.20463  Biso   1.000  C
  H195     1.0000 0.23953  0.02457  0.16087  Biso   1.000  H
  C295     1.0000 0.21738  0.97210  0.22149  Biso   1.000  C
  H196     1.0000 0.21703  0.95247  0.18937  Biso   1.000  H
  C296     1.0000 0.25252  0.09190  0.23510  Biso   1.000  C
  C297     1.0000 0.29094  0.11175  0.20113  Biso   1.000  C
  H197     1.0000 0.30393  0.09477  0.18917  Biso   1.000  H
  H198     1.0000 0.15593  0.10067  0.21657  Biso   1.000  H
  O67      1.0000 0.36262  0.14239  0.59113  Biso   1.000  O
  O68      1.0000 0.38856  0.15529  0.69434  Biso   1.000  O
  C298     1.0000 0.38775  0.14341  0.63593  Biso   1.000  C
  C299     1.0000 0.42001  0.12904  0.61721  Biso   1.000  C
  C300     1.0000 0.44829  0.12863  0.66525  Biso   1.000  C
  H199     1.0000 0.44750  0.13780  0.70870  Biso   1.000  H
  C301     1.0000 0.47759  0.11463  0.64818  Biso   1.000  C
  H200     1.0000 0.49710  0.11460  0.68020  Biso   1.000  H
  C302     1.0000 0.47857  0.10074  0.58537  Biso   1.000  C
  C303     1.0000 0.45058  0.10224  0.53796  Biso   1.000  C
  H201     1.0000 0.45170  0.09380  0.49420  Biso   1.000  H
  C304     1.0000 0.42138  0.11595  0.55482  Biso   1.000  C
  H202     1.0000 0.40210  0.11630  0.52270  Biso   1.000  H
  C305     1.0000 0.50604  0.08081  0.56843  Biso   1.000  C
  C306     1.0000 0.48747  0.04239  0.53446  Biso   1.000  C
  H203     1.0000 0.45750  0.02940  0.52250  Biso   1.000  H
  H204     1.0000 0.61140  0.17740  0.54990  Biso   1.000  H
  O69      1.0000 0.02929  0.47572  0.92446  Biso   1.000  O
  O70      1.0000 0.05523  0.48862  0.02767  Biso   1.000  O
  C307     1.0000 0.05442  0.47674  0.96926  Biso   1.000  C
  C308     1.0000 0.08668  0.46237  0.95054  Biso   1.000  C
  C309     1.0000 0.11496  0.46196  0.99858  Biso   1.000  C
  H205     1.0000 0.11417  0.47113  0.04203  Biso   1.000  H
  C310     1.0000 0.14426  0.44796  0.98151  Biso   1.000  C
  H206     1.0000 0.16377  0.44793  0.01353  Biso   1.000  H
  C311     1.0000 0.14524  0.43407  0.91870  Biso   1.000  C
  C312     1.0000 0.11725  0.43557  0.87129  Biso   1.000  C
  H207     1.0000 0.11837  0.42713  0.82753  Biso   1.000  H
  C313     1.0000 0.08805  0.44928  0.88815  Biso   1.000  C
  H208     1.0000 0.06877  0.44963  0.85603  Biso   1.000  H
  C314     1.0000 0.17271  0.41414  0.90176  Biso   1.000  C
  C315     1.0000 0.15414  0.37572  0.86779  Biso   1.000  C
  H209     1.0000 0.12417  0.36273  0.85583  Biso   1.000  H
  H210     1.0000 0.27807  0.51073  0.88323  Biso   1.000  H
  O71      1.0000 0.69595  0.80906  0.25780  Biso   1.000  O
  O72      1.0000 0.72189  0.82196  0.36101  Biso   1.000  O
  C316     1.0000 0.72108  0.81008  0.30260  Biso   1.000  C
  C317     1.0000 0.75334  0.79571  0.28388  Biso   1.000  C
  C318     1.0000 0.78162  0.79530  0.33192  Biso   1.000  C
  H211     1.0000 0.78083  0.80447  0.37537  Biso   1.000  H
  C319     1.0000 0.81092  0.78130  0.31485  Biso   1.000  C
  H212     1.0000 0.83043  0.78127  0.34687  Biso   1.000  H
  C320     1.0000 0.81190  0.76741  0.25204  Biso   1.000  C
  C321     1.0000 0.78391  0.76891  0.20463  Biso   1.000  C
  H213     1.0000 0.78503  0.76047  0.16087  Biso   1.000  H
  C322     1.0000 0.75471  0.78262  0.22149  Biso   1.000  C
  H214     1.0000 0.73543  0.78297  0.18937  Biso   1.000  H
  C323     1.0000 0.83937  0.74748  0.23510  Biso   1.000  C
  C324     1.0000 0.82080  0.70906  0.20113  Biso   1.000  C
  H215     1.0000 0.79083  0.69607  0.18917  Biso   1.000  H
  H216     1.0000 0.94473  0.84407  0.21657  Biso   1.000  H
  Cu1      1.0000 0.31811  0.15905  0.60622  Biso   1.000  Cu
  Cu2      1.0000 0.98478  0.49239  0.93955  Biso   1.000  Cu
  Cu3      1.0000 0.65144  0.82572  0.27289  Biso   1.000  Cu
  Cu4      1.0000 0.84095  0.15906  0.60622  Biso   1.000  Cu
  Cu5      1.0000 0.50761  0.49239  0.93955  Biso   1.000  Cu
  Cu6      1.0000 0.17428  0.82572  0.27289  Biso   1.000  Cu
  Cu7      1.0000 0.84095  0.68189  0.60622  Biso   1.000  Cu
  Cu8      1.0000 0.50761  0.01522  0.93955  Biso   1.000  Cu
  Cu9      1.0000 0.17428  0.34856  0.27289  Biso   1.000  Cu
  Cu10     1.0000 0.15905  0.31811  0.39378  Biso   1.000  Cu
  Cu11     1.0000 0.82572  0.65144  0.72711  Biso   1.000  Cu
  Cu12     1.0000 0.49239  0.98478  0.06045  Biso   1.000  Cu
  Cu13     1.0000 0.15905  0.84095  0.39378  Biso   1.000  Cu
  Cu14     1.0000 0.82572  0.17428  0.72711  Biso   1.000  Cu
  Cu15     1.0000 0.49239  0.50761  0.06045  Biso   1.000  Cu
  Cu16     1.0000 0.68189  0.84095  0.39378  Biso   1.000  Cu
  Cu17     1.0000 0.34856  0.17428  0.72711  Biso   1.000  Cu
  Cu18     1.0000 0.01522  0.50761  0.06045  Biso   1.000  Cu
  O73      1.0000 0.56988  0.43012  0.61995  Biso   1.000  O
  C325     1.0000 0.51049  0.48951  0.51620  Biso   1.000  C
  C326     1.0000 0.55045  0.44955  0.58601  Biso   1.000  C
  C327     1.0000 0.58893  0.41107  0.57750  Biso   1.000  C
  H217     1.0000 0.60220  0.39780  0.60430  Biso   1.000  H
  O74      1.0000 0.23655  0.76345  0.95328  Biso   1.000  O
  C328     1.0000 0.17716  0.82284  0.84953  Biso   1.000  C
  C329     1.0000 0.21712  0.78288  0.91934  Biso   1.000  C
  C330     1.0000 0.25560  0.74440  0.91083  Biso   1.000  C
  H218     1.0000 0.26887  0.73113  0.93763  Biso   1.000  H
  O75      1.0000 0.90321  0.09679  0.28662  Biso   1.000  O
  C331     1.0000 0.84382  0.15618  0.18287  Biso   1.000  C
  C332     1.0000 0.88378  0.11622  0.25268  Biso   1.000  C
  C333     1.0000 0.92226  0.07774  0.24417  Biso   1.000  C
  H219     1.0000 0.93553  0.06447  0.27097  Biso   1.000  H
  O76      1.0000 0.56988  0.13976  0.61995  Biso   1.000  O
  C334     1.0000 0.51049  0.02098  0.51620  Biso   1.000  C
  C335     1.0000 0.55045  0.10090  0.58601  Biso   1.000  C
  C336     1.0000 0.58893  0.17786  0.57750  Biso   1.000  C
  H220     1.0000 0.60220  0.20440  0.60430  Biso   1.000  H
  O77      1.0000 0.23655  0.47309  0.95328  Biso   1.000  O
  C337     1.0000 0.17716  0.35431  0.84953  Biso   1.000  C
  C338     1.0000 0.21712  0.43423  0.91934  Biso   1.000  C
  C339     1.0000 0.25560  0.51119  0.91083  Biso   1.000  C
  H221     1.0000 0.26887  0.53773  0.93763  Biso   1.000  H
  O78      1.0000 0.90321  0.80643  0.28662  Biso   1.000  O
  C340     1.0000 0.84382  0.68765  0.18287  Biso   1.000  C
  C341     1.0000 0.88378  0.76757  0.25268  Biso   1.000  C
  C342     1.0000 0.92226  0.84453  0.24417  Biso   1.000  C
  H222     1.0000 0.93553  0.87107  0.27097  Biso   1.000  H
  O79      1.0000 0.86024  0.43012  0.61995  Biso   1.000  O
  C343     1.0000 0.97902  0.48951  0.51620  Biso   1.000  C
  C344     1.0000 0.89910  0.44955  0.58601  Biso   1.000  C
  C345     1.0000 0.82214  0.41107  0.57750  Biso   1.000  C
  H223     1.0000 0.79560  0.39780  0.60430  Biso   1.000  H
  O80      1.0000 0.52691  0.76345  0.95328  Biso   1.000  O
  C346     1.0000 0.64569  0.82284  0.84953  Biso   1.000  C
  C347     1.0000 0.56577  0.78288  0.91934  Biso   1.000  C
  C348     1.0000 0.48881  0.74440  0.91083  Biso   1.000  C
  H224     1.0000 0.46227  0.73113  0.93763  Biso   1.000  H
  O81      1.0000 0.19357  0.09679  0.28662  Biso   1.000  O
  C349     1.0000 0.31235  0.15618  0.18287  Biso   1.000  C
  C350     1.0000 0.23243  0.11622  0.25268  Biso   1.000  C
  C351     1.0000 0.15547  0.07774  0.24417  Biso   1.000  C
  H225     1.0000 0.12893  0.06447  0.27097  Biso   1.000  H
  O82      1.0000 0.43012  0.56988  0.38005  Biso   1.000  O
  C352     1.0000 0.48951  0.51049  0.48380  Biso   1.000  C
  C353     1.0000 0.44955  0.55045  0.41399  Biso   1.000  C
  C354     1.0000 0.41107  0.58893  0.42250  Biso   1.000  C
  H226     1.0000 0.39780  0.60220  0.39570  Biso   1.000  H
  O83      1.0000 0.09679  0.90321  0.71338  Biso   1.000  O
  C355     1.0000 0.15618  0.84382  0.81713  Biso   1.000  C
  C356     1.0000 0.11622  0.88378  0.74732  Biso   1.000  C
  C357     1.0000 0.07774  0.92226  0.75583  Biso   1.000  C
  H227     1.0000 0.06447  0.93553  0.72903  Biso   1.000  H
  O84      1.0000 0.76345  0.23655  0.04672  Biso   1.000  O
  C358     1.0000 0.82284  0.17716  0.15047  Biso   1.000  C
  C359     1.0000 0.78288  0.21712  0.08066  Biso   1.000  C
  C360     1.0000 0.74440  0.25560  0.08917  Biso   1.000  C
  H228     1.0000 0.73113  0.26887  0.06237  Biso   1.000  H
  O85      1.0000 0.13976  0.56988  0.38005  Biso   1.000  O
  C361     1.0000 0.02098  0.51049  0.48380  Biso   1.000  C
  C362     1.0000 0.10090  0.55045  0.41399  Biso   1.000  C
  C363     1.0000 0.17786  0.58893  0.42250  Biso   1.000  C
  H229     1.0000 0.20440  0.60220  0.39570  Biso   1.000  H
  O86      1.0000 0.80643  0.90321  0.71338  Biso   1.000  O
  C364     1.0000 0.68765  0.84382  0.81713  Biso   1.000  C
  C365     1.0000 0.76757  0.88378  0.74732  Biso   1.000  C
  C366     1.0000 0.84453  0.92226  0.75583  Biso   1.000  C
  H230     1.0000 0.87107  0.93553  0.72903  Biso   1.000  H
  O87      1.0000 0.47309  0.23655  0.04672  Biso   1.000  O
  C367     1.0000 0.35431  0.17716  0.15047  Biso   1.000  C
  C368     1.0000 0.43423  0.21712  0.08066  Biso   1.000  C
  C369     1.0000 0.51119  0.25560  0.08917  Biso   1.000  C
  H231     1.0000 0.53773  0.26887  0.06237  Biso   1.000  H
  O88      1.0000 0.43012  0.86024  0.38005  Biso   1.000  O
  C370     1.0000 0.48951  0.97902  0.48380  Biso   1.000  C
  C371     1.0000 0.44955  0.89910  0.41399  Biso   1.000  C
  C372     1.0000 0.41107  0.82214  0.42250  Biso   1.000  C
  H232     1.0000 0.39780  0.79560  0.39570  Biso   1.000  H
  O89      1.0000 0.09679  0.19357  0.71338  Biso   1.000  O
  C373     1.0000 0.15618  0.31235  0.81713  Biso   1.000  C
  C374     1.0000 0.11622  0.23243  0.74732  Biso   1.000  C
  C375     1.0000 0.07774  0.15547  0.75583  Biso   1.000  C
  H233     1.0000 0.06447  0.12893  0.72903  Biso   1.000  H
  O90      1.0000 0.76345  0.52691  0.04672  Biso   1.000  O
  C376     1.0000 0.82284  0.64569  0.15047  Biso   1.000  C
  C377     1.0000 0.78288  0.56577  0.08066  Biso   1.000  C
  C378     1.0000 0.74440  0.48881  0.08917  Biso   1.000  C
  H234     1.0000 0.73113  0.46227  0.06237  Biso   1.000  H
