data_image0
_cell_length_a       35.2938
_cell_length_b       35.2938
_cell_length_c       20.341
_cell_angle_alpha    90
_cell_angle_beta     90
_cell_angle_gamma    120

_symmetry_space_group_name_H-M    "P 1"
_symmetry_int_tables_number       1

loop_
  _symmetry_equiv_pos_as_xyz
  'x, y, z'

loop_
  _atom_site_label
  _atom_site_occupancy
  _atom_site_fract_x
  _atom_site_fract_y
  _atom_site_fract_z
  _atom_site_thermal_displace_type
  _atom_site_B_iso_or_equiv
  _atom_site_type_symbol
  O1       1.0000 0.22023  0.36256  0.40940  Biso   1.000  O
  O2       1.0000 0.23324  0.38841  0.30530  Biso   1.000  O
  C1       1.0000 0.24437  0.38780  0.36436  Biso   1.000  C
  C2       1.0000 0.29086  0.42014  0.38272  Biso   1.000  C
  C3       1.0000 0.31954  0.44845  0.33483  Biso   1.000  C
  H1       1.0000 0.30960  0.44770  0.29120  Biso   1.000  H
  C4       1.0000 0.36264  0.47769  0.35169  Biso   1.000  C
  H2       1.0000 0.38200  0.49730  0.31950  Biso   1.000  H
  C5       1.0000 0.37785  0.47869  0.41478  Biso   1.000  C
  C6       1.0000 0.34839  0.45066  0.46260  Biso   1.000  C
  H3       1.0000 0.35800  0.45180  0.50660  Biso   1.000  H
  C7       1.0000 0.30533  0.42129  0.44586  Biso   1.000  C
  H4       1.0000 0.28580  0.40190  0.47810  Biso   1.000  H
  C8       1.0000 0.42497  0.50605  0.43153  Biso   1.000  C
  C9       1.0000 0.44510  0.48740  0.46572  Biso   1.000  C
  H5       1.0000 0.42820  0.45750  0.47790  Biso   1.000  H
  H6       1.0000 0.43400  0.61130  0.45160  Biso   1.000  H
  O3       1.0000 0.88690  0.69589  0.74273  Biso   1.000  O
  O4       1.0000 0.89991  0.72174  0.63863  Biso   1.000  O
  C10      1.0000 0.91104  0.72113  0.69769  Biso   1.000  C
  C11      1.0000 0.95753  0.75347  0.71605  Biso   1.000  C
  C12      1.0000 0.98621  0.78178  0.66816  Biso   1.000  C
  H7       1.0000 0.97627  0.78103  0.62453  Biso   1.000  H
  C13      1.0000 0.02931  0.81102  0.68502  Biso   1.000  C
  H8       1.0000 0.04867  0.83063  0.65283  Biso   1.000  H
  C14      1.0000 0.04452  0.81202  0.74811  Biso   1.000  C
  C15      1.0000 0.01506  0.78399  0.79593  Biso   1.000  C
  H9       1.0000 0.02467  0.78513  0.83993  Biso   1.000  H
  C16      1.0000 0.97200  0.75462  0.77919  Biso   1.000  C
  H10      1.0000 0.95247  0.73523  0.81143  Biso   1.000  H
  C17      1.0000 0.09164  0.83938  0.76486  Biso   1.000  C
  C18      1.0000 0.11177  0.82073  0.79905  Biso   1.000  C
  H11      1.0000 0.09487  0.79083  0.81123  Biso   1.000  H
  H12      1.0000 0.10067  0.94463  0.78493  Biso   1.000  H
  O5       1.0000 0.55356  0.02923  0.07607  Biso   1.000  O
  O6       1.0000 0.56657  0.05508  0.97197  Biso   1.000  O
  C19      1.0000 0.57770  0.05447  0.03103  Biso   1.000  C
  C20      1.0000 0.62419  0.08681  0.04939  Biso   1.000  C
  C21      1.0000 0.65287  0.11512  0.00150  Biso   1.000  C
  H13      1.0000 0.64293  0.11437  0.95787  Biso   1.000  H
  C22      1.0000 0.69597  0.14436  0.01836  Biso   1.000  C
  H14      1.0000 0.71533  0.16397  0.98617  Biso   1.000  H
  C23      1.0000 0.71118  0.14536  0.08145  Biso   1.000  C
  C24      1.0000 0.68172  0.11733  0.12927  Biso   1.000  C
  H15      1.0000 0.69133  0.11847  0.17327  Biso   1.000  H
  C25      1.0000 0.63866  0.08796  0.11253  Biso   1.000  C
  H16      1.0000 0.61913  0.06857  0.14477  Biso   1.000  H
  C26      1.0000 0.75830  0.17272  0.09820  Biso   1.000  C
  C27      1.0000 0.77843  0.15407  0.13239  Biso   1.000  C
  H17      1.0000 0.76153  0.12417  0.14457  Biso   1.000  H
  H18      1.0000 0.76733  0.27797  0.11827  Biso   1.000  H
  O7       1.0000 0.63744  0.85767  0.40940  Biso   1.000  O
  O8       1.0000 0.61159  0.84483  0.30530  Biso   1.000  O
  C28      1.0000 0.61220  0.85657  0.36436  Biso   1.000  C
  C29      1.0000 0.57986  0.87072  0.38272  Biso   1.000  C
  C30      1.0000 0.55155  0.87109  0.33483  Biso   1.000  C
  H19      1.0000 0.55230  0.86190  0.29120  Biso   1.000  H
  C31      1.0000 0.52231  0.88495  0.35169  Biso   1.000  C
  H20      1.0000 0.50270  0.88470  0.31950  Biso   1.000  H
  C32      1.0000 0.52131  0.89916  0.41478  Biso   1.000  C
  C33      1.0000 0.54934  0.89773  0.46260  Biso   1.000  C
  H21      1.0000 0.54820  0.90620  0.50660  Biso   1.000  H
  C34      1.0000 0.57871  0.88404  0.44586  Biso   1.000  C
  H22      1.0000 0.59810  0.88390  0.47810  Biso   1.000  H
  C35      1.0000 0.49395  0.91892  0.43153  Biso   1.000  C
  C36      1.0000 0.51260  0.95770  0.46572  Biso   1.000  C
  H23      1.0000 0.54250  0.97070  0.47790  Biso   1.000  H
  H24      1.0000 0.38870  0.82270  0.45160  Biso   1.000  H
  O9       1.0000 0.30411  0.19100  0.74273  Biso   1.000  O
  O10      1.0000 0.27826  0.17816  0.63863  Biso   1.000  O
  C37      1.0000 0.27887  0.18990  0.69769  Biso   1.000  C
  C38      1.0000 0.24653  0.20405  0.71605  Biso   1.000  C
  C39      1.0000 0.21822  0.20442  0.66816  Biso   1.000  C
  H25      1.0000 0.21897  0.19523  0.62453  Biso   1.000  H
  C40      1.0000 0.18898  0.21828  0.68502  Biso   1.000  C
  H26      1.0000 0.16937  0.21803  0.65283  Biso   1.000  H
  C41      1.0000 0.18798  0.23249  0.74811  Biso   1.000  C
  C42      1.0000 0.21601  0.23106  0.79593  Biso   1.000  C
  H27      1.0000 0.21487  0.23953  0.83993  Biso   1.000  H
  C43      1.0000 0.24538  0.21737  0.77919  Biso   1.000  C
  H28      1.0000 0.26477  0.21723  0.81143  Biso   1.000  H
  C44      1.0000 0.16062  0.25225  0.76486  Biso   1.000  C
  C45      1.0000 0.17927  0.29103  0.79905  Biso   1.000  C
  H29      1.0000 0.20917  0.30403  0.81123  Biso   1.000  H
  H30      1.0000 0.05537  0.15603  0.78493  Biso   1.000  H
  O11      1.0000 0.97077  0.52434  0.07607  Biso   1.000  O
  O12      1.0000 0.94492  0.51150  0.97197  Biso   1.000  O
  C46      1.0000 0.94553  0.52324  0.03103  Biso   1.000  C
  C47      1.0000 0.91319  0.53739  0.04939  Biso   1.000  C
  C48      1.0000 0.88488  0.53776  0.00150  Biso   1.000  C
  H31      1.0000 0.88563  0.52857  0.95787  Biso   1.000  H
  C49      1.0000 0.85564  0.55162  0.01836  Biso   1.000  C
  H32      1.0000 0.83603  0.55137  0.98617  Biso   1.000  H
  C50      1.0000 0.85464  0.56583  0.08145  Biso   1.000  C
  C51      1.0000 0.88267  0.56440  0.12927  Biso   1.000  C
  H33      1.0000 0.88153  0.57287  0.17327  Biso   1.000  H
  C52      1.0000 0.91204  0.55071  0.11253  Biso   1.000  C
  H34      1.0000 0.93143  0.55057  0.14477  Biso   1.000  H
  C53      1.0000 0.82728  0.58559  0.09820  Biso   1.000  C
  C54      1.0000 0.84593  0.62437  0.13239  Biso   1.000  C
  H35      1.0000 0.87583  0.63737  0.14457  Biso   1.000  H
  H36      1.0000 0.72203  0.48937  0.11827  Biso   1.000  H
  O13      1.0000 0.14233  0.77977  0.40940  Biso   1.000  O
  O14      1.0000 0.15517  0.76676  0.30530  Biso   1.000  O
  C55      1.0000 0.14343  0.75563  0.36436  Biso   1.000  C
  C56      1.0000 0.12928  0.70914  0.38272  Biso   1.000  C
  C57      1.0000 0.12891  0.68046  0.33483  Biso   1.000  C
  H37      1.0000 0.13810  0.69040  0.29120  Biso   1.000  H
  C58      1.0000 0.11505  0.63736  0.35169  Biso   1.000  C
  H38      1.0000 0.11530  0.61800  0.31950  Biso   1.000  H
  C59      1.0000 0.10084  0.62215  0.41478  Biso   1.000  C
  C60      1.0000 0.10227  0.65161  0.46260  Biso   1.000  C
  H39      1.0000 0.09380  0.64200  0.50660  Biso   1.000  H
  C61      1.0000 0.11596  0.69467  0.44586  Biso   1.000  C
  H40      1.0000 0.11610  0.71420  0.47810  Biso   1.000  H
  C62      1.0000 0.08108  0.57503  0.43153  Biso   1.000  C
  C63      1.0000 0.04230  0.55490  0.46572  Biso   1.000  C
  H41      1.0000 0.02930  0.57180  0.47790  Biso   1.000  H
  H42      1.0000 0.17730  0.56600  0.45160  Biso   1.000  H
  O15      1.0000 0.80900  0.11310  0.74273  Biso   1.000  O
  O16      1.0000 0.82184  0.10009  0.63863  Biso   1.000  O
  C64      1.0000 0.81010  0.08896  0.69769  Biso   1.000  C
  C65      1.0000 0.79595  0.04247  0.71605  Biso   1.000  C
  C66      1.0000 0.79558  0.01379  0.66816  Biso   1.000  C
  H43      1.0000 0.80477  0.02373  0.62453  Biso   1.000  H
  C67      1.0000 0.78172  0.97069  0.68502  Biso   1.000  C
  H44      1.0000 0.78197  0.95133  0.65283  Biso   1.000  H
  C68      1.0000 0.76751  0.95548  0.74811  Biso   1.000  C
  C69      1.0000 0.76894  0.98494  0.79593  Biso   1.000  C
  H45      1.0000 0.76047  0.97533  0.83993  Biso   1.000  H
  C70      1.0000 0.78263  0.02800  0.77919  Biso   1.000  C
  H46      1.0000 0.78277  0.04753  0.81143  Biso   1.000  H
  C71      1.0000 0.74775  0.90836  0.76486  Biso   1.000  C
  C72      1.0000 0.70897  0.88823  0.79905  Biso   1.000  C
  H47      1.0000 0.69597  0.90513  0.81123  Biso   1.000  H
  H48      1.0000 0.84397  0.89933  0.78493  Biso   1.000  H
  O17      1.0000 0.47566  0.44644  0.07607  Biso   1.000  O
  O18      1.0000 0.48850  0.43343  0.97197  Biso   1.000  O
  C73      1.0000 0.47676  0.42230  0.03103  Biso   1.000  C
  C74      1.0000 0.46261  0.37581  0.04939  Biso   1.000  C
  C75      1.0000 0.46224  0.34713  0.00150  Biso   1.000  C
  H49      1.0000 0.47143  0.35707  0.95787  Biso   1.000  H
  C76      1.0000 0.44838  0.30403  0.01836  Biso   1.000  C
  H50      1.0000 0.44863  0.28467  0.98617  Biso   1.000  H
  C77      1.0000 0.43417  0.28882  0.08145  Biso   1.000  C
  C78      1.0000 0.43560  0.31828  0.12927  Biso   1.000  C
  H51      1.0000 0.42713  0.30867  0.17327  Biso   1.000  H
  C79      1.0000 0.44929  0.36134  0.11253  Biso   1.000  C
  H52      1.0000 0.44943  0.38087  0.14477  Biso   1.000  H
  C80      1.0000 0.41441  0.24170  0.09820  Biso   1.000  C
  C81      1.0000 0.37563  0.22157  0.13239  Biso   1.000  C
  H53      1.0000 0.36263  0.23847  0.14457  Biso   1.000  H
  H54      1.0000 0.51063  0.23267  0.11827  Biso   1.000  H
  O19      1.0000 0.36256  0.22023  0.59060  Biso   1.000  O
  O20      1.0000 0.38841  0.23324  0.69470  Biso   1.000  O
  C82      1.0000 0.38780  0.24437  0.63564  Biso   1.000  C
  C83      1.0000 0.42014  0.29086  0.61728  Biso   1.000  C
  C84      1.0000 0.44845  0.31954  0.66517  Biso   1.000  C
  H55      1.0000 0.44770  0.30960  0.70880  Biso   1.000  H
  C85      1.0000 0.47769  0.36264  0.64831  Biso   1.000  C
  H56      1.0000 0.49730  0.38200  0.68050  Biso   1.000  H
  C86      1.0000 0.47869  0.37785  0.58522  Biso   1.000  C
  C87      1.0000 0.45066  0.34839  0.53740  Biso   1.000  C
  H57      1.0000 0.45180  0.35800  0.49340  Biso   1.000  H
  C88      1.0000 0.42129  0.30533  0.55414  Biso   1.000  C
  H58      1.0000 0.40190  0.28580  0.52190  Biso   1.000  H
  C89      1.0000 0.50605  0.42497  0.56847  Biso   1.000  C
  C90      1.0000 0.48740  0.44510  0.53428  Biso   1.000  C
  H59      1.0000 0.45750  0.42820  0.52210  Biso   1.000  H
  H60      1.0000 0.61130  0.43400  0.54840  Biso   1.000  H
  O21      1.0000 0.02923  0.55356  0.92393  Biso   1.000  O
  O22      1.0000 0.05508  0.56657  0.02803  Biso   1.000  O
  C91      1.0000 0.05447  0.57770  0.96897  Biso   1.000  C
  C92      1.0000 0.08681  0.62419  0.95061  Biso   1.000  C
  C93      1.0000 0.11512  0.65287  0.99850  Biso   1.000  C
  H61      1.0000 0.11437  0.64293  0.04213  Biso   1.000  H
  C94      1.0000 0.14436  0.69597  0.98164  Biso   1.000  C
  H62      1.0000 0.16397  0.71533  0.01383  Biso   1.000  H
  C95      1.0000 0.14536  0.71118  0.91855  Biso   1.000  C
  C96      1.0000 0.11733  0.68172  0.87073  Biso   1.000  C
  H63      1.0000 0.11847  0.69133  0.82673  Biso   1.000  H
  C97      1.0000 0.08796  0.63866  0.88747  Biso   1.000  C
  H64      1.0000 0.06857  0.61913  0.85523  Biso   1.000  H
  C98      1.0000 0.17272  0.75830  0.90180  Biso   1.000  C
  C99      1.0000 0.15407  0.77843  0.86761  Biso   1.000  C
  H65      1.0000 0.12417  0.76153  0.85543  Biso   1.000  H
  H66      1.0000 0.27797  0.76733  0.88173  Biso   1.000  H
  O23      1.0000 0.69589  0.88690  0.25727  Biso   1.000  O
  O24      1.0000 0.72174  0.89991  0.36137  Biso   1.000  O
  C100     1.0000 0.72113  0.91104  0.30231  Biso   1.000  C
  C101     1.0000 0.75347  0.95753  0.28395  Biso   1.000  C
  C102     1.0000 0.78178  0.98621  0.33184  Biso   1.000  C
  H67      1.0000 0.78103  0.97627  0.37547  Biso   1.000  H
  C103     1.0000 0.81102  0.02931  0.31498  Biso   1.000  C
  H68      1.0000 0.83063  0.04867  0.34717  Biso   1.000  H
  C104     1.0000 0.81202  0.04452  0.25189  Biso   1.000  C
  C105     1.0000 0.78399  0.01506  0.20407  Biso   1.000  C
  H69      1.0000 0.78513  0.02467  0.16007  Biso   1.000  H
  C106     1.0000 0.75462  0.97200  0.22081  Biso   1.000  C
  H70      1.0000 0.73523  0.95247  0.18857  Biso   1.000  H
  C107     1.0000 0.83938  0.09164  0.23514  Biso   1.000  C
  C108     1.0000 0.82073  0.11177  0.20095  Biso   1.000  C
  H71      1.0000 0.79083  0.09487  0.18877  Biso   1.000  H
  H72      1.0000 0.94463  0.10067  0.21507  Biso   1.000  H
  O25      1.0000 0.85767  0.63744  0.59060  Biso   1.000  O
  O26      1.0000 0.84483  0.61159  0.69470  Biso   1.000  O
  C109     1.0000 0.85657  0.61220  0.63564  Biso   1.000  C
  C110     1.0000 0.87072  0.57986  0.61728  Biso   1.000  C
  C111     1.0000 0.87109  0.55155  0.66517  Biso   1.000  C
  H73      1.0000 0.86190  0.55230  0.70880  Biso   1.000  H
  C112     1.0000 0.88495  0.52231  0.64831  Biso   1.000  C
  H74      1.0000 0.88470  0.50270  0.68050  Biso   1.000  H
  C113     1.0000 0.89916  0.52131  0.58522  Biso   1.000  C
  C114     1.0000 0.89773  0.54934  0.53740  Biso   1.000  C
  H75      1.0000 0.90620  0.54820  0.49340  Biso   1.000  H
  C115     1.0000 0.88404  0.57871  0.55414  Biso   1.000  C
  H76      1.0000 0.88390  0.59810  0.52190  Biso   1.000  H
  C116     1.0000 0.91892  0.49395  0.56847  Biso   1.000  C
  C117     1.0000 0.95770  0.51260  0.53428  Biso   1.000  C
  H77      1.0000 0.97070  0.54250  0.52210  Biso   1.000  H
  H78      1.0000 0.82270  0.38870  0.54840  Biso   1.000  H
  O27      1.0000 0.52434  0.97077  0.92393  Biso   1.000  O
  O28      1.0000 0.51150  0.94492  0.02803  Biso   1.000  O
  C118     1.0000 0.52324  0.94553  0.96897  Biso   1.000  C
  C119     1.0000 0.53739  0.91319  0.95061  Biso   1.000  C
  C120     1.0000 0.53776  0.88488  0.99850  Biso   1.000  C
  H79      1.0000 0.52857  0.88563  0.04213  Biso   1.000  H
  C121     1.0000 0.55162  0.85564  0.98164  Biso   1.000  C
  H80      1.0000 0.55137  0.83603  0.01383  Biso   1.000  H
  C122     1.0000 0.56583  0.85464  0.91855  Biso   1.000  C
  C123     1.0000 0.56440  0.88267  0.87073  Biso   1.000  C
  H81      1.0000 0.57287  0.88153  0.82673  Biso   1.000  H
  C124     1.0000 0.55071  0.91204  0.88747  Biso   1.000  C
  H82      1.0000 0.55057  0.93143  0.85523  Biso   1.000  H
  C125     1.0000 0.58559  0.82728  0.90180  Biso   1.000  C
  C126     1.0000 0.62437  0.84593  0.86761  Biso   1.000  C
  H83      1.0000 0.63737  0.87583  0.85543  Biso   1.000  H
  H84      1.0000 0.48937  0.72203  0.88173  Biso   1.000  H
  O29      1.0000 0.19100  0.30411  0.25727  Biso   1.000  O
  O30      1.0000 0.17816  0.27826  0.36137  Biso   1.000  O
  C127     1.0000 0.18990  0.27887  0.30231  Biso   1.000  C
  C128     1.0000 0.20405  0.24653  0.28395  Biso   1.000  C
  C129     1.0000 0.20442  0.21822  0.33184  Biso   1.000  C
  H85      1.0000 0.19523  0.21897  0.37547  Biso   1.000  H
  C130     1.0000 0.21828  0.18898  0.31498  Biso   1.000  C
  H86      1.0000 0.21803  0.16937  0.34717  Biso   1.000  H
  C131     1.0000 0.23249  0.18798  0.25189  Biso   1.000  C
  C132     1.0000 0.23106  0.21601  0.20407  Biso   1.000  C
  H87      1.0000 0.23953  0.21487  0.16007  Biso   1.000  H
  C133     1.0000 0.21737  0.24538  0.22081  Biso   1.000  C
  H88      1.0000 0.21723  0.26477  0.18857  Biso   1.000  H
  C134     1.0000 0.25225  0.16062  0.23514  Biso   1.000  C
  C135     1.0000 0.29103  0.17927  0.20095  Biso   1.000  C
  H89      1.0000 0.30403  0.20917  0.18877  Biso   1.000  H
  H90      1.0000 0.15603  0.05537  0.21507  Biso   1.000  H
  O31      1.0000 0.77977  0.14233  0.59060  Biso   1.000  O
  O32      1.0000 0.76676  0.15517  0.69470  Biso   1.000  O
  C136     1.0000 0.75563  0.14343  0.63564  Biso   1.000  C
  C137     1.0000 0.70914  0.12928  0.61728  Biso   1.000  C
  C138     1.0000 0.68046  0.12891  0.66517  Biso   1.000  C
  H91      1.0000 0.69040  0.13810  0.70880  Biso   1.000  H
  C139     1.0000 0.63736  0.11505  0.64831  Biso   1.000  C
  H92      1.0000 0.61800  0.11530  0.68050  Biso   1.000  H
  C140     1.0000 0.62215  0.10084  0.58522  Biso   1.000  C
  C141     1.0000 0.65161  0.10227  0.53740  Biso   1.000  C
  H93      1.0000 0.64200  0.09380  0.49340  Biso   1.000  H
  C142     1.0000 0.69467  0.11596  0.55414  Biso   1.000  C
  H94      1.0000 0.71420  0.11610  0.52190  Biso   1.000  H
  C143     1.0000 0.57503  0.08108  0.56847  Biso   1.000  C
  C144     1.0000 0.55490  0.04230  0.53428  Biso   1.000  C
  H95      1.0000 0.57180  0.02930  0.52210  Biso   1.000  H
  H96      1.0000 0.56600  0.17730  0.54840  Biso   1.000  H
  O33      1.0000 0.44644  0.47566  0.92393  Biso   1.000  O
  O34      1.0000 0.43343  0.48850  0.02803  Biso   1.000  O
  C145     1.0000 0.42230  0.47676  0.96897  Biso   1.000  C
  C146     1.0000 0.37581  0.46261  0.95061  Biso   1.000  C
  C147     1.0000 0.34713  0.46224  0.99850  Biso   1.000  C
  H97      1.0000 0.35707  0.47143  0.04213  Biso   1.000  H
  C148     1.0000 0.30403  0.44838  0.98164  Biso   1.000  C
  H98      1.0000 0.28467  0.44863  0.01383  Biso   1.000  H
  C149     1.0000 0.28882  0.43417  0.91855  Biso   1.000  C
  C150     1.0000 0.31828  0.43560  0.87073  Biso   1.000  C
  H99      1.0000 0.30867  0.42713  0.82673  Biso   1.000  H
  C151     1.0000 0.36134  0.44929  0.88747  Biso   1.000  C
  H100     1.0000 0.38087  0.44943  0.85523  Biso   1.000  H
  C152     1.0000 0.24170  0.41441  0.90180  Biso   1.000  C
  C153     1.0000 0.22157  0.37563  0.86761  Biso   1.000  C
  H101     1.0000 0.23847  0.36263  0.85543  Biso   1.000  H
  H102     1.0000 0.23267  0.51063  0.88173  Biso   1.000  H
  O35      1.0000 0.11310  0.80900  0.25727  Biso   1.000  O
  O36      1.0000 0.10009  0.82184  0.36137  Biso   1.000  O
  C154     1.0000 0.08896  0.81010  0.30231  Biso   1.000  C
  C155     1.0000 0.04247  0.79595  0.28395  Biso   1.000  C
  C156     1.0000 0.01379  0.79558  0.33184  Biso   1.000  C
  H103     1.0000 0.02373  0.80477  0.37547  Biso   1.000  H
  C157     1.0000 0.97069  0.78172  0.31498  Biso   1.000  C
  H104     1.0000 0.95133  0.78197  0.34717  Biso   1.000  H
  C158     1.0000 0.95548  0.76751  0.25189  Biso   1.000  C
  C159     1.0000 0.98494  0.76894  0.20407  Biso   1.000  C
  H105     1.0000 0.97533  0.76047  0.16007  Biso   1.000  H
  C160     1.0000 0.02800  0.78263  0.22081  Biso   1.000  C
  H106     1.0000 0.04753  0.78277  0.18857  Biso   1.000  H
  C161     1.0000 0.90836  0.74775  0.23514  Biso   1.000  C
  C162     1.0000 0.88823  0.70897  0.20095  Biso   1.000  C
  H107     1.0000 0.90513  0.69597  0.18877  Biso   1.000  H
  H108     1.0000 0.89933  0.84397  0.21507  Biso   1.000  H
  O37      1.0000 0.77977  0.63744  0.59060  Biso   1.000  O
  O38      1.0000 0.76676  0.61159  0.69470  Biso   1.000  O
  C163     1.0000 0.75563  0.61220  0.63564  Biso   1.000  C
  C164     1.0000 0.70914  0.57986  0.61728  Biso   1.000  C
  C165     1.0000 0.68046  0.55155  0.66517  Biso   1.000  C
  H109     1.0000 0.69040  0.55230  0.70880  Biso   1.000  H
  C166     1.0000 0.63736  0.52231  0.64831  Biso   1.000  C
  H110     1.0000 0.61800  0.50270  0.68050  Biso   1.000  H
  C167     1.0000 0.62215  0.52131  0.58522  Biso   1.000  C
  C168     1.0000 0.65161  0.54934  0.53740  Biso   1.000  C
  H111     1.0000 0.64200  0.54820  0.49340  Biso   1.000  H
  C169     1.0000 0.69467  0.57871  0.55414  Biso   1.000  C
  H112     1.0000 0.71420  0.59810  0.52190  Biso   1.000  H
  C170     1.0000 0.57503  0.49395  0.56847  Biso   1.000  C
  C171     1.0000 0.55490  0.51260  0.53428  Biso   1.000  C
  H113     1.0000 0.57180  0.54250  0.52210  Biso   1.000  H
  H114     1.0000 0.56600  0.38870  0.54840  Biso   1.000  H
  O39      1.0000 0.44644  0.97077  0.92393  Biso   1.000  O
  O40      1.0000 0.43343  0.94492  0.02803  Biso   1.000  O
  C172     1.0000 0.42230  0.94553  0.96897  Biso   1.000  C
  C173     1.0000 0.37581  0.91319  0.95061  Biso   1.000  C
  C174     1.0000 0.34713  0.88488  0.99850  Biso   1.000  C
  H115     1.0000 0.35707  0.88563  0.04213  Biso   1.000  H
  C175     1.0000 0.30403  0.85564  0.98164  Biso   1.000  C
  H116     1.0000 0.28467  0.83603  0.01383  Biso   1.000  H
  C176     1.0000 0.28882  0.85464  0.91855  Biso   1.000  C
  C177     1.0000 0.31828  0.88267  0.87073  Biso   1.000  C
  H117     1.0000 0.30867  0.88153  0.82673  Biso   1.000  H
  C178     1.0000 0.36134  0.91204  0.88747  Biso   1.000  C
  H118     1.0000 0.38087  0.93143  0.85523  Biso   1.000  H
  C179     1.0000 0.24170  0.82728  0.90180  Biso   1.000  C
  C180     1.0000 0.22157  0.84593  0.86761  Biso   1.000  C
  H119     1.0000 0.23847  0.87583  0.85543  Biso   1.000  H
  H120     1.0000 0.23267  0.72203  0.88173  Biso   1.000  H
  O41      1.0000 0.11310  0.30411  0.25727  Biso   1.000  O
  O42      1.0000 0.10009  0.27826  0.36137  Biso   1.000  O
  C181     1.0000 0.08896  0.27887  0.30231  Biso   1.000  C
  C182     1.0000 0.04247  0.24653  0.28395  Biso   1.000  C
  C183     1.0000 0.01379  0.21822  0.33184  Biso   1.000  C
  H121     1.0000 0.02373  0.21897  0.37547  Biso   1.000  H
  C184     1.0000 0.97069  0.18898  0.31498  Biso   1.000  C
  H122     1.0000 0.95133  0.16937  0.34717  Biso   1.000  H
  C185     1.0000 0.95548  0.18798  0.25189  Biso   1.000  C
  C186     1.0000 0.98494  0.21601  0.20407  Biso   1.000  C
  H123     1.0000 0.97533  0.21487  0.16007  Biso   1.000  H
  C187     1.0000 0.02800  0.24538  0.22081  Biso   1.000  C
  H124     1.0000 0.04753  0.26477  0.18857  Biso   1.000  H
  C188     1.0000 0.90836  0.16062  0.23514  Biso   1.000  C
  C189     1.0000 0.88823  0.17927  0.20095  Biso   1.000  C
  H125     1.0000 0.90513  0.20917  0.18877  Biso   1.000  H
  H126     1.0000 0.89933  0.05537  0.21507  Biso   1.000  H
  O43      1.0000 0.36256  0.14233  0.59060  Biso   1.000  O
  O44      1.0000 0.38841  0.15517  0.69470  Biso   1.000  O
  C190     1.0000 0.38780  0.14343  0.63564  Biso   1.000  C
  C191     1.0000 0.42014  0.12928  0.61728  Biso   1.000  C
  C192     1.0000 0.44845  0.12891  0.66517  Biso   1.000  C
  H127     1.0000 0.44770  0.13810  0.70880  Biso   1.000  H
  C193     1.0000 0.47769  0.11505  0.64831  Biso   1.000  C
  H128     1.0000 0.49730  0.11530  0.68050  Biso   1.000  H
  C194     1.0000 0.47869  0.10084  0.58522  Biso   1.000  C
  C195     1.0000 0.45066  0.10227  0.53740  Biso   1.000  C
  H129     1.0000 0.45180  0.09380  0.49340  Biso   1.000  H
  C196     1.0000 0.42129  0.11596  0.55414  Biso   1.000  C
  H130     1.0000 0.40190  0.11610  0.52190  Biso   1.000  H
  C197     1.0000 0.50605  0.08108  0.56847  Biso   1.000  C
  C198     1.0000 0.48740  0.04230  0.53428  Biso   1.000  C
  H131     1.0000 0.45750  0.02930  0.52210  Biso   1.000  H
  H132     1.0000 0.61130  0.17730  0.54840  Biso   1.000  H
  O45      1.0000 0.02923  0.47566  0.92393  Biso   1.000  O
  O46      1.0000 0.05508  0.48850  0.02803  Biso   1.000  O
  C199     1.0000 0.05447  0.47676  0.96897  Biso   1.000  C
  C200     1.0000 0.08681  0.46261  0.95061  Biso   1.000  C
  C201     1.0000 0.11512  0.46224  0.99850  Biso   1.000  C
  H133     1.0000 0.11437  0.47143  0.04213  Biso   1.000  H
  C202     1.0000 0.14436  0.44838  0.98164  Biso   1.000  C
  H134     1.0000 0.16397  0.44863  0.01383  Biso   1.000  H
  C203     1.0000 0.14536  0.43417  0.91855  Biso   1.000  C
  C204     1.0000 0.11733  0.43560  0.87073  Biso   1.000  C
  H135     1.0000 0.11847  0.42713  0.82673  Biso   1.000  H
  C205     1.0000 0.08796  0.44929  0.88747  Biso   1.000  C
  H136     1.0000 0.06857  0.44943  0.85523  Biso   1.000  H
  C206     1.0000 0.17272  0.41441  0.90180  Biso   1.000  C
  C207     1.0000 0.15407  0.37563  0.86761  Biso   1.000  C
  H137     1.0000 0.12417  0.36263  0.85543  Biso   1.000  H
  H138     1.0000 0.27797  0.51063  0.88173  Biso   1.000  H
  O47      1.0000 0.69589  0.80900  0.25727  Biso   1.000  O
  O48      1.0000 0.72174  0.82184  0.36137  Biso   1.000  O
  C208     1.0000 0.72113  0.81010  0.30231  Biso   1.000  C
  C209     1.0000 0.75347  0.79595  0.28395  Biso   1.000  C
  C210     1.0000 0.78178  0.79558  0.33184  Biso   1.000  C
  H139     1.0000 0.78103  0.80477  0.37547  Biso   1.000  H
  C211     1.0000 0.81102  0.78172  0.31498  Biso   1.000  C
  H140     1.0000 0.83063  0.78197  0.34717  Biso   1.000  H
  C212     1.0000 0.81202  0.76751  0.25189  Biso   1.000  C
  C213     1.0000 0.78399  0.76894  0.20407  Biso   1.000  C
  H141     1.0000 0.78513  0.76047  0.16007  Biso   1.000  H
  C214     1.0000 0.75462  0.78263  0.22081  Biso   1.000  C
  H142     1.0000 0.73523  0.78277  0.18857  Biso   1.000  H
  C215     1.0000 0.83938  0.74775  0.23514  Biso   1.000  C
  C216     1.0000 0.82073  0.70897  0.20095  Biso   1.000  C
  H143     1.0000 0.79083  0.69597  0.18877  Biso   1.000  H
  H144     1.0000 0.94463  0.84397  0.21507  Biso   1.000  H
  O49      1.0000 0.85767  0.22023  0.59060  Biso   1.000  O
  O50      1.0000 0.84483  0.23324  0.69470  Biso   1.000  O
  C217     1.0000 0.85657  0.24437  0.63564  Biso   1.000  C
  C218     1.0000 0.87072  0.29086  0.61728  Biso   1.000  C
  C219     1.0000 0.87109  0.31954  0.66517  Biso   1.000  C
  H145     1.0000 0.86190  0.30960  0.70880  Biso   1.000  H
  C220     1.0000 0.88495  0.36264  0.64831  Biso   1.000  C
  H146     1.0000 0.88470  0.38200  0.68050  Biso   1.000  H
  C221     1.0000 0.89916  0.37785  0.58522  Biso   1.000  C
  C222     1.0000 0.89773  0.34839  0.53740  Biso   1.000  C
  H147     1.0000 0.90620  0.35800  0.49340  Biso   1.000  H
  C223     1.0000 0.88404  0.30533  0.55414  Biso   1.000  C
  H148     1.0000 0.88390  0.28580  0.52190  Biso   1.000  H
  C224     1.0000 0.91892  0.42497  0.56847  Biso   1.000  C
  C225     1.0000 0.95770  0.44510  0.53428  Biso   1.000  C
  H149     1.0000 0.97070  0.42820  0.52210  Biso   1.000  H
  H150     1.0000 0.82270  0.43400  0.54840  Biso   1.000  H
  O51      1.0000 0.52434  0.55356  0.92393  Biso   1.000  O
  O52      1.0000 0.51150  0.56657  0.02803  Biso   1.000  O
  C226     1.0000 0.52324  0.57770  0.96897  Biso   1.000  C
  C227     1.0000 0.53739  0.62419  0.95061  Biso   1.000  C
  C228     1.0000 0.53776  0.65287  0.99850  Biso   1.000  C
  H151     1.0000 0.52857  0.64293  0.04213  Biso   1.000  H
  C229     1.0000 0.55162  0.69597  0.98164  Biso   1.000  C
  H152     1.0000 0.55137  0.71533  0.01383  Biso   1.000  H
  C230     1.0000 0.56583  0.71118  0.91855  Biso   1.000  C
  C231     1.0000 0.56440  0.68172  0.87073  Biso   1.000  C
  H153     1.0000 0.57287  0.69133  0.82673  Biso   1.000  H
  C232     1.0000 0.55071  0.63866  0.88747  Biso   1.000  C
  H154     1.0000 0.55057  0.61913  0.85523  Biso   1.000  H
  C233     1.0000 0.58559  0.75830  0.90180  Biso   1.000  C
  C234     1.0000 0.62437  0.77843  0.86761  Biso   1.000  C
  H155     1.0000 0.63737  0.76153  0.85543  Biso   1.000  H
  H156     1.0000 0.48937  0.76733  0.88173  Biso   1.000  H
  O53      1.0000 0.19100  0.88690  0.25727  Biso   1.000  O
  O54      1.0000 0.17816  0.89991  0.36137  Biso   1.000  O
  C235     1.0000 0.18990  0.91104  0.30231  Biso   1.000  C
  C236     1.0000 0.20405  0.95753  0.28395  Biso   1.000  C
  C237     1.0000 0.20442  0.98621  0.33184  Biso   1.000  C
  H157     1.0000 0.19523  0.97627  0.37547  Biso   1.000  H
  C238     1.0000 0.21828  0.02931  0.31498  Biso   1.000  C
  H158     1.0000 0.21803  0.04867  0.34717  Biso   1.000  H
  C239     1.0000 0.23249  0.04452  0.25189  Biso   1.000  C
  C240     1.0000 0.23106  0.01506  0.20407  Biso   1.000  C
  H159     1.0000 0.23953  0.02467  0.16007  Biso   1.000  H
  C241     1.0000 0.21737  0.97200  0.22081  Biso   1.000  C
  H160     1.0000 0.21723  0.95247  0.18857  Biso   1.000  H
  C242     1.0000 0.25225  0.09164  0.23514  Biso   1.000  C
  C243     1.0000 0.29103  0.11177  0.20095  Biso   1.000  C
  H161     1.0000 0.30403  0.09487  0.18877  Biso   1.000  H
  H162     1.0000 0.15603  0.10067  0.21507  Biso   1.000  H
  O55      1.0000 0.63744  0.77977  0.40940  Biso   1.000  O
  O56      1.0000 0.61159  0.76676  0.30530  Biso   1.000  O
  C244     1.0000 0.61220  0.75563  0.36436  Biso   1.000  C
  C245     1.0000 0.57986  0.70914  0.38272  Biso   1.000  C
  C246     1.0000 0.55155  0.68046  0.33483  Biso   1.000  C
  H163     1.0000 0.55230  0.69040  0.29120  Biso   1.000  H
  C247     1.0000 0.52231  0.63736  0.35169  Biso   1.000  C
  H164     1.0000 0.50270  0.61800  0.31950  Biso   1.000  H
  C248     1.0000 0.52131  0.62215  0.41478  Biso   1.000  C
  C249     1.0000 0.54934  0.65161  0.46260  Biso   1.000  C
  H165     1.0000 0.54820  0.64200  0.50660  Biso   1.000  H
  C250     1.0000 0.57871  0.69467  0.44586  Biso   1.000  C
  H166     1.0000 0.59810  0.71420  0.47810  Biso   1.000  H
  C251     1.0000 0.49395  0.57503  0.43153  Biso   1.000  C
  C252     1.0000 0.51260  0.55490  0.46572  Biso   1.000  C
  H167     1.0000 0.54250  0.57180  0.47790  Biso   1.000  H
  H168     1.0000 0.38870  0.56600  0.45160  Biso   1.000  H
  O57      1.0000 0.30411  0.11310  0.74273  Biso   1.000  O
  O58      1.0000 0.27826  0.10009  0.63863  Biso   1.000  O
  C253     1.0000 0.27887  0.08896  0.69769  Biso   1.000  C
  C254     1.0000 0.24653  0.04247  0.71605  Biso   1.000  C
  C255     1.0000 0.21822  0.01379  0.66816  Biso   1.000  C
  H169     1.0000 0.21897  0.02373  0.62453  Biso   1.000  H
  C256     1.0000 0.18898  0.97069  0.68502  Biso   1.000  C
  H170     1.0000 0.16937  0.95133  0.65283  Biso   1.000  H
  C257     1.0000 0.18798  0.95548  0.74811  Biso   1.000  C
  C258     1.0000 0.21601  0.98494  0.79593  Biso   1.000  C
  H171     1.0000 0.21487  0.97533  0.83993  Biso   1.000  H
  C259     1.0000 0.24538  0.02800  0.77919  Biso   1.000  C
  H172     1.0000 0.26477  0.04753  0.81143  Biso   1.000  H
  C260     1.0000 0.16062  0.90836  0.76486  Biso   1.000  C
  C261     1.0000 0.17927  0.88823  0.79905  Biso   1.000  C
  H173     1.0000 0.20917  0.90513  0.81123  Biso   1.000  H
  H174     1.0000 0.05537  0.89933  0.78493  Biso   1.000  H
  O59      1.0000 0.97077  0.44644  0.07607  Biso   1.000  O
  O60      1.0000 0.94492  0.43343  0.97197  Biso   1.000  O
  C262     1.0000 0.94553  0.42230  0.03103  Biso   1.000  C
  C263     1.0000 0.91319  0.37581  0.04939  Biso   1.000  C
  C264     1.0000 0.88488  0.34713  0.00150  Biso   1.000  C
  H175     1.0000 0.88563  0.35707  0.95787  Biso   1.000  H
  C265     1.0000 0.85564  0.30403  0.01836  Biso   1.000  C
  H176     1.0000 0.83603  0.28467  0.98617  Biso   1.000  H
  C266     1.0000 0.85464  0.28882  0.08145  Biso   1.000  C
  C267     1.0000 0.88267  0.31828  0.12927  Biso   1.000  C
  H177     1.0000 0.88153  0.30867  0.17327  Biso   1.000  H
  C268     1.0000 0.91204  0.36134  0.11253  Biso   1.000  C
  H178     1.0000 0.93143  0.38087  0.14477  Biso   1.000  H
  C269     1.0000 0.82728  0.24170  0.09820  Biso   1.000  C
  C270     1.0000 0.84593  0.22157  0.13239  Biso   1.000  C
  H179     1.0000 0.87583  0.23847  0.14457  Biso   1.000  H
  H180     1.0000 0.72203  0.23267  0.11827  Biso   1.000  H
  O61      1.0000 0.14233  0.36256  0.40940  Biso   1.000  O
  O62      1.0000 0.15517  0.38841  0.30530  Biso   1.000  O
  C271     1.0000 0.14343  0.38780  0.36436  Biso   1.000  C
  C272     1.0000 0.12928  0.42014  0.38272  Biso   1.000  C
  C273     1.0000 0.12891  0.44845  0.33483  Biso   1.000  C
  H181     1.0000 0.13810  0.44770  0.29120  Biso   1.000  H
  C274     1.0000 0.11505  0.47769  0.35169  Biso   1.000  C
  H182     1.0000 0.11530  0.49730  0.31950  Biso   1.000  H
  C275     1.0000 0.10084  0.47869  0.41478  Biso   1.000  C
  C276     1.0000 0.10227  0.45066  0.46260  Biso   1.000  C
  H183     1.0000 0.09380  0.45180  0.50660  Biso   1.000  H
  C277     1.0000 0.11596  0.42129  0.44586  Biso   1.000  C
  H184     1.0000 0.11610  0.40190  0.47810  Biso   1.000  H
  C278     1.0000 0.08108  0.50605  0.43153  Biso   1.000  C
  C279     1.0000 0.04230  0.48740  0.46572  Biso   1.000  C
  H185     1.0000 0.02930  0.45750  0.47790  Biso   1.000  H
  H186     1.0000 0.17730  0.61130  0.45160  Biso   1.000  H
  O63      1.0000 0.80900  0.69589  0.74273  Biso   1.000  O
  O64      1.0000 0.82184  0.72174  0.63863  Biso   1.000  O
  C280     1.0000 0.81010  0.72113  0.69769  Biso   1.000  C
  C281     1.0000 0.79595  0.75347  0.71605  Biso   1.000  C
  C282     1.0000 0.79558  0.78178  0.66816  Biso   1.000  C
  H187     1.0000 0.80477  0.78103  0.62453  Biso   1.000  H
  C283     1.0000 0.78172  0.81102  0.68502  Biso   1.000  C
  H188     1.0000 0.78197  0.83063  0.65283  Biso   1.000  H
  C284     1.0000 0.76751  0.81202  0.74811  Biso   1.000  C
  C285     1.0000 0.76894  0.78399  0.79593  Biso   1.000  C
  H189     1.0000 0.76047  0.78513  0.83993  Biso   1.000  H
  C286     1.0000 0.78263  0.75462  0.77919  Biso   1.000  C
  H190     1.0000 0.78277  0.73523  0.81143  Biso   1.000  H
  C287     1.0000 0.74775  0.83938  0.76486  Biso   1.000  C
  C288     1.0000 0.70897  0.82073  0.79905  Biso   1.000  C
  H191     1.0000 0.69597  0.79083  0.81123  Biso   1.000  H
  H192     1.0000 0.84397  0.94463  0.78493  Biso   1.000  H
  O65      1.0000 0.47566  0.02923  0.07607  Biso   1.000  O
  O66      1.0000 0.48850  0.05508  0.97197  Biso   1.000  O
  C289     1.0000 0.47676  0.05447  0.03103  Biso   1.000  C
  C290     1.0000 0.46261  0.08681  0.04939  Biso   1.000  C
  C291     1.0000 0.46224  0.11512  0.00150  Biso   1.000  C
  H193     1.0000 0.47143  0.11437  0.95787  Biso   1.000  H
  C292     1.0000 0.44838  0.14436  0.01836  Biso   1.000  C
  H194     1.0000 0.44863  0.16397  0.98617  Biso   1.000  H
  C293     1.0000 0.43417  0.14536  0.08145  Biso   1.000  C
  C294     1.0000 0.43560  0.11733  0.12927  Biso   1.000  C
  H195     1.0000 0.42713  0.11847  0.17327  Biso   1.000  H
  C295     1.0000 0.44929  0.08796  0.11253  Biso   1.000  C
  H196     1.0000 0.44943  0.06857  0.14477  Biso   1.000  H
  C296     1.0000 0.41441  0.17272  0.09820  Biso   1.000  C
  C297     1.0000 0.37563  0.15407  0.13239  Biso   1.000  C
  H197     1.0000 0.36263  0.12417  0.14457  Biso   1.000  H
  H198     1.0000 0.51063  0.27797  0.11827  Biso   1.000  H
  O67      1.0000 0.22023  0.85767  0.40940  Biso   1.000  O
  O68      1.0000 0.23324  0.84483  0.30530  Biso   1.000  O
  C298     1.0000 0.24437  0.85657  0.36436  Biso   1.000  C
  C299     1.0000 0.29086  0.87072  0.38272  Biso   1.000  C
  C300     1.0000 0.31954  0.87109  0.33483  Biso   1.000  C
  H199     1.0000 0.30960  0.86190  0.29120  Biso   1.000  H
  C301     1.0000 0.36264  0.88495  0.35169  Biso   1.000  C
  H200     1.0000 0.38200  0.88470  0.31950  Biso   1.000  H
  C302     1.0000 0.37785  0.89916  0.41478  Biso   1.000  C
  C303     1.0000 0.34839  0.89773  0.46260  Biso   1.000  C
  H201     1.0000 0.35800  0.90620  0.50660  Biso   1.000  H
  C304     1.0000 0.30533  0.88404  0.44586  Biso   1.000  C
  H202     1.0000 0.28580  0.88390  0.47810  Biso   1.000  H
  C305     1.0000 0.42497  0.91892  0.43153  Biso   1.000  C
  C306     1.0000 0.44510  0.95770  0.46572  Biso   1.000  C
  H203     1.0000 0.42820  0.97070  0.47790  Biso   1.000  H
  H204     1.0000 0.43400  0.82270  0.45160  Biso   1.000  H
  O69      1.0000 0.88690  0.19100  0.74273  Biso   1.000  O
  O70      1.0000 0.89991  0.17816  0.63863  Biso   1.000  O
  C307     1.0000 0.91104  0.18990  0.69769  Biso   1.000  C
  C308     1.0000 0.95753  0.20405  0.71605  Biso   1.000  C
  C309     1.0000 0.98621  0.20442  0.66816  Biso   1.000  C
  H205     1.0000 0.97627  0.19523  0.62453  Biso   1.000  H
  C310     1.0000 0.02931  0.21828  0.68502  Biso   1.000  C
  H206     1.0000 0.04867  0.21803  0.65283  Biso   1.000  H
  C311     1.0000 0.04452  0.23249  0.74811  Biso   1.000  C
  C312     1.0000 0.01506  0.23106  0.79593  Biso   1.000  C
  H207     1.0000 0.02467  0.23953  0.83993  Biso   1.000  H
  C313     1.0000 0.97200  0.21737  0.77919  Biso   1.000  C
  H208     1.0000 0.95247  0.21723  0.81143  Biso   1.000  H
  C314     1.0000 0.09164  0.25225  0.76486  Biso   1.000  C
  C315     1.0000 0.11177  0.29103  0.79905  Biso   1.000  C
  H209     1.0000 0.09487  0.30403  0.81123  Biso   1.000  H
  H210     1.0000 0.10067  0.15603  0.78493  Biso   1.000  H
  O71      1.0000 0.55356  0.52434  0.07607  Biso   1.000  O
  O72      1.0000 0.56657  0.51150  0.97197  Biso   1.000  O
  C316     1.0000 0.57770  0.52324  0.03103  Biso   1.000  C
  C317     1.0000 0.62419  0.53739  0.04939  Biso   1.000  C
  C318     1.0000 0.65287  0.53776  0.00150  Biso   1.000  C
  H211     1.0000 0.64293  0.52857  0.95787  Biso   1.000  H
  C319     1.0000 0.69597  0.55162  0.01836  Biso   1.000  C
  H212     1.0000 0.71533  0.55137  0.98617  Biso   1.000  H
  C320     1.0000 0.71118  0.56583  0.08145  Biso   1.000  C
  C321     1.0000 0.68172  0.56440  0.12927  Biso   1.000  C
  H213     1.0000 0.69133  0.57287  0.17327  Biso   1.000  H
  C322     1.0000 0.63866  0.55071  0.11253  Biso   1.000  C
  H214     1.0000 0.61913  0.55057  0.14477  Biso   1.000  H
  C323     1.0000 0.75830  0.58559  0.09820  Biso   1.000  C
  C324     1.0000 0.77843  0.62437  0.13239  Biso   1.000  C
  H215     1.0000 0.76153  0.63737  0.14457  Biso   1.000  H
  H216     1.0000 0.76733  0.48937  0.11827  Biso   1.000  H
  Cu1      1.0000 0.17426  0.34853  0.27257  Biso   1.000  Cu
  Cu2      1.0000 0.84093  0.68186  0.60590  Biso   1.000  Cu
  Cu3      1.0000 0.50760  0.01520  0.93924  Biso   1.000  Cu
  Cu4      1.0000 0.65147  0.82574  0.27257  Biso   1.000  Cu
  Cu5      1.0000 0.31814  0.15907  0.60590  Biso   1.000  Cu
  Cu6      1.0000 0.98480  0.49240  0.93924  Biso   1.000  Cu
  Cu7      1.0000 0.17427  0.82574  0.27257  Biso   1.000  Cu
  Cu8      1.0000 0.84093  0.15907  0.60590  Biso   1.000  Cu
  Cu9      1.0000 0.50760  0.49240  0.93924  Biso   1.000  Cu
  Cu10     1.0000 0.34853  0.17426  0.72743  Biso   1.000  Cu
  Cu11     1.0000 0.01520  0.50760  0.06076  Biso   1.000  Cu
  Cu12     1.0000 0.68186  0.84093  0.39410  Biso   1.000  Cu
  Cu13     1.0000 0.82574  0.65147  0.72743  Biso   1.000  Cu
  Cu14     1.0000 0.49240  0.98480  0.06076  Biso   1.000  Cu
  Cu15     1.0000 0.15907  0.31814  0.39410  Biso   1.000  Cu
  Cu16     1.0000 0.82574  0.17427  0.72743  Biso   1.000  Cu
  Cu17     1.0000 0.49240  0.50760  0.06076  Biso   1.000  Cu
  Cu18     1.0000 0.15907  0.84093  0.39410  Biso   1.000  Cu
  O73      1.0000 0.42994  0.57006  0.37983  Biso   1.000  O
  C325     1.0000 0.48946  0.51054  0.48340  Biso   1.000  C
  C326     1.0000 0.44966  0.55034  0.41398  Biso   1.000  C
  C327     1.0000 0.41095  0.58905  0.42390  Biso   1.000  C
  H217     1.0000 0.39750  0.60250  0.39770  Biso   1.000  H
  O74      1.0000 0.09661  0.90339  0.71316  Biso   1.000  O
  C328     1.0000 0.15613  0.84387  0.81673  Biso   1.000  C
  C329     1.0000 0.11633  0.88367  0.74731  Biso   1.000  C
  C330     1.0000 0.07762  0.92238  0.75723  Biso   1.000  C
  H218     1.0000 0.06417  0.93583  0.73103  Biso   1.000  H
  O75      1.0000 0.76327  0.23673  0.04650  Biso   1.000  O
  C331     1.0000 0.82279  0.17721  0.15007  Biso   1.000  C
  C332     1.0000 0.78299  0.21701  0.08065  Biso   1.000  C
  C333     1.0000 0.74428  0.25572  0.09057  Biso   1.000  C
  H219     1.0000 0.73083  0.26917  0.06437  Biso   1.000  H
  O76      1.0000 0.42994  0.85988  0.37983  Biso   1.000  O
  C334     1.0000 0.48946  0.97892  0.48340  Biso   1.000  C
  C335     1.0000 0.44966  0.89932  0.41398  Biso   1.000  C
  C336     1.0000 0.41095  0.82190  0.42390  Biso   1.000  C
  H220     1.0000 0.39750  0.79500  0.39770  Biso   1.000  H
  O77      1.0000 0.09661  0.19321  0.71316  Biso   1.000  O
  C337     1.0000 0.15613  0.31225  0.81673  Biso   1.000  C
  C338     1.0000 0.11633  0.23265  0.74731  Biso   1.000  C
  C339     1.0000 0.07762  0.15523  0.75723  Biso   1.000  C
  H221     1.0000 0.06417  0.12833  0.73103  Biso   1.000  H
  O78      1.0000 0.76327  0.52655  0.04650  Biso   1.000  O
  C340     1.0000 0.82279  0.64559  0.15007  Biso   1.000  C
  C341     1.0000 0.78299  0.56599  0.08065  Biso   1.000  C
  C342     1.0000 0.74428  0.48857  0.09057  Biso   1.000  C
  H222     1.0000 0.73083  0.46167  0.06437  Biso   1.000  H
  O79      1.0000 0.14012  0.57006  0.37983  Biso   1.000  O
  C343     1.0000 0.02108  0.51054  0.48340  Biso   1.000  C
  C344     1.0000 0.10068  0.55034  0.41398  Biso   1.000  C
  C345     1.0000 0.17810  0.58905  0.42390  Biso   1.000  C
  H223     1.0000 0.20500  0.60250  0.39770  Biso   1.000  H
  O80      1.0000 0.80679  0.90339  0.71316  Biso   1.000  O
  C346     1.0000 0.68775  0.84387  0.81673  Biso   1.000  C
  C347     1.0000 0.76735  0.88367  0.74731  Biso   1.000  C
  C348     1.0000 0.84477  0.92238  0.75723  Biso   1.000  C
  H224     1.0000 0.87167  0.93583  0.73103  Biso   1.000  H
  O81      1.0000 0.47345  0.23673  0.04650  Biso   1.000  O
  C349     1.0000 0.35441  0.17721  0.15007  Biso   1.000  C
  C350     1.0000 0.43401  0.21701  0.08065  Biso   1.000  C
  C351     1.0000 0.51143  0.25572  0.09057  Biso   1.000  C
  H225     1.0000 0.53833  0.26917  0.06437  Biso   1.000  H
  O82      1.0000 0.57006  0.42994  0.62017  Biso   1.000  O
  C352     1.0000 0.51054  0.48946  0.51660  Biso   1.000  C
  C353     1.0000 0.55034  0.44966  0.58602  Biso   1.000  C
  C354     1.0000 0.58905  0.41095  0.57610  Biso   1.000  C
  H226     1.0000 0.60250  0.39750  0.60230  Biso   1.000  H
  O83      1.0000 0.23673  0.76327  0.95350  Biso   1.000  O
  C355     1.0000 0.17721  0.82279  0.84993  Biso   1.000  C
  C356     1.0000 0.21701  0.78299  0.91935  Biso   1.000  C
  C357     1.0000 0.25572  0.74428  0.90943  Biso   1.000  C
  H227     1.0000 0.26917  0.73083  0.93563  Biso   1.000  H
  O84      1.0000 0.90339  0.09661  0.28684  Biso   1.000  O
  C358     1.0000 0.84387  0.15613  0.18327  Biso   1.000  C
  C359     1.0000 0.88367  0.11633  0.25269  Biso   1.000  C
  C360     1.0000 0.92238  0.07762  0.24277  Biso   1.000  C
  H228     1.0000 0.93583  0.06417  0.26897  Biso   1.000  H
  O85      1.0000 0.85988  0.42994  0.62017  Biso   1.000  O
  C361     1.0000 0.97892  0.48946  0.51660  Biso   1.000  C
  C362     1.0000 0.89932  0.44966  0.58602  Biso   1.000  C
  C363     1.0000 0.82190  0.41095  0.57610  Biso   1.000  C
  H229     1.0000 0.79500  0.39750  0.60230  Biso   1.000  H
  O86      1.0000 0.52655  0.76327  0.95350  Biso   1.000  O
  C364     1.0000 0.64559  0.82279  0.84993  Biso   1.000  C
  C365     1.0000 0.56599  0.78299  0.91935  Biso   1.000  C
  C366     1.0000 0.48857  0.74428  0.90943  Biso   1.000  C
  H230     1.0000 0.46167  0.73083  0.93563  Biso   1.000  H
  O87      1.0000 0.19321  0.09661  0.28684  Biso   1.000  O
  C367     1.0000 0.31225  0.15613  0.18327  Biso   1.000  C
  C368     1.0000 0.23265  0.11633  0.25269  Biso   1.000  C
  C369     1.0000 0.15523  0.07762  0.24277  Biso   1.000  C
  H231     1.0000 0.12833  0.06417  0.26897  Biso   1.000  H
  O88      1.0000 0.57006  0.14012  0.62017  Biso   1.000  O
  C370     1.0000 0.51054  0.02108  0.51660  Biso   1.000  C
  C371     1.0000 0.55034  0.10068  0.58602  Biso   1.000  C
  C372     1.0000 0.58905  0.17810  0.57610  Biso   1.000  C
  H232     1.0000 0.60250  0.20500  0.60230  Biso   1.000  H
  O89      1.0000 0.23673  0.47345  0.95350  Biso   1.000  O
  C373     1.0000 0.17721  0.35441  0.84993  Biso   1.000  C
  C374     1.0000 0.21701  0.43401  0.91935  Biso   1.000  C
  C375     1.0000 0.25572  0.51143  0.90943  Biso   1.000  C
  H233     1.0000 0.26917  0.53833  0.93563  Biso   1.000  H
  O90      1.0000 0.90339  0.80679  0.28684  Biso   1.000  O
  C376     1.0000 0.84387  0.68775  0.18327  Biso   1.000  C
  C377     1.0000 0.88367  0.76735  0.25269  Biso   1.000  C
  C378     1.0000 0.92238  0.84477  0.24277  Biso   1.000  C
  H234     1.0000 0.93583  0.87167  0.26897  Biso   1.000  H
