data_image0
_cell_length_a       34.8004
_cell_length_b       34.8004
_cell_length_c       24.2223
_cell_angle_alpha    90
_cell_angle_beta     90
_cell_angle_gamma    120

_symmetry_space_group_name_H-M    "P 1"
_symmetry_int_tables_number       1

loop_
  _symmetry_equiv_pos_as_xyz
  'x, y, z'

loop_
  _atom_site_label
  _atom_site_occupancy
  _atom_site_fract_x
  _atom_site_fract_y
  _atom_site_fract_z
  _atom_site_thermal_displace_type
  _atom_site_B_iso_or_equiv
  _atom_site_type_symbol
  O1       1.0000 0.64027  0.78058  0.39896  Biso   1.000  O
  O2       1.0000 0.61009  0.76529  0.31427  Biso   1.000  O
  C1       1.0000 0.61311  0.75504  0.36340  Biso   1.000  C
  C2       1.0000 0.58196  0.70824  0.38120  Biso   1.000  C
  C3       1.0000 0.55365  0.67693  0.34322  Biso   1.000  C
  H1       1.0000 0.55390  0.68500  0.30660  Biso   1.000  H
  C4       1.0000 0.52526  0.63408  0.35976  Biso   1.000  C
  H2       1.0000 0.50560  0.61380  0.33430  Biso   1.000  H
  C5       1.0000 0.52513  0.62039  0.41330  Biso   1.000  C
  C6       1.0000 0.55396  0.65177  0.45005  Biso   1.000  C
  H3       1.0000 0.55440  0.64370  0.48650  Biso   1.000  H
  C7       1.0000 0.58228  0.69507  0.43387  Biso   1.000  C
  H4       1.0000 0.60180  0.71540  0.45940  Biso   1.000  H
  C8       1.0000 0.49635  0.57358  0.43114  Biso   1.000  C
  C9       1.0000 0.51444  0.55373  0.46419  Biso   1.000  C
  H5       1.0000 0.54410  0.57050  0.47460  Biso   1.000  H
  H6       1.0000 0.43460  0.61050  0.43020  Biso   1.000  H
  O3       1.0000 0.30694  0.11391  0.73229  Biso   1.000  O
  O4       1.0000 0.27676  0.09862  0.64760  Biso   1.000  O
  C10      1.0000 0.27978  0.08837  0.69673  Biso   1.000  C
  C11      1.0000 0.24863  0.04157  0.71453  Biso   1.000  C
  C12      1.0000 0.22032  0.01026  0.67655  Biso   1.000  C
  H7       1.0000 0.22057  0.01833  0.63993  Biso   1.000  H
  C13      1.0000 0.19193  0.96741  0.69309  Biso   1.000  C
  H8       1.0000 0.17227  0.94713  0.66763  Biso   1.000  H
  C14      1.0000 0.19180  0.95372  0.74663  Biso   1.000  C
  C15      1.0000 0.22063  0.98510  0.78338  Biso   1.000  C
  H9       1.0000 0.22107  0.97703  0.81983  Biso   1.000  H
  C16      1.0000 0.24895  0.02840  0.76720  Biso   1.000  C
  H10      1.0000 0.26847  0.04873  0.79273  Biso   1.000  H
  C17      1.0000 0.16302  0.90691  0.76447  Biso   1.000  C
  C18      1.0000 0.18111  0.88706  0.79752  Biso   1.000  C
  H11      1.0000 0.21077  0.90383  0.80793  Biso   1.000  H
  H12      1.0000 0.10127  0.94383  0.76353  Biso   1.000  H
  O5       1.0000 0.97360  0.44725  0.06563  Biso   1.000  O
  O6       1.0000 0.94342  0.43196  0.98094  Biso   1.000  O
  C19      1.0000 0.94644  0.42171  0.03007  Biso   1.000  C
  C20      1.0000 0.91529  0.37491  0.04787  Biso   1.000  C
  C21      1.0000 0.88698  0.34360  0.00989  Biso   1.000  C
  H13      1.0000 0.88723  0.35167  0.97327  Biso   1.000  H
  C22      1.0000 0.85859  0.30075  0.02643  Biso   1.000  C
  H14      1.0000 0.83893  0.28047  0.00097  Biso   1.000  H
  C23      1.0000 0.85846  0.28706  0.07997  Biso   1.000  C
  C24      1.0000 0.88729  0.31844  0.11672  Biso   1.000  C
  H15      1.0000 0.88773  0.31037  0.15317  Biso   1.000  H
  C25      1.0000 0.91561  0.36174  0.10054  Biso   1.000  C
  H16      1.0000 0.93513  0.38207  0.12607  Biso   1.000  H
  C26      1.0000 0.82968  0.24025  0.09781  Biso   1.000  C
  C27      1.0000 0.84777  0.22040  0.13086  Biso   1.000  C
  H17      1.0000 0.87743  0.23717  0.14127  Biso   1.000  H
  H18      1.0000 0.76793  0.27717  0.09687  Biso   1.000  H
  O7       1.0000 0.21942  0.85969  0.39896  Biso   1.000  O
  O8       1.0000 0.23471  0.84480  0.31427  Biso   1.000  O
  C28      1.0000 0.24496  0.85807  0.36340  Biso   1.000  C
  C29      1.0000 0.29176  0.87372  0.38120  Biso   1.000  C
  C30      1.0000 0.32307  0.87672  0.34322  Biso   1.000  C
  H19      1.0000 0.31500  0.86890  0.30660  Biso   1.000  H
  C31      1.0000 0.36592  0.89118  0.35976  Biso   1.000  C
  H20      1.0000 0.38620  0.89180  0.33430  Biso   1.000  H
  C32      1.0000 0.37961  0.90474  0.41330  Biso   1.000  C
  C33      1.0000 0.34823  0.90219  0.45005  Biso   1.000  C
  H21      1.0000 0.35630  0.91070  0.48650  Biso   1.000  H
  C34      1.0000 0.30493  0.88721  0.43387  Biso   1.000  C
  H22      1.0000 0.28460  0.88640  0.45940  Biso   1.000  H
  C35      1.0000 0.42642  0.92277  0.43114  Biso   1.000  C
  C36      1.0000 0.44627  0.96071  0.46419  Biso   1.000  C
  H23      1.0000 0.42950  0.97360  0.47460  Biso   1.000  H
  H24      1.0000 0.38950  0.82410  0.43020  Biso   1.000  H
  O9       1.0000 0.88609  0.19302  0.73229  Biso   1.000  O
  O10      1.0000 0.90138  0.17813  0.64760  Biso   1.000  O
  C37      1.0000 0.91163  0.19140  0.69673  Biso   1.000  C
  C38      1.0000 0.95843  0.20705  0.71453  Biso   1.000  C
  C39      1.0000 0.98974  0.21005  0.67655  Biso   1.000  C
  H25      1.0000 0.98167  0.20223  0.63993  Biso   1.000  H
  C40      1.0000 0.03259  0.22451  0.69309  Biso   1.000  C
  H26      1.0000 0.05287  0.22513  0.66763  Biso   1.000  H
  C41      1.0000 0.04628  0.23807  0.74663  Biso   1.000  C
  C42      1.0000 0.01490  0.23552  0.78338  Biso   1.000  C
  H27      1.0000 0.02297  0.24403  0.81983  Biso   1.000  H
  C43      1.0000 0.97160  0.22054  0.76720  Biso   1.000  C
  H28      1.0000 0.95127  0.21973  0.79273  Biso   1.000  H
  C44      1.0000 0.09309  0.25610  0.76447  Biso   1.000  C
  C45      1.0000 0.11294  0.29404  0.79752  Biso   1.000  C
  H29      1.0000 0.09617  0.30693  0.80793  Biso   1.000  H
  H30      1.0000 0.05617  0.15743  0.76353  Biso   1.000  H
  O11      1.0000 0.55275  0.52636  0.06563  Biso   1.000  O
  O12      1.0000 0.56804  0.51147  0.98094  Biso   1.000  O
  C46      1.0000 0.57829  0.52474  0.03007  Biso   1.000  C
  C47      1.0000 0.62509  0.54039  0.04787  Biso   1.000  C
  C48      1.0000 0.65640  0.54339  0.00989  Biso   1.000  C
  H31      1.0000 0.64833  0.53557  0.97327  Biso   1.000  H
  C49      1.0000 0.69925  0.55785  0.02643  Biso   1.000  C
  H32      1.0000 0.71953  0.55847  0.00097  Biso   1.000  H
  C50      1.0000 0.71294  0.57141  0.07997  Biso   1.000  C
  C51      1.0000 0.68156  0.56886  0.11672  Biso   1.000  C
  H33      1.0000 0.68963  0.57737  0.15317  Biso   1.000  H
  C52      1.0000 0.63826  0.55388  0.10054  Biso   1.000  C
  H34      1.0000 0.61793  0.55307  0.12607  Biso   1.000  H
  C53      1.0000 0.75975  0.58944  0.09781  Biso   1.000  C
  C54      1.0000 0.77960  0.62738  0.13086  Biso   1.000  C
  H35      1.0000 0.76283  0.64027  0.14127  Biso   1.000  H
  H36      1.0000 0.72283  0.49077  0.09687  Biso   1.000  H
  O13      1.0000 0.14031  0.35973  0.39896  Biso   1.000  O
  O14      1.0000 0.15520  0.38991  0.31427  Biso   1.000  O
  C55      1.0000 0.14193  0.38689  0.36340  Biso   1.000  C
  C56      1.0000 0.12628  0.41804  0.38120  Biso   1.000  C
  C57      1.0000 0.12328  0.44635  0.34322  Biso   1.000  C
  H37      1.0000 0.13110  0.44610  0.30660  Biso   1.000  H
  C58      1.0000 0.10882  0.47474  0.35976  Biso   1.000  C
  H38      1.0000 0.10820  0.49440  0.33430  Biso   1.000  H
  C59      1.0000 0.09526  0.47487  0.41330  Biso   1.000  C
  C60      1.0000 0.09781  0.44604  0.45005  Biso   1.000  C
  H39      1.0000 0.08930  0.44560  0.48650  Biso   1.000  H
  C61      1.0000 0.11279  0.41772  0.43387  Biso   1.000  C
  H40      1.0000 0.11360  0.39820  0.45940  Biso   1.000  H
  C62      1.0000 0.07723  0.50365  0.43114  Biso   1.000  C
  C63      1.0000 0.03929  0.48556  0.46419  Biso   1.000  C
  H41      1.0000 0.02640  0.45590  0.47460  Biso   1.000  H
  H42      1.0000 0.17590  0.56540  0.43020  Biso   1.000  H
  O15      1.0000 0.80698  0.69306  0.73229  Biso   1.000  O
  O16      1.0000 0.82187  0.72324  0.64760  Biso   1.000  O
  C64      1.0000 0.80860  0.72022  0.69673  Biso   1.000  C
  C65      1.0000 0.79295  0.75137  0.71453  Biso   1.000  C
  C66      1.0000 0.78995  0.77968  0.67655  Biso   1.000  C
  H43      1.0000 0.79777  0.77943  0.63993  Biso   1.000  H
  C67      1.0000 0.77549  0.80807  0.69309  Biso   1.000  C
  H44      1.0000 0.77487  0.82773  0.66763  Biso   1.000  H
  C68      1.0000 0.76193  0.80820  0.74663  Biso   1.000  C
  C69      1.0000 0.76448  0.77937  0.78338  Biso   1.000  C
  H45      1.0000 0.75597  0.77893  0.81983  Biso   1.000  H
  C70      1.0000 0.77946  0.75105  0.76720  Biso   1.000  C
  H46      1.0000 0.78027  0.73153  0.79273  Biso   1.000  H
  C71      1.0000 0.74390  0.83698  0.76447  Biso   1.000  C
  C72      1.0000 0.70596  0.81889  0.79752  Biso   1.000  C
  H47      1.0000 0.69307  0.78923  0.80793  Biso   1.000  H
  H48      1.0000 0.84257  0.89873  0.76353  Biso   1.000  H
  O17      1.0000 0.47364  0.02640  0.06563  Biso   1.000  O
  O18      1.0000 0.48853  0.05658  0.98094  Biso   1.000  O
  C73      1.0000 0.47526  0.05356  0.03007  Biso   1.000  C
  C74      1.0000 0.45961  0.08471  0.04787  Biso   1.000  C
  C75      1.0000 0.45661  0.11302  0.00989  Biso   1.000  C
  H49      1.0000 0.46443  0.11277  0.97327  Biso   1.000  H
  C76      1.0000 0.44215  0.14141  0.02643  Biso   1.000  C
  H50      1.0000 0.44153  0.16107  0.00097  Biso   1.000  H
  C77      1.0000 0.42859  0.14154  0.07997  Biso   1.000  C
  C78      1.0000 0.43114  0.11271  0.11672  Biso   1.000  C
  H51      1.0000 0.42263  0.11227  0.15317  Biso   1.000  H
  C79      1.0000 0.44612  0.08439  0.10054  Biso   1.000  C
  H52      1.0000 0.44693  0.06487  0.12607  Biso   1.000  H
  C80      1.0000 0.41056  0.17032  0.09781  Biso   1.000  C
  C81      1.0000 0.37262  0.15223  0.13086  Biso   1.000  C
  H53      1.0000 0.35973  0.12257  0.14127  Biso   1.000  H
  H54      1.0000 0.50923  0.23207  0.09687  Biso   1.000  H
  O19      1.0000 0.78058  0.64027  0.60104  Biso   1.000  O
  O20      1.0000 0.76529  0.61009  0.68573  Biso   1.000  O
  C82      1.0000 0.75504  0.61311  0.63660  Biso   1.000  C
  C83      1.0000 0.70824  0.58196  0.61880  Biso   1.000  C
  C84      1.0000 0.67693  0.55365  0.65678  Biso   1.000  C
  H55      1.0000 0.68500  0.55390  0.69340  Biso   1.000  H
  C85      1.0000 0.63408  0.52526  0.64024  Biso   1.000  C
  H56      1.0000 0.61380  0.50560  0.66570  Biso   1.000  H
  C86      1.0000 0.62039  0.52513  0.58670  Biso   1.000  C
  C87      1.0000 0.65177  0.55396  0.54995  Biso   1.000  C
  H57      1.0000 0.64370  0.55440  0.51350  Biso   1.000  H
  C88      1.0000 0.69507  0.58228  0.56613  Biso   1.000  C
  H58      1.0000 0.71540  0.60180  0.54060  Biso   1.000  H
  C89      1.0000 0.57358  0.49635  0.56886  Biso   1.000  C
  C90      1.0000 0.55373  0.51444  0.53581  Biso   1.000  C
  H59      1.0000 0.57050  0.54410  0.52540  Biso   1.000  H
  H60      1.0000 0.61050  0.43460  0.56980  Biso   1.000  H
  O21      1.0000 0.44725  0.97360  0.93437  Biso   1.000  O
  O22      1.0000 0.43196  0.94342  0.01906  Biso   1.000  O
  C91      1.0000 0.42171  0.94644  0.96993  Biso   1.000  C
  C92      1.0000 0.37491  0.91529  0.95213  Biso   1.000  C
  C93      1.0000 0.34360  0.88698  0.99011  Biso   1.000  C
  H61      1.0000 0.35167  0.88723  0.02673  Biso   1.000  H
  C94      1.0000 0.30075  0.85859  0.97357  Biso   1.000  C
  H62      1.0000 0.28047  0.83893  0.99903  Biso   1.000  H
  C95      1.0000 0.28706  0.85846  0.92003  Biso   1.000  C
  C96      1.0000 0.31844  0.88729  0.88328  Biso   1.000  C
  H63      1.0000 0.31037  0.88773  0.84683  Biso   1.000  H
  C97      1.0000 0.36174  0.91561  0.89946  Biso   1.000  C
  H64      1.0000 0.38207  0.93513  0.87393  Biso   1.000  H
  C98      1.0000 0.24025  0.82968  0.90219  Biso   1.000  C
  C99      1.0000 0.22040  0.84777  0.86914  Biso   1.000  C
  H65      1.0000 0.23717  0.87743  0.85873  Biso   1.000  H
  H66      1.0000 0.27717  0.76793  0.90313  Biso   1.000  H
  O23      1.0000 0.11391  0.30694  0.26771  Biso   1.000  O
  O24      1.0000 0.09862  0.27676  0.35240  Biso   1.000  O
  C100     1.0000 0.08837  0.27978  0.30327  Biso   1.000  C
  C101     1.0000 0.04157  0.24863  0.28547  Biso   1.000  C
  C102     1.0000 0.01026  0.22032  0.32345  Biso   1.000  C
  H67      1.0000 0.01833  0.22057  0.36007  Biso   1.000  H
  C103     1.0000 0.96741  0.19193  0.30691  Biso   1.000  C
  H68      1.0000 0.94713  0.17227  0.33237  Biso   1.000  H
  C104     1.0000 0.95372  0.19180  0.25337  Biso   1.000  C
  C105     1.0000 0.98510  0.22063  0.21662  Biso   1.000  C
  H69      1.0000 0.97703  0.22107  0.18017  Biso   1.000  H
  C106     1.0000 0.02840  0.24895  0.23280  Biso   1.000  C
  H70      1.0000 0.04873  0.26847  0.20727  Biso   1.000  H
  C107     1.0000 0.90691  0.16302  0.23553  Biso   1.000  C
  C108     1.0000 0.88706  0.18111  0.20248  Biso   1.000  C
  H71      1.0000 0.90383  0.21077  0.19207  Biso   1.000  H
  H72      1.0000 0.94383  0.10127  0.23647  Biso   1.000  H
  O25      1.0000 0.85969  0.21942  0.60104  Biso   1.000  O
  O26      1.0000 0.84480  0.23471  0.68573  Biso   1.000  O
  C109     1.0000 0.85807  0.24496  0.63660  Biso   1.000  C
  C110     1.0000 0.87372  0.29176  0.61880  Biso   1.000  C
  C111     1.0000 0.87672  0.32307  0.65678  Biso   1.000  C
  H73      1.0000 0.86890  0.31500  0.69340  Biso   1.000  H
  C112     1.0000 0.89118  0.36592  0.64024  Biso   1.000  C
  H74      1.0000 0.89180  0.38620  0.66570  Biso   1.000  H
  C113     1.0000 0.90474  0.37961  0.58670  Biso   1.000  C
  C114     1.0000 0.90219  0.34823  0.54995  Biso   1.000  C
  H75      1.0000 0.91070  0.35630  0.51350  Biso   1.000  H
  C115     1.0000 0.88721  0.30493  0.56613  Biso   1.000  C
  H76      1.0000 0.88640  0.28460  0.54060  Biso   1.000  H
  C116     1.0000 0.92277  0.42642  0.56886  Biso   1.000  C
  C117     1.0000 0.96071  0.44627  0.53581  Biso   1.000  C
  H77      1.0000 0.97360  0.42950  0.52540  Biso   1.000  H
  H78      1.0000 0.82410  0.38950  0.56980  Biso   1.000  H
  O27      1.0000 0.52636  0.55275  0.93437  Biso   1.000  O
  O28      1.0000 0.51147  0.56804  0.01906  Biso   1.000  O
  C118     1.0000 0.52474  0.57829  0.96993  Biso   1.000  C
  C119     1.0000 0.54039  0.62509  0.95213  Biso   1.000  C
  C120     1.0000 0.54339  0.65640  0.99011  Biso   1.000  C
  H79      1.0000 0.53557  0.64833  0.02673  Biso   1.000  H
  C121     1.0000 0.55785  0.69925  0.97357  Biso   1.000  C
  H80      1.0000 0.55847  0.71953  0.99903  Biso   1.000  H
  C122     1.0000 0.57141  0.71294  0.92003  Biso   1.000  C
  C123     1.0000 0.56886  0.68156  0.88328  Biso   1.000  C
  H81      1.0000 0.57737  0.68963  0.84683  Biso   1.000  H
  C124     1.0000 0.55388  0.63826  0.89946  Biso   1.000  C
  H82      1.0000 0.55307  0.61793  0.87393  Biso   1.000  H
  C125     1.0000 0.58944  0.75975  0.90219  Biso   1.000  C
  C126     1.0000 0.62738  0.77960  0.86914  Biso   1.000  C
  H83      1.0000 0.64027  0.76283  0.85873  Biso   1.000  H
  H84      1.0000 0.49077  0.72283  0.90313  Biso   1.000  H
  O29      1.0000 0.19302  0.88609  0.26771  Biso   1.000  O
  O30      1.0000 0.17813  0.90138  0.35240  Biso   1.000  O
  C127     1.0000 0.19140  0.91163  0.30327  Biso   1.000  C
  C128     1.0000 0.20705  0.95843  0.28547  Biso   1.000  C
  C129     1.0000 0.21005  0.98974  0.32345  Biso   1.000  C
  H85      1.0000 0.20223  0.98167  0.36007  Biso   1.000  H
  C130     1.0000 0.22451  0.03259  0.30691  Biso   1.000  C
  H86      1.0000 0.22513  0.05287  0.33237  Biso   1.000  H
  C131     1.0000 0.23807  0.04628  0.25337  Biso   1.000  C
  C132     1.0000 0.23552  0.01490  0.21662  Biso   1.000  C
  H87      1.0000 0.24403  0.02297  0.18017  Biso   1.000  H
  C133     1.0000 0.22054  0.97160  0.23280  Biso   1.000  C
  H88      1.0000 0.21973  0.95127  0.20727  Biso   1.000  H
  C134     1.0000 0.25610  0.09309  0.23553  Biso   1.000  C
  C135     1.0000 0.29404  0.11294  0.20248  Biso   1.000  C
  H89      1.0000 0.30693  0.09617  0.19207  Biso   1.000  H
  H90      1.0000 0.15743  0.05617  0.23647  Biso   1.000  H
  O31      1.0000 0.35973  0.14031  0.60104  Biso   1.000  O
  O32      1.0000 0.38991  0.15520  0.68573  Biso   1.000  O
  C136     1.0000 0.38689  0.14193  0.63660  Biso   1.000  C
  C137     1.0000 0.41804  0.12628  0.61880  Biso   1.000  C
  C138     1.0000 0.44635  0.12328  0.65678  Biso   1.000  C
  H91      1.0000 0.44610  0.13110  0.69340  Biso   1.000  H
  C139     1.0000 0.47474  0.10882  0.64024  Biso   1.000  C
  H92      1.0000 0.49440  0.10820  0.66570  Biso   1.000  H
  C140     1.0000 0.47487  0.09526  0.58670  Biso   1.000  C
  C141     1.0000 0.44604  0.09781  0.54995  Biso   1.000  C
  H93      1.0000 0.44560  0.08930  0.51350  Biso   1.000  H
  C142     1.0000 0.41772  0.11279  0.56613  Biso   1.000  C
  H94      1.0000 0.39820  0.11360  0.54060  Biso   1.000  H
  C143     1.0000 0.50365  0.07723  0.56886  Biso   1.000  C
  C144     1.0000 0.48556  0.03929  0.53581  Biso   1.000  C
  H95      1.0000 0.45590  0.02640  0.52540  Biso   1.000  H
  H96      1.0000 0.56540  0.17590  0.56980  Biso   1.000  H
  O33      1.0000 0.02640  0.47364  0.93437  Biso   1.000  O
  O34      1.0000 0.05658  0.48853  0.01906  Biso   1.000  O
  C145     1.0000 0.05356  0.47526  0.96993  Biso   1.000  C
  C146     1.0000 0.08471  0.45961  0.95213  Biso   1.000  C
  C147     1.0000 0.11302  0.45661  0.99011  Biso   1.000  C
  H97      1.0000 0.11277  0.46443  0.02673  Biso   1.000  H
  C148     1.0000 0.14141  0.44215  0.97357  Biso   1.000  C
  H98      1.0000 0.16107  0.44153  0.99903  Biso   1.000  H
  C149     1.0000 0.14154  0.42859  0.92003  Biso   1.000  C
  C150     1.0000 0.11271  0.43114  0.88328  Biso   1.000  C
  H99      1.0000 0.11227  0.42263  0.84683  Biso   1.000  H
  C151     1.0000 0.08439  0.44612  0.89946  Biso   1.000  C
  H100     1.0000 0.06487  0.44693  0.87393  Biso   1.000  H
  C152     1.0000 0.17032  0.41056  0.90219  Biso   1.000  C
  C153     1.0000 0.15223  0.37262  0.86914  Biso   1.000  C
  H101     1.0000 0.12257  0.35973  0.85873  Biso   1.000  H
  H102     1.0000 0.23207  0.50923  0.90313  Biso   1.000  H
  O35      1.0000 0.69306  0.80698  0.26771  Biso   1.000  O
  O36      1.0000 0.72324  0.82187  0.35240  Biso   1.000  O
  C154     1.0000 0.72022  0.80860  0.30327  Biso   1.000  C
  C155     1.0000 0.75137  0.79295  0.28547  Biso   1.000  C
  C156     1.0000 0.77968  0.78995  0.32345  Biso   1.000  C
  H103     1.0000 0.77943  0.79777  0.36007  Biso   1.000  H
  C157     1.0000 0.80807  0.77549  0.30691  Biso   1.000  C
  H104     1.0000 0.82773  0.77487  0.33237  Biso   1.000  H
  C158     1.0000 0.80820  0.76193  0.25337  Biso   1.000  C
  C159     1.0000 0.77937  0.76448  0.21662  Biso   1.000  C
  H105     1.0000 0.77893  0.75597  0.18017  Biso   1.000  H
  C160     1.0000 0.75105  0.77946  0.23280  Biso   1.000  C
  H106     1.0000 0.73153  0.78027  0.20727  Biso   1.000  H
  C161     1.0000 0.83698  0.74390  0.23553  Biso   1.000  C
  C162     1.0000 0.81889  0.70596  0.20248  Biso   1.000  C
  H107     1.0000 0.78923  0.69307  0.19207  Biso   1.000  H
  H108     1.0000 0.89873  0.84257  0.23647  Biso   1.000  H
  O37      1.0000 0.35973  0.21942  0.60104  Biso   1.000  O
  O38      1.0000 0.38991  0.23471  0.68573  Biso   1.000  O
  C163     1.0000 0.38689  0.24496  0.63660  Biso   1.000  C
  C164     1.0000 0.41804  0.29176  0.61880  Biso   1.000  C
  C165     1.0000 0.44635  0.32307  0.65678  Biso   1.000  C
  H109     1.0000 0.44610  0.31500  0.69340  Biso   1.000  H
  C166     1.0000 0.47474  0.36592  0.64024  Biso   1.000  C
  H110     1.0000 0.49440  0.38620  0.66570  Biso   1.000  H
  C167     1.0000 0.47487  0.37961  0.58670  Biso   1.000  C
  C168     1.0000 0.44604  0.34823  0.54995  Biso   1.000  C
  H111     1.0000 0.44560  0.35630  0.51350  Biso   1.000  H
  C169     1.0000 0.41772  0.30493  0.56613  Biso   1.000  C
  H112     1.0000 0.39820  0.28460  0.54060  Biso   1.000  H
  C170     1.0000 0.50365  0.42642  0.56886  Biso   1.000  C
  C171     1.0000 0.48556  0.44627  0.53581  Biso   1.000  C
  H113     1.0000 0.45590  0.42950  0.52540  Biso   1.000  H
  H114     1.0000 0.56540  0.38950  0.56980  Biso   1.000  H
  O39      1.0000 0.02640  0.55275  0.93437  Biso   1.000  O
  O40      1.0000 0.05658  0.56804  0.01906  Biso   1.000  O
  C172     1.0000 0.05356  0.57829  0.96993  Biso   1.000  C
  C173     1.0000 0.08471  0.62509  0.95213  Biso   1.000  C
  C174     1.0000 0.11302  0.65640  0.99011  Biso   1.000  C
  H115     1.0000 0.11277  0.64833  0.02673  Biso   1.000  H
  C175     1.0000 0.14141  0.69925  0.97357  Biso   1.000  C
  H116     1.0000 0.16107  0.71953  0.99903  Biso   1.000  H
  C176     1.0000 0.14154  0.71294  0.92003  Biso   1.000  C
  C177     1.0000 0.11271  0.68156  0.88328  Biso   1.000  C
  H117     1.0000 0.11227  0.68963  0.84683  Biso   1.000  H
  C178     1.0000 0.08439  0.63826  0.89946  Biso   1.000  C
  H118     1.0000 0.06487  0.61793  0.87393  Biso   1.000  H
  C179     1.0000 0.17032  0.75975  0.90219  Biso   1.000  C
  C180     1.0000 0.15223  0.77960  0.86914  Biso   1.000  C
  H119     1.0000 0.12257  0.76283  0.85873  Biso   1.000  H
  H120     1.0000 0.23207  0.72283  0.90313  Biso   1.000  H
  O41      1.0000 0.69306  0.88609  0.26771  Biso   1.000  O
  O42      1.0000 0.72324  0.90138  0.35240  Biso   1.000  O
  C181     1.0000 0.72022  0.91163  0.30327  Biso   1.000  C
  C182     1.0000 0.75137  0.95843  0.28547  Biso   1.000  C
  C183     1.0000 0.77968  0.98974  0.32345  Biso   1.000  C
  H121     1.0000 0.77943  0.98167  0.36007  Biso   1.000  H
  C184     1.0000 0.80807  0.03259  0.30691  Biso   1.000  C
  H122     1.0000 0.82773  0.05287  0.33237  Biso   1.000  H
  C185     1.0000 0.80820  0.04628  0.25337  Biso   1.000  C
  C186     1.0000 0.77937  0.01490  0.21662  Biso   1.000  C
  H123     1.0000 0.77893  0.02297  0.18017  Biso   1.000  H
  C187     1.0000 0.75105  0.97160  0.23280  Biso   1.000  C
  H124     1.0000 0.73153  0.95127  0.20727  Biso   1.000  H
  C188     1.0000 0.83698  0.09309  0.23553  Biso   1.000  C
  C189     1.0000 0.81889  0.11294  0.20248  Biso   1.000  C
  H125     1.0000 0.78923  0.09617  0.19207  Biso   1.000  H
  H126     1.0000 0.89873  0.05617  0.23647  Biso   1.000  H
  O43      1.0000 0.78058  0.14031  0.60104  Biso   1.000  O
  O44      1.0000 0.76529  0.15520  0.68573  Biso   1.000  O
  C190     1.0000 0.75504  0.14193  0.63660  Biso   1.000  C
  C191     1.0000 0.70824  0.12628  0.61880  Biso   1.000  C
  C192     1.0000 0.67693  0.12328  0.65678  Biso   1.000  C
  H127     1.0000 0.68500  0.13110  0.69340  Biso   1.000  H
  C193     1.0000 0.63408  0.10882  0.64024  Biso   1.000  C
  H128     1.0000 0.61380  0.10820  0.66570  Biso   1.000  H
  C194     1.0000 0.62039  0.09526  0.58670  Biso   1.000  C
  C195     1.0000 0.65177  0.09781  0.54995  Biso   1.000  C
  H129     1.0000 0.64370  0.08930  0.51350  Biso   1.000  H
  C196     1.0000 0.69507  0.11279  0.56613  Biso   1.000  C
  H130     1.0000 0.71540  0.11360  0.54060  Biso   1.000  H
  C197     1.0000 0.57358  0.07723  0.56886  Biso   1.000  C
  C198     1.0000 0.55373  0.03929  0.53581  Biso   1.000  C
  H131     1.0000 0.57050  0.02640  0.52540  Biso   1.000  H
  H132     1.0000 0.61050  0.17590  0.56980  Biso   1.000  H
  O45      1.0000 0.44725  0.47364  0.93437  Biso   1.000  O
  O46      1.0000 0.43196  0.48853  0.01906  Biso   1.000  O
  C199     1.0000 0.42171  0.47526  0.96993  Biso   1.000  C
  C200     1.0000 0.37491  0.45961  0.95213  Biso   1.000  C
  C201     1.0000 0.34360  0.45661  0.99011  Biso   1.000  C
  H133     1.0000 0.35167  0.46443  0.02673  Biso   1.000  H
  C202     1.0000 0.30075  0.44215  0.97357  Biso   1.000  C
  H134     1.0000 0.28047  0.44153  0.99903  Biso   1.000  H
  C203     1.0000 0.28706  0.42859  0.92003  Biso   1.000  C
  C204     1.0000 0.31844  0.43114  0.88328  Biso   1.000  C
  H135     1.0000 0.31037  0.42263  0.84683  Biso   1.000  H
  C205     1.0000 0.36174  0.44612  0.89946  Biso   1.000  C
  H136     1.0000 0.38207  0.44693  0.87393  Biso   1.000  H
  C206     1.0000 0.24025  0.41056  0.90219  Biso   1.000  C
  C207     1.0000 0.22040  0.37262  0.86914  Biso   1.000  C
  H137     1.0000 0.23717  0.35973  0.85873  Biso   1.000  H
  H138     1.0000 0.27717  0.50923  0.90313  Biso   1.000  H
  O47      1.0000 0.11391  0.80698  0.26771  Biso   1.000  O
  O48      1.0000 0.09862  0.82187  0.35240  Biso   1.000  O
  C208     1.0000 0.08837  0.80860  0.30327  Biso   1.000  C
  C209     1.0000 0.04157  0.79295  0.28547  Biso   1.000  C
  C210     1.0000 0.01026  0.78995  0.32345  Biso   1.000  C
  H139     1.0000 0.01833  0.79777  0.36007  Biso   1.000  H
  C211     1.0000 0.96741  0.77549  0.30691  Biso   1.000  C
  H140     1.0000 0.94713  0.77487  0.33237  Biso   1.000  H
  C212     1.0000 0.95372  0.76193  0.25337  Biso   1.000  C
  C213     1.0000 0.98510  0.76448  0.21662  Biso   1.000  C
  H141     1.0000 0.97703  0.75597  0.18017  Biso   1.000  H
  C214     1.0000 0.02840  0.77946  0.23280  Biso   1.000  C
  H142     1.0000 0.04873  0.78027  0.20727  Biso   1.000  H
  C215     1.0000 0.90691  0.74390  0.23553  Biso   1.000  C
  C216     1.0000 0.88706  0.70596  0.20248  Biso   1.000  C
  H143     1.0000 0.90383  0.69307  0.19207  Biso   1.000  H
  H144     1.0000 0.94383  0.84257  0.23647  Biso   1.000  H
  O49      1.0000 0.85969  0.64027  0.60104  Biso   1.000  O
  O50      1.0000 0.84480  0.61009  0.68573  Biso   1.000  O
  C217     1.0000 0.85807  0.61311  0.63660  Biso   1.000  C
  C218     1.0000 0.87372  0.58196  0.61880  Biso   1.000  C
  C219     1.0000 0.87672  0.55365  0.65678  Biso   1.000  C
  H145     1.0000 0.86890  0.55390  0.69340  Biso   1.000  H
  C220     1.0000 0.89118  0.52526  0.64024  Biso   1.000  C
  H146     1.0000 0.89180  0.50560  0.66570  Biso   1.000  H
  C221     1.0000 0.90474  0.52513  0.58670  Biso   1.000  C
  C222     1.0000 0.90219  0.55396  0.54995  Biso   1.000  C
  H147     1.0000 0.91070  0.55440  0.51350  Biso   1.000  H
  C223     1.0000 0.88721  0.58228  0.56613  Biso   1.000  C
  H148     1.0000 0.88640  0.60180  0.54060  Biso   1.000  H
  C224     1.0000 0.92277  0.49635  0.56886  Biso   1.000  C
  C225     1.0000 0.96071  0.51444  0.53581  Biso   1.000  C
  H149     1.0000 0.97360  0.54410  0.52540  Biso   1.000  H
  H150     1.0000 0.82410  0.43460  0.56980  Biso   1.000  H
  O51      1.0000 0.52636  0.97360  0.93437  Biso   1.000  O
  O52      1.0000 0.51147  0.94342  0.01906  Biso   1.000  O
  C226     1.0000 0.52474  0.94644  0.96993  Biso   1.000  C
  C227     1.0000 0.54039  0.91529  0.95213  Biso   1.000  C
  C228     1.0000 0.54339  0.88698  0.99011  Biso   1.000  C
  H151     1.0000 0.53557  0.88723  0.02673  Biso   1.000  H
  C229     1.0000 0.55785  0.85859  0.97357  Biso   1.000  C
  H152     1.0000 0.55847  0.83893  0.99903  Biso   1.000  H
  C230     1.0000 0.57141  0.85846  0.92003  Biso   1.000  C
  C231     1.0000 0.56886  0.88729  0.88328  Biso   1.000  C
  H153     1.0000 0.57737  0.88773  0.84683  Biso   1.000  H
  C232     1.0000 0.55388  0.91561  0.89946  Biso   1.000  C
  H154     1.0000 0.55307  0.93513  0.87393  Biso   1.000  H
  C233     1.0000 0.58944  0.82968  0.90219  Biso   1.000  C
  C234     1.0000 0.62738  0.84777  0.86914  Biso   1.000  C
  H155     1.0000 0.64027  0.87743  0.85873  Biso   1.000  H
  H156     1.0000 0.49077  0.76793  0.90313  Biso   1.000  H
  O53      1.0000 0.19302  0.30694  0.26771  Biso   1.000  O
  O54      1.0000 0.17813  0.27676  0.35240  Biso   1.000  O
  C235     1.0000 0.19140  0.27978  0.30327  Biso   1.000  C
  C236     1.0000 0.20705  0.24863  0.28547  Biso   1.000  C
  C237     1.0000 0.21005  0.22032  0.32345  Biso   1.000  C
  H157     1.0000 0.20223  0.22057  0.36007  Biso   1.000  H
  C238     1.0000 0.22451  0.19193  0.30691  Biso   1.000  C
  H158     1.0000 0.22513  0.17227  0.33237  Biso   1.000  H
  C239     1.0000 0.23807  0.19180  0.25337  Biso   1.000  C
  C240     1.0000 0.23552  0.22063  0.21662  Biso   1.000  C
  H159     1.0000 0.24403  0.22107  0.18017  Biso   1.000  H
  C241     1.0000 0.22054  0.24895  0.23280  Biso   1.000  C
  H160     1.0000 0.21973  0.26847  0.20727  Biso   1.000  H
  C242     1.0000 0.25610  0.16302  0.23553  Biso   1.000  C
  C243     1.0000 0.29404  0.18111  0.20248  Biso   1.000  C
  H161     1.0000 0.30693  0.21077  0.19207  Biso   1.000  H
  H162     1.0000 0.15743  0.10127  0.23647  Biso   1.000  H
  O55      1.0000 0.21942  0.35973  0.39896  Biso   1.000  O
  O56      1.0000 0.23471  0.38991  0.31427  Biso   1.000  O
  C244     1.0000 0.24496  0.38689  0.36340  Biso   1.000  C
  C245     1.0000 0.29176  0.41804  0.38120  Biso   1.000  C
  C246     1.0000 0.32307  0.44635  0.34322  Biso   1.000  C
  H163     1.0000 0.31500  0.44610  0.30660  Biso   1.000  H
  C247     1.0000 0.36592  0.47474  0.35976  Biso   1.000  C
  H164     1.0000 0.38620  0.49440  0.33430  Biso   1.000  H
  C248     1.0000 0.37961  0.47487  0.41330  Biso   1.000  C
  C249     1.0000 0.34823  0.44604  0.45005  Biso   1.000  C
  H165     1.0000 0.35630  0.44560  0.48650  Biso   1.000  H
  C250     1.0000 0.30493  0.41772  0.43387  Biso   1.000  C
  H166     1.0000 0.28460  0.39820  0.45940  Biso   1.000  H
  C251     1.0000 0.42642  0.50365  0.43114  Biso   1.000  C
  C252     1.0000 0.44627  0.48556  0.46419  Biso   1.000  C
  H167     1.0000 0.42950  0.45590  0.47460  Biso   1.000  H
  H168     1.0000 0.38950  0.56540  0.43020  Biso   1.000  H
  O57      1.0000 0.88609  0.69306  0.73229  Biso   1.000  O
  O58      1.0000 0.90138  0.72324  0.64760  Biso   1.000  O
  C253     1.0000 0.91163  0.72022  0.69673  Biso   1.000  C
  C254     1.0000 0.95843  0.75137  0.71453  Biso   1.000  C
  C255     1.0000 0.98974  0.77968  0.67655  Biso   1.000  C
  H169     1.0000 0.98167  0.77943  0.63993  Biso   1.000  H
  C256     1.0000 0.03259  0.80807  0.69309  Biso   1.000  C
  H170     1.0000 0.05287  0.82773  0.66763  Biso   1.000  H
  C257     1.0000 0.04628  0.80820  0.74663  Biso   1.000  C
  C258     1.0000 0.01490  0.77937  0.78338  Biso   1.000  C
  H171     1.0000 0.02297  0.77893  0.81983  Biso   1.000  H
  C259     1.0000 0.97160  0.75105  0.76720  Biso   1.000  C
  H172     1.0000 0.95127  0.73153  0.79273  Biso   1.000  H
  C260     1.0000 0.09309  0.83698  0.76447  Biso   1.000  C
  C261     1.0000 0.11294  0.81889  0.79752  Biso   1.000  C
  H173     1.0000 0.09617  0.78923  0.80793  Biso   1.000  H
  H174     1.0000 0.05617  0.89873  0.76353  Biso   1.000  H
  O59      1.0000 0.55275  0.02640  0.06563  Biso   1.000  O
  O60      1.0000 0.56804  0.05658  0.98094  Biso   1.000  O
  C262     1.0000 0.57829  0.05356  0.03007  Biso   1.000  C
  C263     1.0000 0.62509  0.08471  0.04787  Biso   1.000  C
  C264     1.0000 0.65640  0.11302  0.00989  Biso   1.000  C
  H175     1.0000 0.64833  0.11277  0.97327  Biso   1.000  H
  C265     1.0000 0.69925  0.14141  0.02643  Biso   1.000  C
  H176     1.0000 0.71953  0.16107  0.00097  Biso   1.000  H
  C266     1.0000 0.71294  0.14154  0.07997  Biso   1.000  C
  C267     1.0000 0.68156  0.11271  0.11672  Biso   1.000  C
  H177     1.0000 0.68963  0.11227  0.15317  Biso   1.000  H
  C268     1.0000 0.63826  0.08439  0.10054  Biso   1.000  C
  H178     1.0000 0.61793  0.06487  0.12607  Biso   1.000  H
  C269     1.0000 0.75975  0.17032  0.09781  Biso   1.000  C
  C270     1.0000 0.77960  0.15223  0.13086  Biso   1.000  C
  H179     1.0000 0.76283  0.12257  0.14127  Biso   1.000  H
  H180     1.0000 0.72283  0.23207  0.09687  Biso   1.000  H
  O61      1.0000 0.14031  0.78058  0.39896  Biso   1.000  O
  O62      1.0000 0.15520  0.76529  0.31427  Biso   1.000  O
  C271     1.0000 0.14193  0.75504  0.36340  Biso   1.000  C
  C272     1.0000 0.12628  0.70824  0.38120  Biso   1.000  C
  C273     1.0000 0.12328  0.67693  0.34322  Biso   1.000  C
  H181     1.0000 0.13110  0.68500  0.30660  Biso   1.000  H
  C274     1.0000 0.10882  0.63408  0.35976  Biso   1.000  C
  H182     1.0000 0.10820  0.61380  0.33430  Biso   1.000  H
  C275     1.0000 0.09526  0.62039  0.41330  Biso   1.000  C
  C276     1.0000 0.09781  0.65177  0.45005  Biso   1.000  C
  H183     1.0000 0.08930  0.64370  0.48650  Biso   1.000  H
  C277     1.0000 0.11279  0.69507  0.43387  Biso   1.000  C
  H184     1.0000 0.11360  0.71540  0.45940  Biso   1.000  H
  C278     1.0000 0.07723  0.57358  0.43114  Biso   1.000  C
  C279     1.0000 0.03929  0.55373  0.46419  Biso   1.000  C
  H185     1.0000 0.02640  0.57050  0.47460  Biso   1.000  H
  H186     1.0000 0.17590  0.61050  0.43020  Biso   1.000  H
  O63      1.0000 0.80698  0.11391  0.73229  Biso   1.000  O
  O64      1.0000 0.82187  0.09862  0.64760  Biso   1.000  O
  C280     1.0000 0.80860  0.08837  0.69673  Biso   1.000  C
  C281     1.0000 0.79295  0.04157  0.71453  Biso   1.000  C
  C282     1.0000 0.78995  0.01026  0.67655  Biso   1.000  C
  H187     1.0000 0.79777  0.01833  0.63993  Biso   1.000  H
  C283     1.0000 0.77549  0.96741  0.69309  Biso   1.000  C
  H188     1.0000 0.77487  0.94713  0.66763  Biso   1.000  H
  C284     1.0000 0.76193  0.95372  0.74663  Biso   1.000  C
  C285     1.0000 0.76448  0.98510  0.78338  Biso   1.000  C
  H189     1.0000 0.75597  0.97703  0.81983  Biso   1.000  H
  C286     1.0000 0.77946  0.02840  0.76720  Biso   1.000  C
  H190     1.0000 0.78027  0.04873  0.79273  Biso   1.000  H
  C287     1.0000 0.74390  0.90691  0.76447  Biso   1.000  C
  C288     1.0000 0.70596  0.88706  0.79752  Biso   1.000  C
  H191     1.0000 0.69307  0.90383  0.80793  Biso   1.000  H
  H192     1.0000 0.84257  0.94383  0.76353  Biso   1.000  H
  O65      1.0000 0.47364  0.44725  0.06563  Biso   1.000  O
  O66      1.0000 0.48853  0.43196  0.98094  Biso   1.000  O
  C289     1.0000 0.47526  0.42171  0.03007  Biso   1.000  C
  C290     1.0000 0.45961  0.37491  0.04787  Biso   1.000  C
  C291     1.0000 0.45661  0.34360  0.00989  Biso   1.000  C
  H193     1.0000 0.46443  0.35167  0.97327  Biso   1.000  H
  C292     1.0000 0.44215  0.30075  0.02643  Biso   1.000  C
  H194     1.0000 0.44153  0.28047  0.00097  Biso   1.000  H
  C293     1.0000 0.42859  0.28706  0.07997  Biso   1.000  C
  C294     1.0000 0.43114  0.31844  0.11672  Biso   1.000  C
  H195     1.0000 0.42263  0.31037  0.15317  Biso   1.000  H
  C295     1.0000 0.44612  0.36174  0.10054  Biso   1.000  C
  H196     1.0000 0.44693  0.38207  0.12607  Biso   1.000  H
  C296     1.0000 0.41056  0.24025  0.09781  Biso   1.000  C
  C297     1.0000 0.37262  0.22040  0.13086  Biso   1.000  C
  H197     1.0000 0.35973  0.23717  0.14127  Biso   1.000  H
  H198     1.0000 0.50923  0.27717  0.09687  Biso   1.000  H
  O67      1.0000 0.64027  0.85969  0.39896  Biso   1.000  O
  O68      1.0000 0.61009  0.84480  0.31427  Biso   1.000  O
  C298     1.0000 0.61311  0.85807  0.36340  Biso   1.000  C
  C299     1.0000 0.58196  0.87372  0.38120  Biso   1.000  C
  C300     1.0000 0.55365  0.87672  0.34322  Biso   1.000  C
  H199     1.0000 0.55390  0.86890  0.30660  Biso   1.000  H
  C301     1.0000 0.52526  0.89118  0.35976  Biso   1.000  C
  H200     1.0000 0.50560  0.89180  0.33430  Biso   1.000  H
  C302     1.0000 0.52513  0.90474  0.41330  Biso   1.000  C
  C303     1.0000 0.55396  0.90219  0.45005  Biso   1.000  C
  H201     1.0000 0.55440  0.91070  0.48650  Biso   1.000  H
  C304     1.0000 0.58228  0.88721  0.43387  Biso   1.000  C
  H202     1.0000 0.60180  0.88640  0.45940  Biso   1.000  H
  C305     1.0000 0.49635  0.92277  0.43114  Biso   1.000  C
  C306     1.0000 0.51444  0.96071  0.46419  Biso   1.000  C
  H203     1.0000 0.54410  0.97360  0.47460  Biso   1.000  H
  H204     1.0000 0.43460  0.82410  0.43020  Biso   1.000  H
  O69      1.0000 0.30694  0.19302  0.73229  Biso   1.000  O
  O70      1.0000 0.27676  0.17813  0.64760  Biso   1.000  O
  C307     1.0000 0.27978  0.19140  0.69673  Biso   1.000  C
  C308     1.0000 0.24863  0.20705  0.71453  Biso   1.000  C
  C309     1.0000 0.22032  0.21005  0.67655  Biso   1.000  C
  H205     1.0000 0.22057  0.20223  0.63993  Biso   1.000  H
  C310     1.0000 0.19193  0.22451  0.69309  Biso   1.000  C
  H206     1.0000 0.17227  0.22513  0.66763  Biso   1.000  H
  C311     1.0000 0.19180  0.23807  0.74663  Biso   1.000  C
  C312     1.0000 0.22063  0.23552  0.78338  Biso   1.000  C
  H207     1.0000 0.22107  0.24403  0.81983  Biso   1.000  H
  C313     1.0000 0.24895  0.22054  0.76720  Biso   1.000  C
  H208     1.0000 0.26847  0.21973  0.79273  Biso   1.000  H
  C314     1.0000 0.16302  0.25610  0.76447  Biso   1.000  C
  C315     1.0000 0.18111  0.29404  0.79752  Biso   1.000  C
  H209     1.0000 0.21077  0.30693  0.80793  Biso   1.000  H
  H210     1.0000 0.10127  0.15743  0.76353  Biso   1.000  H
  O71      1.0000 0.97360  0.52636  0.06563  Biso   1.000  O
  O72      1.0000 0.94342  0.51147  0.98094  Biso   1.000  O
  C316     1.0000 0.94644  0.52474  0.03007  Biso   1.000  C
  C317     1.0000 0.91529  0.54039  0.04787  Biso   1.000  C
  C318     1.0000 0.88698  0.54339  0.00989  Biso   1.000  C
  H211     1.0000 0.88723  0.53557  0.97327  Biso   1.000  H
  C319     1.0000 0.85859  0.55785  0.02643  Biso   1.000  C
  H212     1.0000 0.83893  0.55847  0.00097  Biso   1.000  H
  C320     1.0000 0.85846  0.57141  0.07997  Biso   1.000  C
  C321     1.0000 0.88729  0.56886  0.11672  Biso   1.000  C
  H213     1.0000 0.88773  0.57737  0.15317  Biso   1.000  H
  C322     1.0000 0.91561  0.55388  0.10054  Biso   1.000  C
  H214     1.0000 0.93513  0.55307  0.12607  Biso   1.000  H
  C323     1.0000 0.82968  0.58944  0.09781  Biso   1.000  C
  C324     1.0000 0.84777  0.62738  0.13086  Biso   1.000  C
  H215     1.0000 0.87743  0.64027  0.14127  Biso   1.000  H
  H216     1.0000 0.76793  0.49077  0.09687  Biso   1.000  H
  Cu1      1.0000 0.64871  0.82435  0.28356  Biso   1.000  Cu
  Cu2      1.0000 0.31538  0.15769  0.61689  Biso   1.000  Cu
  Cu3      1.0000 0.98204  0.49102  0.95023  Biso   1.000  Cu
  Cu4      1.0000 0.17565  0.82435  0.28356  Biso   1.000  Cu
  Cu5      1.0000 0.84231  0.15769  0.61689  Biso   1.000  Cu
  Cu6      1.0000 0.50898  0.49102  0.95023  Biso   1.000  Cu
  Cu7      1.0000 0.17565  0.35129  0.28356  Biso   1.000  Cu
  Cu8      1.0000 0.84231  0.68462  0.61689  Biso   1.000  Cu
  Cu9      1.0000 0.50898  0.01796  0.95023  Biso   1.000  Cu
  Cu10     1.0000 0.82435  0.64871  0.71644  Biso   1.000  Cu
  Cu11     1.0000 0.49102  0.98204  0.04977  Biso   1.000  Cu
  Cu12     1.0000 0.15769  0.31538  0.38311  Biso   1.000  Cu
  Cu13     1.0000 0.82435  0.17565  0.71644  Biso   1.000  Cu
  Cu14     1.0000 0.49102  0.50898  0.04977  Biso   1.000  Cu
  Cu15     1.0000 0.15769  0.84231  0.38311  Biso   1.000  Cu
  Cu16     1.0000 0.35129  0.17565  0.71644  Biso   1.000  Cu
  Cu17     1.0000 0.01796  0.50898  0.04977  Biso   1.000  Cu
  Cu18     1.0000 0.68462  0.84231  0.38311  Biso   1.000  Cu
  O73      1.0000 0.43329  0.56671  0.38131  Biso   1.000  O
  C325     1.0000 0.49009  0.50991  0.48233  Biso   1.000  C
  C326     1.0000 0.45234  0.54766  0.41431  Biso   1.000  C
  C327     1.0000 0.41327  0.58673  0.40750  Biso   1.000  C
  H217     1.0000 0.40160  0.59840  0.38050  Biso   1.000  H
  O74      1.0000 0.09996  0.90004  0.71464  Biso   1.000  O
  C328     1.0000 0.15676  0.84324  0.81566  Biso   1.000  C
  C329     1.0000 0.11901  0.88099  0.74764  Biso   1.000  C
  C330     1.0000 0.07994  0.92006  0.74083  Biso   1.000  C
  H218     1.0000 0.06827  0.93173  0.71383  Biso   1.000  H
  O75      1.0000 0.76662  0.23338  0.04798  Biso   1.000  O
  C331     1.0000 0.82342  0.17658  0.14900  Biso   1.000  C
  C332     1.0000 0.78567  0.21433  0.08098  Biso   1.000  C
  C333     1.0000 0.74660  0.25340  0.07417  Biso   1.000  C
  H219     1.0000 0.73493  0.26507  0.04717  Biso   1.000  H
  O76      1.0000 0.43329  0.86658  0.38131  Biso   1.000  O
  C334     1.0000 0.49009  0.98018  0.48233  Biso   1.000  C
  C335     1.0000 0.45234  0.90468  0.41431  Biso   1.000  C
  C336     1.0000 0.41327  0.82654  0.40750  Biso   1.000  C
  H220     1.0000 0.40160  0.80320  0.38050  Biso   1.000  H
  O77      1.0000 0.09996  0.19991  0.71464  Biso   1.000  O
  C337     1.0000 0.15676  0.31351  0.81566  Biso   1.000  C
  C338     1.0000 0.11901  0.23801  0.74764  Biso   1.000  C
  C339     1.0000 0.07994  0.15987  0.74083  Biso   1.000  C
  H221     1.0000 0.06827  0.13653  0.71383  Biso   1.000  H
  O78      1.0000 0.76662  0.53325  0.04798  Biso   1.000  O
  C340     1.0000 0.82342  0.64685  0.14900  Biso   1.000  C
  C341     1.0000 0.78567  0.57135  0.08098  Biso   1.000  C
  C342     1.0000 0.74660  0.49321  0.07417  Biso   1.000  C
  H222     1.0000 0.73493  0.46987  0.04717  Biso   1.000  H
  O79      1.0000 0.13342  0.56671  0.38131  Biso   1.000  O
  C343     1.0000 0.01982  0.50991  0.48233  Biso   1.000  C
  C344     1.0000 0.09532  0.54766  0.41431  Biso   1.000  C
  C345     1.0000 0.17346  0.58673  0.40750  Biso   1.000  C
  H223     1.0000 0.19680  0.59840  0.38050  Biso   1.000  H
  O80      1.0000 0.80009  0.90004  0.71464  Biso   1.000  O
  C346     1.0000 0.68649  0.84324  0.81566  Biso   1.000  C
  C347     1.0000 0.76199  0.88099  0.74764  Biso   1.000  C
  C348     1.0000 0.84013  0.92006  0.74083  Biso   1.000  C
  H224     1.0000 0.86347  0.93173  0.71383  Biso   1.000  H
  O81      1.0000 0.46675  0.23338  0.04798  Biso   1.000  O
  C349     1.0000 0.35315  0.17658  0.14900  Biso   1.000  C
  C350     1.0000 0.42865  0.21433  0.08098  Biso   1.000  C
  C351     1.0000 0.50679  0.25340  0.07417  Biso   1.000  C
  H225     1.0000 0.53013  0.26507  0.04717  Biso   1.000  H
  O82      1.0000 0.56671  0.43329  0.61869  Biso   1.000  O
  C352     1.0000 0.50991  0.49009  0.51767  Biso   1.000  C
  C353     1.0000 0.54766  0.45234  0.58569  Biso   1.000  C
  C354     1.0000 0.58673  0.41327  0.59250  Biso   1.000  C
  H226     1.0000 0.59840  0.40160  0.61950  Biso   1.000  H
  O83      1.0000 0.23338  0.76662  0.95202  Biso   1.000  O
  C355     1.0000 0.17658  0.82342  0.85100  Biso   1.000  C
  C356     1.0000 0.21433  0.78567  0.91902  Biso   1.000  C
  C357     1.0000 0.25340  0.74660  0.92583  Biso   1.000  C
  H227     1.0000 0.26507  0.73493  0.95283  Biso   1.000  H
  O84      1.0000 0.90004  0.09996  0.28536  Biso   1.000  O
  C358     1.0000 0.84324  0.15676  0.18434  Biso   1.000  C
  C359     1.0000 0.88099  0.11901  0.25236  Biso   1.000  C
  C360     1.0000 0.92006  0.07994  0.25917  Biso   1.000  C
  H228     1.0000 0.93173  0.06827  0.28617  Biso   1.000  H
  O85      1.0000 0.86658  0.43329  0.61869  Biso   1.000  O
  C361     1.0000 0.98018  0.49009  0.51767  Biso   1.000  C
  C362     1.0000 0.90468  0.45234  0.58569  Biso   1.000  C
  C363     1.0000 0.82654  0.41327  0.59250  Biso   1.000  C
  H229     1.0000 0.80320  0.40160  0.61950  Biso   1.000  H
  O86      1.0000 0.53325  0.76662  0.95202  Biso   1.000  O
  C364     1.0000 0.64685  0.82342  0.85100  Biso   1.000  C
  C365     1.0000 0.57135  0.78567  0.91902  Biso   1.000  C
  C366     1.0000 0.49321  0.74660  0.92583  Biso   1.000  C
  H230     1.0000 0.46987  0.73493  0.95283  Biso   1.000  H
  O87      1.0000 0.19991  0.09996  0.28536  Biso   1.000  O
  C367     1.0000 0.31351  0.15676  0.18434  Biso   1.000  C
  C368     1.0000 0.23801  0.11901  0.25236  Biso   1.000  C
  C369     1.0000 0.15987  0.07994  0.25917  Biso   1.000  C
  H231     1.0000 0.13653  0.06827  0.28617  Biso   1.000  H
  O88      1.0000 0.56671  0.13342  0.61869  Biso   1.000  O
  C370     1.0000 0.50991  0.01982  0.51767  Biso   1.000  C
  C371     1.0000 0.54766  0.09532  0.58569  Biso   1.000  C
  C372     1.0000 0.58673  0.17346  0.59250  Biso   1.000  C
  H232     1.0000 0.59840  0.19680  0.61950  Biso   1.000  H
  O89      1.0000 0.23338  0.46675  0.95202  Biso   1.000  O
  C373     1.0000 0.17658  0.35315  0.85100  Biso   1.000  C
  C374     1.0000 0.21433  0.42865  0.91902  Biso   1.000  C
  C375     1.0000 0.25340  0.50679  0.92583  Biso   1.000  C
  H233     1.0000 0.26507  0.53013  0.95283  Biso   1.000  H
  O90      1.0000 0.90004  0.80009  0.28536  Biso   1.000  O
  C376     1.0000 0.84324  0.68649  0.18434  Biso   1.000  C
  C377     1.0000 0.88099  0.76199  0.25236  Biso   1.000  C
  C378     1.0000 0.92006  0.84013  0.25917  Biso   1.000  C
  H234     1.0000 0.93173  0.86347  0.28617  Biso   1.000  H
