data_image0
_cell_length_a       35.2775
_cell_length_b       35.2775
_cell_length_c       20.3382
_cell_angle_alpha    90
_cell_angle_beta     90
_cell_angle_gamma    120

_symmetry_space_group_name_H-M    "P 1"
_symmetry_int_tables_number       1

loop_
  _symmetry_equiv_pos_as_xyz
  'x, y, z'

loop_
  _atom_site_label
  _atom_site_occupancy
  _atom_site_fract_x
  _atom_site_fract_y
  _atom_site_fract_z
  _atom_site_thermal_displace_type
  _atom_site_B_iso_or_equiv
  _atom_site_type_symbol
  O1       1.0000 0.52433  0.97077  0.42402  Biso   1.000  O
  O2       1.0000 0.51147  0.94488  0.52779  Biso   1.000  O
  C1       1.0000 0.52324  0.94555  0.46867  Biso   1.000  C
  C2       1.0000 0.53745  0.91326  0.45029  Biso   1.000  C
  C3       1.0000 0.53772  0.88498  0.49872  Biso   1.000  C
  H1       1.0000 0.52860  0.88580  0.54240  Biso   1.000  H
  C4       1.0000 0.55169  0.85560  0.48127  Biso   1.000  C
  H2       1.0000 0.55150  0.83590  0.51330  Biso   1.000  H
  C5       1.0000 0.56575  0.85467  0.41860  Biso   1.000  C
  C6       1.0000 0.56445  0.88276  0.37099  Biso   1.000  C
  H3       1.0000 0.57300  0.88170  0.32700  Biso   1.000  H
  C7       1.0000 0.55076  0.91202  0.38776  Biso   1.000  C
  H4       1.0000 0.55060  0.93140  0.35550  Biso   1.000  H
  C8       1.0000 0.58556  0.82713  0.40148  Biso   1.000  C
  C9       1.0000 0.62425  0.84582  0.36775  Biso   1.000  C
  H5       1.0000 0.63740  0.87590  0.35620  Biso   1.000  H
  H6       1.0000 0.48900  0.72180  0.38320  Biso   1.000  H
  O3       1.0000 0.19100  0.30410  0.75735  Biso   1.000  O
  O4       1.0000 0.17814  0.27821  0.86112  Biso   1.000  O
  C10      1.0000 0.18991  0.27888  0.80200  Biso   1.000  C
  C11      1.0000 0.20412  0.24659  0.78362  Biso   1.000  C
  C12      1.0000 0.20439  0.21831  0.83205  Biso   1.000  C
  H7       1.0000 0.19527  0.21913  0.87573  Biso   1.000  H
  C13      1.0000 0.21836  0.18893  0.81460  Biso   1.000  C
  H8       1.0000 0.21817  0.16923  0.84663  Biso   1.000  H
  C14      1.0000 0.23242  0.18800  0.75193  Biso   1.000  C
  C15      1.0000 0.23112  0.21609  0.70432  Biso   1.000  C
  H9       1.0000 0.23967  0.21503  0.66033  Biso   1.000  H
  C16      1.0000 0.21743  0.24535  0.72109  Biso   1.000  C
  H10      1.0000 0.21727  0.26473  0.68883  Biso   1.000  H
  C17      1.0000 0.25223  0.16046  0.73481  Biso   1.000  C
  C18      1.0000 0.29092  0.17915  0.70108  Biso   1.000  C
  H11      1.0000 0.30407  0.20923  0.68953  Biso   1.000  H
  H12      1.0000 0.15567  0.05513  0.71653  Biso   1.000  H
  O5       1.0000 0.85766  0.63744  0.09069  Biso   1.000  O
  O6       1.0000 0.84480  0.61155  0.19446  Biso   1.000  O
  C19      1.0000 0.85657  0.61222  0.13534  Biso   1.000  C
  C20      1.0000 0.87078  0.57993  0.11696  Biso   1.000  C
  C21      1.0000 0.87105  0.55165  0.16539  Biso   1.000  C
  H13      1.0000 0.86193  0.55247  0.20907  Biso   1.000  H
  C22      1.0000 0.88502  0.52227  0.14794  Biso   1.000  C
  H14      1.0000 0.88483  0.50257  0.17997  Biso   1.000  H
  C23      1.0000 0.89908  0.52134  0.08527  Biso   1.000  C
  C24      1.0000 0.89778  0.54943  0.03766  Biso   1.000  C
  H15      1.0000 0.90633  0.54837  0.99367  Biso   1.000  H
  C25      1.0000 0.88409  0.57869  0.05443  Biso   1.000  C
  H16      1.0000 0.88393  0.59807  0.02217  Biso   1.000  H
  C26      1.0000 0.91889  0.49380  0.06815  Biso   1.000  C
  C27      1.0000 0.95758  0.51249  0.03442  Biso   1.000  C
  H17      1.0000 0.97073  0.54257  0.02287  Biso   1.000  H
  H18      1.0000 0.82233  0.38847  0.04987  Biso   1.000  H
  O7       1.0000 0.02923  0.55356  0.42402  Biso   1.000  O
  O8       1.0000 0.05512  0.56659  0.52779  Biso   1.000  O
  C28      1.0000 0.05445  0.57769  0.46867  Biso   1.000  C
  C29      1.0000 0.08674  0.62419  0.45029  Biso   1.000  C
  C30      1.0000 0.11502  0.65274  0.49872  Biso   1.000  C
  H19      1.0000 0.11420  0.64280  0.54240  Biso   1.000  H
  C31      1.0000 0.14440  0.69609  0.48127  Biso   1.000  C
  H20      1.0000 0.16410  0.71560  0.51330  Biso   1.000  H
  C32      1.0000 0.14533  0.71108  0.41860  Biso   1.000  C
  C33      1.0000 0.11724  0.68169  0.37099  Biso   1.000  C
  H21      1.0000 0.11830  0.69130  0.32700  Biso   1.000  H
  C34      1.0000 0.08798  0.63874  0.38776  Biso   1.000  C
  H22      1.0000 0.06860  0.61920  0.35550  Biso   1.000  H
  C35      1.0000 0.17287  0.75843  0.40148  Biso   1.000  C
  C36      1.0000 0.15418  0.77843  0.36775  Biso   1.000  C
  H23      1.0000 0.12410  0.76150  0.35620  Biso   1.000  H
  H24      1.0000 0.27820  0.76720  0.38320  Biso   1.000  H
  O9       1.0000 0.69590  0.88689  0.75735  Biso   1.000  O
  O10      1.0000 0.72179  0.89992  0.86112  Biso   1.000  O
  C37      1.0000 0.72112  0.91102  0.80200  Biso   1.000  C
  C38      1.0000 0.75341  0.95752  0.78362  Biso   1.000  C
  C39      1.0000 0.78169  0.98607  0.83205  Biso   1.000  C
  H25      1.0000 0.78087  0.97613  0.87573  Biso   1.000  H
  C40      1.0000 0.81107  0.02942  0.81460  Biso   1.000  C
  H26      1.0000 0.83077  0.04893  0.84663  Biso   1.000  H
  C41      1.0000 0.81200  0.04441  0.75193  Biso   1.000  C
  C42      1.0000 0.78391  0.01502  0.70432  Biso   1.000  C
  H27      1.0000 0.78497  0.02463  0.66033  Biso   1.000  H
  C43      1.0000 0.75465  0.97207  0.72109  Biso   1.000  C
  H28      1.0000 0.73527  0.95253  0.68883  Biso   1.000  H
  C44      1.0000 0.83954  0.09176  0.73481  Biso   1.000  C
  C45      1.0000 0.82085  0.11176  0.70108  Biso   1.000  C
  H29      1.0000 0.79077  0.09483  0.68953  Biso   1.000  H
  H30      1.0000 0.94487  0.10053  0.71653  Biso   1.000  H
  O11      1.0000 0.36256  0.22023  0.09069  Biso   1.000  O
  O12      1.0000 0.38845  0.23326  0.19446  Biso   1.000  O
  C46      1.0000 0.38778  0.24436  0.13534  Biso   1.000  C
  C47      1.0000 0.42007  0.29086  0.11696  Biso   1.000  C
  C48      1.0000 0.44835  0.31941  0.16539  Biso   1.000  C
  H31      1.0000 0.44753  0.30947  0.20907  Biso   1.000  H
  C49      1.0000 0.47773  0.36276  0.14794  Biso   1.000  C
  H32      1.0000 0.49743  0.38227  0.17997  Biso   1.000  H
  C50      1.0000 0.47866  0.37775  0.08527  Biso   1.000  C
  C51      1.0000 0.45057  0.34836  0.03766  Biso   1.000  C
  H33      1.0000 0.45163  0.35797  0.99367  Biso   1.000  H
  C52      1.0000 0.42131  0.30541  0.05443  Biso   1.000  C
  H34      1.0000 0.40193  0.28587  0.02217  Biso   1.000  H
  C53      1.0000 0.50620  0.42510  0.06815  Biso   1.000  C
  C54      1.0000 0.48751  0.44510  0.03442  Biso   1.000  C
  H35      1.0000 0.45743  0.42817  0.02287  Biso   1.000  H
  H36      1.0000 0.61153  0.43387  0.04987  Biso   1.000  H
  O13      1.0000 0.44644  0.47567  0.42402  Biso   1.000  O
  O14      1.0000 0.43341  0.48853  0.52779  Biso   1.000  O
  C55      1.0000 0.42231  0.47676  0.46867  Biso   1.000  C
  C56      1.0000 0.37581  0.46255  0.45029  Biso   1.000  C
  C57      1.0000 0.34726  0.46228  0.49872  Biso   1.000  C
  H37      1.0000 0.35720  0.47140  0.54240  Biso   1.000  H
  C58      1.0000 0.30391  0.44831  0.48127  Biso   1.000  C
  H38      1.0000 0.28440  0.44850  0.51330  Biso   1.000  H
  C59      1.0000 0.28892  0.43425  0.41860  Biso   1.000  C
  C60      1.0000 0.31831  0.43555  0.37099  Biso   1.000  C
  H39      1.0000 0.30870  0.42700  0.32700  Biso   1.000  H
  C61      1.0000 0.36126  0.44924  0.38776  Biso   1.000  C
  H40      1.0000 0.38080  0.44940  0.35550  Biso   1.000  H
  C62      1.0000 0.24157  0.41444  0.40148  Biso   1.000  C
  C63      1.0000 0.22157  0.37575  0.36775  Biso   1.000  C
  H41      1.0000 0.23850  0.36260  0.35620  Biso   1.000  H
  H42      1.0000 0.23280  0.51100  0.38320  Biso   1.000  H
  O15      1.0000 0.11311  0.80900  0.75735  Biso   1.000  O
  O16      1.0000 0.10008  0.82186  0.86112  Biso   1.000  O
  C64      1.0000 0.08898  0.81009  0.80200  Biso   1.000  C
  C65      1.0000 0.04248  0.79588  0.78362  Biso   1.000  C
  C66      1.0000 0.01393  0.79561  0.83205  Biso   1.000  C
  H43      1.0000 0.02387  0.80473  0.87573  Biso   1.000  H
  C67      1.0000 0.97058  0.78164  0.81460  Biso   1.000  C
  H44      1.0000 0.95107  0.78183  0.84663  Biso   1.000  H
  C68      1.0000 0.95559  0.76758  0.75193  Biso   1.000  C
  C69      1.0000 0.98498  0.76888  0.70432  Biso   1.000  C
  H45      1.0000 0.97537  0.76033  0.66033  Biso   1.000  H
  C70      1.0000 0.02793  0.78257  0.72109  Biso   1.000  C
  H46      1.0000 0.04747  0.78273  0.68883  Biso   1.000  H
  C71      1.0000 0.90824  0.74777  0.73481  Biso   1.000  C
  C72      1.0000 0.88824  0.70908  0.70108  Biso   1.000  C
  H47      1.0000 0.90517  0.69593  0.68953  Biso   1.000  H
  H48      1.0000 0.89947  0.84433  0.71653  Biso   1.000  H
  O17      1.0000 0.77977  0.14234  0.09069  Biso   1.000  O
  O18      1.0000 0.76674  0.15520  0.19446  Biso   1.000  O
  C73      1.0000 0.75564  0.14343  0.13534  Biso   1.000  C
  C74      1.0000 0.70914  0.12922  0.11696  Biso   1.000  C
  C75      1.0000 0.68059  0.12895  0.16539  Biso   1.000  C
  H49      1.0000 0.69053  0.13807  0.20907  Biso   1.000  H
  C76      1.0000 0.63724  0.11498  0.14794  Biso   1.000  C
  H50      1.0000 0.61773  0.11517  0.17997  Biso   1.000  H
  C77      1.0000 0.62225  0.10092  0.08527  Biso   1.000  C
  C78      1.0000 0.65164  0.10222  0.03766  Biso   1.000  C
  H51      1.0000 0.64203  0.09367  0.99367  Biso   1.000  H
  C79      1.0000 0.69459  0.11591  0.05443  Biso   1.000  C
  H52      1.0000 0.71413  0.11607  0.02217  Biso   1.000  H
  C80      1.0000 0.57490  0.08111  0.06815  Biso   1.000  C
  C81      1.0000 0.55490  0.04242  0.03442  Biso   1.000  C
  H53      1.0000 0.57183  0.02927  0.02287  Biso   1.000  H
  H54      1.0000 0.56613  0.17767  0.04987  Biso   1.000  H
  O19      1.0000 0.97077  0.52433  0.57598  Biso   1.000  O
  O20      1.0000 0.94488  0.51147  0.47221  Biso   1.000  O
  C82      1.0000 0.94555  0.52324  0.53133  Biso   1.000  C
  C83      1.0000 0.91326  0.53745  0.54971  Biso   1.000  C
  C84      1.0000 0.88498  0.53772  0.50128  Biso   1.000  C
  H55      1.0000 0.88580  0.52860  0.45760  Biso   1.000  H
  C85      1.0000 0.85560  0.55169  0.51873  Biso   1.000  C
  H56      1.0000 0.83590  0.55150  0.48670  Biso   1.000  H
  C86      1.0000 0.85467  0.56575  0.58140  Biso   1.000  C
  C87      1.0000 0.88276  0.56445  0.62901  Biso   1.000  C
  H57      1.0000 0.88170  0.57300  0.67300  Biso   1.000  H
  C88      1.0000 0.91202  0.55076  0.61224  Biso   1.000  C
  H58      1.0000 0.93140  0.55060  0.64450  Biso   1.000  H
  C89      1.0000 0.82713  0.58556  0.59852  Biso   1.000  C
  C90      1.0000 0.84582  0.62425  0.63225  Biso   1.000  C
  H59      1.0000 0.87590  0.63740  0.64380  Biso   1.000  H
  H60      1.0000 0.72180  0.48900  0.61680  Biso   1.000  H
  O21      1.0000 0.63744  0.85766  0.90931  Biso   1.000  O
  O22      1.0000 0.61155  0.84480  0.80554  Biso   1.000  O
  C91      1.0000 0.61222  0.85657  0.86466  Biso   1.000  C
  C92      1.0000 0.57993  0.87078  0.88304  Biso   1.000  C
  C93      1.0000 0.55165  0.87105  0.83461  Biso   1.000  C
  H61      1.0000 0.55247  0.86193  0.79093  Biso   1.000  H
  C94      1.0000 0.52227  0.88502  0.85206  Biso   1.000  C
  H62      1.0000 0.50257  0.88483  0.82003  Biso   1.000  H
  C95      1.0000 0.52134  0.89908  0.91473  Biso   1.000  C
  C96      1.0000 0.54943  0.89778  0.96234  Biso   1.000  C
  H63      1.0000 0.54837  0.90633  0.00633  Biso   1.000  H
  C97      1.0000 0.57869  0.88409  0.94557  Biso   1.000  C
  H64      1.0000 0.59807  0.88393  0.97783  Biso   1.000  H
  C98      1.0000 0.49380  0.91889  0.93185  Biso   1.000  C
  C99      1.0000 0.51249  0.95758  0.96558  Biso   1.000  C
  H65      1.0000 0.54257  0.97073  0.97713  Biso   1.000  H
  H66      1.0000 0.38847  0.82233  0.95013  Biso   1.000  H
  O23      1.0000 0.30410  0.19100  0.24265  Biso   1.000  O
  O24      1.0000 0.27821  0.17814  0.13888  Biso   1.000  O
  C100     1.0000 0.27888  0.18991  0.19800  Biso   1.000  C
  C101     1.0000 0.24659  0.20412  0.21638  Biso   1.000  C
  C102     1.0000 0.21831  0.20439  0.16795  Biso   1.000  C
  H67      1.0000 0.21913  0.19527  0.12427  Biso   1.000  H
  C103     1.0000 0.18893  0.21836  0.18540  Biso   1.000  C
  H68      1.0000 0.16923  0.21817  0.15337  Biso   1.000  H
  C104     1.0000 0.18800  0.23242  0.24807  Biso   1.000  C
  C105     1.0000 0.21609  0.23112  0.29568  Biso   1.000  C
  H69      1.0000 0.21503  0.23967  0.33967  Biso   1.000  H
  C106     1.0000 0.24535  0.21743  0.27891  Biso   1.000  C
  H70      1.0000 0.26473  0.21727  0.31117  Biso   1.000  H
  C107     1.0000 0.16046  0.25223  0.26519  Biso   1.000  C
  C108     1.0000 0.17915  0.29092  0.29892  Biso   1.000  C
  H71      1.0000 0.20923  0.30407  0.31047  Biso   1.000  H
  H72      1.0000 0.05513  0.15567  0.28347  Biso   1.000  H
  O25      1.0000 0.55356  0.02923  0.57598  Biso   1.000  O
  O26      1.0000 0.56659  0.05512  0.47221  Biso   1.000  O
  C109     1.0000 0.57769  0.05445  0.53133  Biso   1.000  C
  C110     1.0000 0.62419  0.08674  0.54971  Biso   1.000  C
  C111     1.0000 0.65274  0.11502  0.50128  Biso   1.000  C
  H73      1.0000 0.64280  0.11420  0.45760  Biso   1.000  H
  C112     1.0000 0.69609  0.14440  0.51873  Biso   1.000  C
  H74      1.0000 0.71560  0.16410  0.48670  Biso   1.000  H
  C113     1.0000 0.71108  0.14533  0.58140  Biso   1.000  C
  C114     1.0000 0.68169  0.11724  0.62901  Biso   1.000  C
  H75      1.0000 0.69130  0.11830  0.67300  Biso   1.000  H
  C115     1.0000 0.63874  0.08798  0.61224  Biso   1.000  C
  H76      1.0000 0.61920  0.06860  0.64450  Biso   1.000  H
  C116     1.0000 0.75843  0.17287  0.59852  Biso   1.000  C
  C117     1.0000 0.77843  0.15418  0.63225  Biso   1.000  C
  H77      1.0000 0.76150  0.12410  0.64380  Biso   1.000  H
  H78      1.0000 0.76720  0.27820  0.61680  Biso   1.000  H
  O27      1.0000 0.22023  0.36256  0.90931  Biso   1.000  O
  O28      1.0000 0.23326  0.38845  0.80554  Biso   1.000  O
  C118     1.0000 0.24436  0.38778  0.86466  Biso   1.000  C
  C119     1.0000 0.29086  0.42007  0.88304  Biso   1.000  C
  C120     1.0000 0.31941  0.44835  0.83461  Biso   1.000  C
  H79      1.0000 0.30947  0.44753  0.79093  Biso   1.000  H
  C121     1.0000 0.36276  0.47773  0.85206  Biso   1.000  C
  H80      1.0000 0.38227  0.49743  0.82003  Biso   1.000  H
  C122     1.0000 0.37775  0.47866  0.91473  Biso   1.000  C
  C123     1.0000 0.34836  0.45057  0.96234  Biso   1.000  C
  H81      1.0000 0.35797  0.45163  0.00633  Biso   1.000  H
  C124     1.0000 0.30541  0.42131  0.94557  Biso   1.000  C
  H82      1.0000 0.28587  0.40193  0.97783  Biso   1.000  H
  C125     1.0000 0.42510  0.50620  0.93185  Biso   1.000  C
  C126     1.0000 0.44510  0.48751  0.96558  Biso   1.000  C
  H83      1.0000 0.42817  0.45743  0.97713  Biso   1.000  H
  H84      1.0000 0.43387  0.61153  0.95013  Biso   1.000  H
  O29      1.0000 0.88689  0.69590  0.24265  Biso   1.000  O
  O30      1.0000 0.89992  0.72179  0.13888  Biso   1.000  O
  C127     1.0000 0.91102  0.72112  0.19800  Biso   1.000  C
  C128     1.0000 0.95752  0.75341  0.21638  Biso   1.000  C
  C129     1.0000 0.98607  0.78169  0.16795  Biso   1.000  C
  H85      1.0000 0.97613  0.78087  0.12427  Biso   1.000  H
  C130     1.0000 0.02942  0.81107  0.18540  Biso   1.000  C
  H86      1.0000 0.04893  0.83077  0.15337  Biso   1.000  H
  C131     1.0000 0.04441  0.81200  0.24807  Biso   1.000  C
  C132     1.0000 0.01502  0.78391  0.29568  Biso   1.000  C
  H87      1.0000 0.02463  0.78497  0.33967  Biso   1.000  H
  C133     1.0000 0.97207  0.75465  0.27891  Biso   1.000  C
  H88      1.0000 0.95253  0.73527  0.31117  Biso   1.000  H
  C134     1.0000 0.09176  0.83954  0.26519  Biso   1.000  C
  C135     1.0000 0.11176  0.82085  0.29892  Biso   1.000  C
  H89      1.0000 0.09483  0.79077  0.31047  Biso   1.000  H
  H90      1.0000 0.10053  0.94487  0.28347  Biso   1.000  H
  O31      1.0000 0.47567  0.44644  0.57598  Biso   1.000  O
  O32      1.0000 0.48853  0.43341  0.47221  Biso   1.000  O
  C136     1.0000 0.47676  0.42231  0.53133  Biso   1.000  C
  C137     1.0000 0.46255  0.37581  0.54971  Biso   1.000  C
  C138     1.0000 0.46228  0.34726  0.50128  Biso   1.000  C
  H91      1.0000 0.47140  0.35720  0.45760  Biso   1.000  H
  C139     1.0000 0.44831  0.30391  0.51873  Biso   1.000  C
  H92      1.0000 0.44850  0.28440  0.48670  Biso   1.000  H
  C140     1.0000 0.43425  0.28892  0.58140  Biso   1.000  C
  C141     1.0000 0.43555  0.31831  0.62901  Biso   1.000  C
  H93      1.0000 0.42700  0.30870  0.67300  Biso   1.000  H
  C142     1.0000 0.44924  0.36126  0.61224  Biso   1.000  C
  H94      1.0000 0.44940  0.38080  0.64450  Biso   1.000  H
  C143     1.0000 0.41444  0.24157  0.59852  Biso   1.000  C
  C144     1.0000 0.37575  0.22157  0.63225  Biso   1.000  C
  H95      1.0000 0.36260  0.23850  0.64380  Biso   1.000  H
  H96      1.0000 0.51100  0.23280  0.61680  Biso   1.000  H
  O33      1.0000 0.14234  0.77977  0.90931  Biso   1.000  O
  O34      1.0000 0.15520  0.76674  0.80554  Biso   1.000  O
  C145     1.0000 0.14343  0.75564  0.86466  Biso   1.000  C
  C146     1.0000 0.12922  0.70914  0.88304  Biso   1.000  C
  C147     1.0000 0.12895  0.68059  0.83461  Biso   1.000  C
  H97      1.0000 0.13807  0.69053  0.79093  Biso   1.000  H
  C148     1.0000 0.11498  0.63724  0.85206  Biso   1.000  C
  H98      1.0000 0.11517  0.61773  0.82003  Biso   1.000  H
  C149     1.0000 0.10092  0.62225  0.91473  Biso   1.000  C
  C150     1.0000 0.10222  0.65164  0.96234  Biso   1.000  C
  H99      1.0000 0.09367  0.64203  0.00633  Biso   1.000  H
  C151     1.0000 0.11591  0.69459  0.94557  Biso   1.000  C
  H100     1.0000 0.11607  0.71413  0.97783  Biso   1.000  H
  C152     1.0000 0.08111  0.57490  0.93185  Biso   1.000  C
  C153     1.0000 0.04242  0.55490  0.96558  Biso   1.000  C
  H101     1.0000 0.02927  0.57183  0.97713  Biso   1.000  H
  H102     1.0000 0.17767  0.56613  0.95013  Biso   1.000  H
  O35      1.0000 0.80900  0.11311  0.24265  Biso   1.000  O
  O36      1.0000 0.82186  0.10008  0.13888  Biso   1.000  O
  C154     1.0000 0.81009  0.08898  0.19800  Biso   1.000  C
  C155     1.0000 0.79588  0.04248  0.21638  Biso   1.000  C
  C156     1.0000 0.79561  0.01393  0.16795  Biso   1.000  C
  H103     1.0000 0.80473  0.02387  0.12427  Biso   1.000  H
  C157     1.0000 0.78164  0.97058  0.18540  Biso   1.000  C
  H104     1.0000 0.78183  0.95107  0.15337  Biso   1.000  H
  C158     1.0000 0.76758  0.95559  0.24807  Biso   1.000  C
  C159     1.0000 0.76888  0.98498  0.29568  Biso   1.000  C
  H105     1.0000 0.76033  0.97537  0.33967  Biso   1.000  H
  C160     1.0000 0.78257  0.02793  0.27891  Biso   1.000  C
  H106     1.0000 0.78273  0.04747  0.31117  Biso   1.000  H
  C161     1.0000 0.74777  0.90824  0.26519  Biso   1.000  C
  C162     1.0000 0.70908  0.88824  0.29892  Biso   1.000  C
  H107     1.0000 0.69593  0.90517  0.31047  Biso   1.000  H
  H108     1.0000 0.84433  0.89947  0.28347  Biso   1.000  H
  O37      1.0000 0.47567  0.02923  0.57598  Biso   1.000  O
  O38      1.0000 0.48853  0.05512  0.47221  Biso   1.000  O
  C163     1.0000 0.47676  0.05445  0.53133  Biso   1.000  C
  C164     1.0000 0.46255  0.08674  0.54971  Biso   1.000  C
  C165     1.0000 0.46228  0.11502  0.50128  Biso   1.000  C
  H109     1.0000 0.47140  0.11420  0.45760  Biso   1.000  H
  C166     1.0000 0.44831  0.14440  0.51873  Biso   1.000  C
  H110     1.0000 0.44850  0.16410  0.48670  Biso   1.000  H
  C167     1.0000 0.43425  0.14533  0.58140  Biso   1.000  C
  C168     1.0000 0.43555  0.11724  0.62901  Biso   1.000  C
  H111     1.0000 0.42700  0.11830  0.67300  Biso   1.000  H
  C169     1.0000 0.44924  0.08798  0.61224  Biso   1.000  C
  H112     1.0000 0.44940  0.06860  0.64450  Biso   1.000  H
  C170     1.0000 0.41444  0.17287  0.59852  Biso   1.000  C
  C171     1.0000 0.37575  0.15418  0.63225  Biso   1.000  C
  H113     1.0000 0.36260  0.12410  0.64380  Biso   1.000  H
  H114     1.0000 0.51100  0.27820  0.61680  Biso   1.000  H
  O39      1.0000 0.14234  0.36256  0.90931  Biso   1.000  O
  O40      1.0000 0.15520  0.38845  0.80554  Biso   1.000  O
  C172     1.0000 0.14343  0.38778  0.86466  Biso   1.000  C
  C173     1.0000 0.12922  0.42007  0.88304  Biso   1.000  C
  C174     1.0000 0.12895  0.44835  0.83461  Biso   1.000  C
  H115     1.0000 0.13807  0.44753  0.79093  Biso   1.000  H
  C175     1.0000 0.11498  0.47773  0.85206  Biso   1.000  C
  H116     1.0000 0.11517  0.49743  0.82003  Biso   1.000  H
  C176     1.0000 0.10092  0.47866  0.91473  Biso   1.000  C
  C177     1.0000 0.10222  0.45057  0.96234  Biso   1.000  C
  H117     1.0000 0.09367  0.45163  0.00633  Biso   1.000  H
  C178     1.0000 0.11591  0.42131  0.94557  Biso   1.000  C
  H118     1.0000 0.11607  0.40193  0.97783  Biso   1.000  H
  C179     1.0000 0.08111  0.50620  0.93185  Biso   1.000  C
  C180     1.0000 0.04242  0.48751  0.96558  Biso   1.000  C
  H119     1.0000 0.02927  0.45743  0.97713  Biso   1.000  H
  H120     1.0000 0.17767  0.61153  0.95013  Biso   1.000  H
  O41      1.0000 0.80900  0.69590  0.24265  Biso   1.000  O
  O42      1.0000 0.82186  0.72179  0.13888  Biso   1.000  O
  C181     1.0000 0.81009  0.72112  0.19800  Biso   1.000  C
  C182     1.0000 0.79588  0.75341  0.21638  Biso   1.000  C
  C183     1.0000 0.79561  0.78169  0.16795  Biso   1.000  C
  H121     1.0000 0.80473  0.78087  0.12427  Biso   1.000  H
  C184     1.0000 0.78164  0.81107  0.18540  Biso   1.000  C
  H122     1.0000 0.78183  0.83077  0.15337  Biso   1.000  H
  C185     1.0000 0.76758  0.81200  0.24807  Biso   1.000  C
  C186     1.0000 0.76888  0.78391  0.29568  Biso   1.000  C
  H123     1.0000 0.76033  0.78497  0.33967  Biso   1.000  H
  C187     1.0000 0.78257  0.75465  0.27891  Biso   1.000  C
  H124     1.0000 0.78273  0.73527  0.31117  Biso   1.000  H
  C188     1.0000 0.74777  0.83954  0.26519  Biso   1.000  C
  C189     1.0000 0.70908  0.82085  0.29892  Biso   1.000  C
  H125     1.0000 0.69593  0.79077  0.31047  Biso   1.000  H
  H126     1.0000 0.84433  0.94487  0.28347  Biso   1.000  H
  O43      1.0000 0.97077  0.44644  0.57598  Biso   1.000  O
  O44      1.0000 0.94488  0.43341  0.47221  Biso   1.000  O
  C190     1.0000 0.94555  0.42231  0.53133  Biso   1.000  C
  C191     1.0000 0.91326  0.37581  0.54971  Biso   1.000  C
  C192     1.0000 0.88498  0.34726  0.50128  Biso   1.000  C
  H127     1.0000 0.88580  0.35720  0.45760  Biso   1.000  H
  C193     1.0000 0.85560  0.30391  0.51873  Biso   1.000  C
  H128     1.0000 0.83590  0.28440  0.48670  Biso   1.000  H
  C194     1.0000 0.85467  0.28892  0.58140  Biso   1.000  C
  C195     1.0000 0.88276  0.31831  0.62901  Biso   1.000  C
  H129     1.0000 0.88170  0.30870  0.67300  Biso   1.000  H
  C196     1.0000 0.91202  0.36126  0.61224  Biso   1.000  C
  H130     1.0000 0.93140  0.38080  0.64450  Biso   1.000  H
  C197     1.0000 0.82713  0.24157  0.59852  Biso   1.000  C
  C198     1.0000 0.84582  0.22157  0.63225  Biso   1.000  C
  H131     1.0000 0.87590  0.23850  0.64380  Biso   1.000  H
  H132     1.0000 0.72180  0.23280  0.61680  Biso   1.000  H
  O45      1.0000 0.63744  0.77977  0.90931  Biso   1.000  O
  O46      1.0000 0.61155  0.76674  0.80554  Biso   1.000  O
  C199     1.0000 0.61222  0.75564  0.86466  Biso   1.000  C
  C200     1.0000 0.57993  0.70914  0.88304  Biso   1.000  C
  C201     1.0000 0.55165  0.68059  0.83461  Biso   1.000  C
  H133     1.0000 0.55247  0.69053  0.79093  Biso   1.000  H
  C202     1.0000 0.52227  0.63724  0.85206  Biso   1.000  C
  H134     1.0000 0.50257  0.61773  0.82003  Biso   1.000  H
  C203     1.0000 0.52134  0.62225  0.91473  Biso   1.000  C
  C204     1.0000 0.54943  0.65164  0.96234  Biso   1.000  C
  H135     1.0000 0.54837  0.64203  0.00633  Biso   1.000  H
  C205     1.0000 0.57869  0.69459  0.94557  Biso   1.000  C
  H136     1.0000 0.59807  0.71413  0.97783  Biso   1.000  H
  C206     1.0000 0.49380  0.57490  0.93185  Biso   1.000  C
  C207     1.0000 0.51249  0.55490  0.96558  Biso   1.000  C
  H137     1.0000 0.54257  0.57183  0.97713  Biso   1.000  H
  H138     1.0000 0.38847  0.56613  0.95013  Biso   1.000  H
  O47      1.0000 0.30410  0.11311  0.24265  Biso   1.000  O
  O48      1.0000 0.27821  0.10008  0.13888  Biso   1.000  O
  C208     1.0000 0.27888  0.08898  0.19800  Biso   1.000  C
  C209     1.0000 0.24659  0.04248  0.21638  Biso   1.000  C
  C210     1.0000 0.21831  0.01393  0.16795  Biso   1.000  C
  H139     1.0000 0.21913  0.02387  0.12427  Biso   1.000  H
  C211     1.0000 0.18893  0.97058  0.18540  Biso   1.000  C
  H140     1.0000 0.16923  0.95107  0.15337  Biso   1.000  H
  C212     1.0000 0.18800  0.95559  0.24807  Biso   1.000  C
  C213     1.0000 0.21609  0.98498  0.29568  Biso   1.000  C
  H141     1.0000 0.21503  0.97537  0.33967  Biso   1.000  H
  C214     1.0000 0.24535  0.02793  0.27891  Biso   1.000  C
  H142     1.0000 0.26473  0.04747  0.31117  Biso   1.000  H
  C215     1.0000 0.16046  0.90824  0.26519  Biso   1.000  C
  C216     1.0000 0.17915  0.88824  0.29892  Biso   1.000  C
  H143     1.0000 0.20923  0.90517  0.31047  Biso   1.000  H
  H144     1.0000 0.05513  0.89947  0.28347  Biso   1.000  H
  O49      1.0000 0.55356  0.52433  0.57598  Biso   1.000  O
  O50      1.0000 0.56659  0.51147  0.47221  Biso   1.000  O
  C217     1.0000 0.57769  0.52324  0.53133  Biso   1.000  C
  C218     1.0000 0.62419  0.53745  0.54971  Biso   1.000  C
  C219     1.0000 0.65274  0.53772  0.50128  Biso   1.000  C
  H145     1.0000 0.64280  0.52860  0.45760  Biso   1.000  H
  C220     1.0000 0.69609  0.55169  0.51873  Biso   1.000  C
  H146     1.0000 0.71560  0.55150  0.48670  Biso   1.000  H
  C221     1.0000 0.71108  0.56575  0.58140  Biso   1.000  C
  C222     1.0000 0.68169  0.56445  0.62901  Biso   1.000  C
  H147     1.0000 0.69130  0.57300  0.67300  Biso   1.000  H
  C223     1.0000 0.63874  0.55076  0.61224  Biso   1.000  C
  H148     1.0000 0.61920  0.55060  0.64450  Biso   1.000  H
  C224     1.0000 0.75843  0.58556  0.59852  Biso   1.000  C
  C225     1.0000 0.77843  0.62425  0.63225  Biso   1.000  C
  H149     1.0000 0.76150  0.63740  0.64380  Biso   1.000  H
  H150     1.0000 0.76720  0.48900  0.61680  Biso   1.000  H
  O51      1.0000 0.22023  0.85766  0.90931  Biso   1.000  O
  O52      1.0000 0.23326  0.84480  0.80554  Biso   1.000  O
  C226     1.0000 0.24436  0.85657  0.86466  Biso   1.000  C
  C227     1.0000 0.29086  0.87078  0.88304  Biso   1.000  C
  C228     1.0000 0.31941  0.87105  0.83461  Biso   1.000  C
  H151     1.0000 0.30947  0.86193  0.79093  Biso   1.000  H
  C229     1.0000 0.36276  0.88502  0.85206  Biso   1.000  C
  H152     1.0000 0.38227  0.88483  0.82003  Biso   1.000  H
  C230     1.0000 0.37775  0.89908  0.91473  Biso   1.000  C
  C231     1.0000 0.34836  0.89778  0.96234  Biso   1.000  C
  H153     1.0000 0.35797  0.90633  0.00633  Biso   1.000  H
  C232     1.0000 0.30541  0.88409  0.94557  Biso   1.000  C
  H154     1.0000 0.28587  0.88393  0.97783  Biso   1.000  H
  C233     1.0000 0.42510  0.91889  0.93185  Biso   1.000  C
  C234     1.0000 0.44510  0.95758  0.96558  Biso   1.000  C
  H155     1.0000 0.42817  0.97073  0.97713  Biso   1.000  H
  H156     1.0000 0.43387  0.82233  0.95013  Biso   1.000  H
  O53      1.0000 0.88689  0.19100  0.24265  Biso   1.000  O
  O54      1.0000 0.89992  0.17814  0.13888  Biso   1.000  O
  C235     1.0000 0.91102  0.18991  0.19800  Biso   1.000  C
  C236     1.0000 0.95752  0.20412  0.21638  Biso   1.000  C
  C237     1.0000 0.98607  0.20439  0.16795  Biso   1.000  C
  H157     1.0000 0.97613  0.19527  0.12427  Biso   1.000  H
  C238     1.0000 0.02942  0.21836  0.18540  Biso   1.000  C
  H158     1.0000 0.04893  0.21817  0.15337  Biso   1.000  H
  C239     1.0000 0.04441  0.23242  0.24807  Biso   1.000  C
  C240     1.0000 0.01502  0.23112  0.29568  Biso   1.000  C
  H159     1.0000 0.02463  0.23967  0.33967  Biso   1.000  H
  C241     1.0000 0.97207  0.21743  0.27891  Biso   1.000  C
  H160     1.0000 0.95253  0.21727  0.31117  Biso   1.000  H
  C242     1.0000 0.09176  0.25223  0.26519  Biso   1.000  C
  C243     1.0000 0.11176  0.29092  0.29892  Biso   1.000  C
  H161     1.0000 0.09483  0.30407  0.31047  Biso   1.000  H
  H162     1.0000 0.10053  0.15567  0.28347  Biso   1.000  H
  O55      1.0000 0.02923  0.47567  0.42402  Biso   1.000  O
  O56      1.0000 0.05512  0.48853  0.52779  Biso   1.000  O
  C244     1.0000 0.05445  0.47676  0.46867  Biso   1.000  C
  C245     1.0000 0.08674  0.46255  0.45029  Biso   1.000  C
  C246     1.0000 0.11502  0.46228  0.49872  Biso   1.000  C
  H163     1.0000 0.11420  0.47140  0.54240  Biso   1.000  H
  C247     1.0000 0.14440  0.44831  0.48127  Biso   1.000  C
  H164     1.0000 0.16410  0.44850  0.51330  Biso   1.000  H
  C248     1.0000 0.14533  0.43425  0.41860  Biso   1.000  C
  C249     1.0000 0.11724  0.43555  0.37099  Biso   1.000  C
  H165     1.0000 0.11830  0.42700  0.32700  Biso   1.000  H
  C250     1.0000 0.08798  0.44924  0.38776  Biso   1.000  C
  H166     1.0000 0.06860  0.44940  0.35550  Biso   1.000  H
  C251     1.0000 0.17287  0.41444  0.40148  Biso   1.000  C
  C252     1.0000 0.15418  0.37575  0.36775  Biso   1.000  C
  H167     1.0000 0.12410  0.36260  0.35620  Biso   1.000  H
  H168     1.0000 0.27820  0.51100  0.38320  Biso   1.000  H
  O57      1.0000 0.69590  0.80900  0.75735  Biso   1.000  O
  O58      1.0000 0.72179  0.82186  0.86112  Biso   1.000  O
  C253     1.0000 0.72112  0.81009  0.80200  Biso   1.000  C
  C254     1.0000 0.75341  0.79588  0.78362  Biso   1.000  C
  C255     1.0000 0.78169  0.79561  0.83205  Biso   1.000  C
  H169     1.0000 0.78087  0.80473  0.87573  Biso   1.000  H
  C256     1.0000 0.81107  0.78164  0.81460  Biso   1.000  C
  H170     1.0000 0.83077  0.78183  0.84663  Biso   1.000  H
  C257     1.0000 0.81200  0.76758  0.75193  Biso   1.000  C
  C258     1.0000 0.78391  0.76888  0.70432  Biso   1.000  C
  H171     1.0000 0.78497  0.76033  0.66033  Biso   1.000  H
  C259     1.0000 0.75465  0.78257  0.72109  Biso   1.000  C
  H172     1.0000 0.73527  0.78273  0.68883  Biso   1.000  H
  C260     1.0000 0.83954  0.74777  0.73481  Biso   1.000  C
  C261     1.0000 0.82085  0.70908  0.70108  Biso   1.000  C
  H173     1.0000 0.79077  0.69593  0.68953  Biso   1.000  H
  H174     1.0000 0.94487  0.84433  0.71653  Biso   1.000  H
  O59      1.0000 0.36256  0.14234  0.09069  Biso   1.000  O
  O60      1.0000 0.38845  0.15520  0.19446  Biso   1.000  O
  C262     1.0000 0.38778  0.14343  0.13534  Biso   1.000  C
  C263     1.0000 0.42007  0.12922  0.11696  Biso   1.000  C
  C264     1.0000 0.44835  0.12895  0.16539  Biso   1.000  C
  H175     1.0000 0.44753  0.13807  0.20907  Biso   1.000  H
  C265     1.0000 0.47773  0.11498  0.14794  Biso   1.000  C
  H176     1.0000 0.49743  0.11517  0.17997  Biso   1.000  H
  C266     1.0000 0.47866  0.10092  0.08527  Biso   1.000  C
  C267     1.0000 0.45057  0.10222  0.03766  Biso   1.000  C
  H177     1.0000 0.45163  0.09367  0.99367  Biso   1.000  H
  C268     1.0000 0.42131  0.11591  0.05443  Biso   1.000  C
  H178     1.0000 0.40193  0.11607  0.02217  Biso   1.000  H
  C269     1.0000 0.50620  0.08111  0.06815  Biso   1.000  C
  C270     1.0000 0.48751  0.04242  0.03442  Biso   1.000  C
  H179     1.0000 0.45743  0.02927  0.02287  Biso   1.000  H
  H180     1.0000 0.61153  0.17767  0.04987  Biso   1.000  H
  O61      1.0000 0.44644  0.97077  0.42402  Biso   1.000  O
  O62      1.0000 0.43341  0.94488  0.52779  Biso   1.000  O
  C271     1.0000 0.42231  0.94555  0.46867  Biso   1.000  C
  C272     1.0000 0.37581  0.91326  0.45029  Biso   1.000  C
  C273     1.0000 0.34726  0.88498  0.49872  Biso   1.000  C
  H181     1.0000 0.35720  0.88580  0.54240  Biso   1.000  H
  C274     1.0000 0.30391  0.85560  0.48127  Biso   1.000  C
  H182     1.0000 0.28440  0.83590  0.51330  Biso   1.000  H
  C275     1.0000 0.28892  0.85467  0.41860  Biso   1.000  C
  C276     1.0000 0.31831  0.88276  0.37099  Biso   1.000  C
  H183     1.0000 0.30870  0.88170  0.32700  Biso   1.000  H
  C277     1.0000 0.36126  0.91202  0.38776  Biso   1.000  C
  H184     1.0000 0.38080  0.93140  0.35550  Biso   1.000  H
  C278     1.0000 0.24157  0.82713  0.40148  Biso   1.000  C
  C279     1.0000 0.22157  0.84582  0.36775  Biso   1.000  C
  H185     1.0000 0.23850  0.87590  0.35620  Biso   1.000  H
  H186     1.0000 0.23280  0.72180  0.38320  Biso   1.000  H
  O63      1.0000 0.11311  0.30410  0.75735  Biso   1.000  O
  O64      1.0000 0.10008  0.27821  0.86112  Biso   1.000  O
  C280     1.0000 0.08898  0.27888  0.80200  Biso   1.000  C
  C281     1.0000 0.04248  0.24659  0.78362  Biso   1.000  C
  C282     1.0000 0.01393  0.21831  0.83205  Biso   1.000  C
  H187     1.0000 0.02387  0.21913  0.87573  Biso   1.000  H
  C283     1.0000 0.97058  0.18893  0.81460  Biso   1.000  C
  H188     1.0000 0.95107  0.16923  0.84663  Biso   1.000  H
  C284     1.0000 0.95559  0.18800  0.75193  Biso   1.000  C
  C285     1.0000 0.98498  0.21609  0.70432  Biso   1.000  C
  H189     1.0000 0.97537  0.21503  0.66033  Biso   1.000  H
  C286     1.0000 0.02793  0.24535  0.72109  Biso   1.000  C
  H190     1.0000 0.04747  0.26473  0.68883  Biso   1.000  H
  C287     1.0000 0.90824  0.16046  0.73481  Biso   1.000  C
  C288     1.0000 0.88824  0.17915  0.70108  Biso   1.000  C
  H191     1.0000 0.90517  0.20923  0.68953  Biso   1.000  H
  H192     1.0000 0.89947  0.05513  0.71653  Biso   1.000  H
  O65      1.0000 0.77977  0.63744  0.09069  Biso   1.000  O
  O66      1.0000 0.76674  0.61155  0.19446  Biso   1.000  O
  C289     1.0000 0.75564  0.61222  0.13534  Biso   1.000  C
  C290     1.0000 0.70914  0.57993  0.11696  Biso   1.000  C
  C291     1.0000 0.68059  0.55165  0.16539  Biso   1.000  C
  H193     1.0000 0.69053  0.55247  0.20907  Biso   1.000  H
  C292     1.0000 0.63724  0.52227  0.14794  Biso   1.000  C
  H194     1.0000 0.61773  0.50257  0.17997  Biso   1.000  H
  C293     1.0000 0.62225  0.52134  0.08527  Biso   1.000  C
  C294     1.0000 0.65164  0.54943  0.03766  Biso   1.000  C
  H195     1.0000 0.64203  0.54837  0.99367  Biso   1.000  H
  C295     1.0000 0.69459  0.57869  0.05443  Biso   1.000  C
  H196     1.0000 0.71413  0.59807  0.02217  Biso   1.000  H
  C296     1.0000 0.57490  0.49380  0.06815  Biso   1.000  C
  C297     1.0000 0.55490  0.51249  0.03442  Biso   1.000  C
  H197     1.0000 0.57183  0.54257  0.02287  Biso   1.000  H
  H198     1.0000 0.56613  0.38847  0.04987  Biso   1.000  H
  O67      1.0000 0.52433  0.55356  0.42402  Biso   1.000  O
  O68      1.0000 0.51147  0.56659  0.52779  Biso   1.000  O
  C298     1.0000 0.52324  0.57769  0.46867  Biso   1.000  C
  C299     1.0000 0.53745  0.62419  0.45029  Biso   1.000  C
  C300     1.0000 0.53772  0.65274  0.49872  Biso   1.000  C
  H199     1.0000 0.52860  0.64280  0.54240  Biso   1.000  H
  C301     1.0000 0.55169  0.69609  0.48127  Biso   1.000  C
  H200     1.0000 0.55150  0.71560  0.51330  Biso   1.000  H
  C302     1.0000 0.56575  0.71108  0.41860  Biso   1.000  C
  C303     1.0000 0.56445  0.68169  0.37099  Biso   1.000  C
  H201     1.0000 0.57300  0.69130  0.32700  Biso   1.000  H
  C304     1.0000 0.55076  0.63874  0.38776  Biso   1.000  C
  H202     1.0000 0.55060  0.61920  0.35550  Biso   1.000  H
  C305     1.0000 0.58556  0.75843  0.40148  Biso   1.000  C
  C306     1.0000 0.62425  0.77843  0.36775  Biso   1.000  C
  H203     1.0000 0.63740  0.76150  0.35620  Biso   1.000  H
  H204     1.0000 0.48900  0.76720  0.38320  Biso   1.000  H
  O69      1.0000 0.19100  0.88689  0.75735  Biso   1.000  O
  O70      1.0000 0.17814  0.89992  0.86112  Biso   1.000  O
  C307     1.0000 0.18991  0.91102  0.80200  Biso   1.000  C
  C308     1.0000 0.20412  0.95752  0.78362  Biso   1.000  C
  C309     1.0000 0.20439  0.98607  0.83205  Biso   1.000  C
  H205     1.0000 0.19527  0.97613  0.87573  Biso   1.000  H
  C310     1.0000 0.21836  0.02942  0.81460  Biso   1.000  C
  H206     1.0000 0.21817  0.04893  0.84663  Biso   1.000  H
  C311     1.0000 0.23242  0.04441  0.75193  Biso   1.000  C
  C312     1.0000 0.23112  0.01502  0.70432  Biso   1.000  C
  H207     1.0000 0.23967  0.02463  0.66033  Biso   1.000  H
  C313     1.0000 0.21743  0.97207  0.72109  Biso   1.000  C
  H208     1.0000 0.21727  0.95253  0.68883  Biso   1.000  H
  C314     1.0000 0.25223  0.09176  0.73481  Biso   1.000  C
  C315     1.0000 0.29092  0.11176  0.70108  Biso   1.000  C
  H209     1.0000 0.30407  0.09483  0.68953  Biso   1.000  H
  H210     1.0000 0.15567  0.10053  0.71653  Biso   1.000  H
  O71      1.0000 0.85766  0.22023  0.09069  Biso   1.000  O
  O72      1.0000 0.84480  0.23326  0.19446  Biso   1.000  O
  C316     1.0000 0.85657  0.24436  0.13534  Biso   1.000  C
  C317     1.0000 0.87078  0.29086  0.11696  Biso   1.000  C
  C318     1.0000 0.87105  0.31941  0.16539  Biso   1.000  C
  H211     1.0000 0.86193  0.30947  0.20907  Biso   1.000  H
  C319     1.0000 0.88502  0.36276  0.14794  Biso   1.000  C
  H212     1.0000 0.88483  0.38227  0.17997  Biso   1.000  H
  C320     1.0000 0.89908  0.37775  0.08527  Biso   1.000  C
  C321     1.0000 0.89778  0.34836  0.03766  Biso   1.000  C
  H213     1.0000 0.90633  0.35797  0.99367  Biso   1.000  H
  C322     1.0000 0.88409  0.30541  0.05443  Biso   1.000  C
  H214     1.0000 0.88393  0.28587  0.02217  Biso   1.000  H
  C323     1.0000 0.91889  0.42510  0.06815  Biso   1.000  C
  C324     1.0000 0.95758  0.44510  0.03442  Biso   1.000  C
  H215     1.0000 0.97073  0.42817  0.02287  Biso   1.000  H
  H216     1.0000 0.82233  0.43387  0.04987  Biso   1.000  H
  Cu1      1.0000 0.50762  0.01523  0.43926  Biso   1.000  Cu
  Cu2      1.0000 0.17428  0.34856  0.77259  Biso   1.000  Cu
  Cu3      1.0000 0.84095  0.68190  0.10593  Biso   1.000  Cu
  Cu4      1.0000 0.98477  0.49238  0.43926  Biso   1.000  Cu
  Cu5      1.0000 0.65144  0.82572  0.77259  Biso   1.000  Cu
  Cu6      1.0000 0.31810  0.15905  0.10593  Biso   1.000  Cu
  Cu7      1.0000 0.50762  0.49238  0.43926  Biso   1.000  Cu
  Cu8      1.0000 0.17428  0.82572  0.77259  Biso   1.000  Cu
  Cu9      1.0000 0.84095  0.15905  0.10593  Biso   1.000  Cu
  Cu10     1.0000 0.01523  0.50761  0.56074  Biso   1.000  Cu
  Cu11     1.0000 0.68190  0.84095  0.89407  Biso   1.000  Cu
  Cu12     1.0000 0.34856  0.17428  0.22741  Biso   1.000  Cu
  Cu13     1.0000 0.49238  0.98477  0.56074  Biso   1.000  Cu
  Cu14     1.0000 0.15905  0.31810  0.89407  Biso   1.000  Cu
  Cu15     1.0000 0.82572  0.65144  0.22741  Biso   1.000  Cu
  Cu16     1.0000 0.49238  0.50762  0.56074  Biso   1.000  Cu
  Cu17     1.0000 0.15905  0.84095  0.89407  Biso   1.000  Cu
  Cu18     1.0000 0.82572  0.17428  0.22741  Biso   1.000  Cu
  O73      1.0000 0.52643  0.76321  0.45314  Biso   1.000  O
  C325     1.0000 0.64548  0.82274  0.34926  Biso   1.000  C
  C326     1.0000 0.56551  0.78275  0.41898  Biso   1.000  C
  C327     1.0000 0.48861  0.74430  0.41110  Biso   1.000  C
  H217     1.0000 0.46200  0.73100  0.43800  Biso   1.000  H
  O74      1.0000 0.19310  0.09655  0.78647  Biso   1.000  O
  C328     1.0000 0.31215  0.15607  0.68259  Biso   1.000  C
  C329     1.0000 0.23218  0.11609  0.75231  Biso   1.000  C
  C330     1.0000 0.15528  0.07764  0.74443  Biso   1.000  C
  H218     1.0000 0.12867  0.06433  0.77133  Biso   1.000  H
  O75      1.0000 0.85976  0.42988  0.11981  Biso   1.000  O
  C331     1.0000 0.97881  0.48941  0.01593  Biso   1.000  C
  C332     1.0000 0.89884  0.44942  0.08565  Biso   1.000  C
  C333     1.0000 0.82194  0.41097  0.07777  Biso   1.000  C
  H219     1.0000 0.79533  0.39767  0.10467  Biso   1.000  H
  O76      1.0000 0.23679  0.76321  0.45314  Biso   1.000  O
  C334     1.0000 0.17726  0.82274  0.34926  Biso   1.000  C
  C335     1.0000 0.21725  0.78275  0.41898  Biso   1.000  C
  C336     1.0000 0.25570  0.74430  0.41110  Biso   1.000  C
  H220     1.0000 0.26900  0.73100  0.43800  Biso   1.000  H
  O77      1.0000 0.90345  0.09655  0.78647  Biso   1.000  O
  C337     1.0000 0.84393  0.15607  0.68259  Biso   1.000  C
  C338     1.0000 0.88391  0.11609  0.75231  Biso   1.000  C
  C339     1.0000 0.92236  0.07764  0.74443  Biso   1.000  C
  H221     1.0000 0.93567  0.06433  0.77133  Biso   1.000  H
  O78      1.0000 0.57012  0.42988  0.11981  Biso   1.000  O
  C340     1.0000 0.51059  0.48941  0.01593  Biso   1.000  C
  C341     1.0000 0.55058  0.44942  0.08565  Biso   1.000  C
  C342     1.0000 0.58903  0.41097  0.07777  Biso   1.000  C
  H222     1.0000 0.60233  0.39767  0.10467  Biso   1.000  H
  O79      1.0000 0.23679  0.47357  0.45314  Biso   1.000  O
  C343     1.0000 0.17726  0.35452  0.34926  Biso   1.000  C
  C344     1.0000 0.21724  0.43449  0.41898  Biso   1.000  C
  C345     1.0000 0.25570  0.51139  0.41110  Biso   1.000  C
  H223     1.0000 0.26900  0.53800  0.43800  Biso   1.000  H
  O80      1.0000 0.90345  0.80690  0.78647  Biso   1.000  O
  C346     1.0000 0.84393  0.68785  0.68259  Biso   1.000  C
  C347     1.0000 0.88391  0.76782  0.75231  Biso   1.000  C
  C348     1.0000 0.92236  0.84472  0.74443  Biso   1.000  C
  H224     1.0000 0.93567  0.87133  0.77133  Biso   1.000  H
  O81      1.0000 0.57012  0.14024  0.11981  Biso   1.000  O
  C349     1.0000 0.51059  0.02119  0.01593  Biso   1.000  C
  C350     1.0000 0.55058  0.10116  0.08565  Biso   1.000  C
  C351     1.0000 0.58903  0.17806  0.07777  Biso   1.000  C
  H225     1.0000 0.60233  0.20467  0.10467  Biso   1.000  H
  O82      1.0000 0.76321  0.52643  0.54686  Biso   1.000  O
  C352     1.0000 0.82274  0.64548  0.65074  Biso   1.000  C
  C353     1.0000 0.78275  0.56551  0.58102  Biso   1.000  C
  C354     1.0000 0.74430  0.48861  0.58890  Biso   1.000  C
  H226     1.0000 0.73100  0.46200  0.56200  Biso   1.000  H
  O83      1.0000 0.42988  0.85976  0.88019  Biso   1.000  O
  C355     1.0000 0.48941  0.97881  0.98407  Biso   1.000  C
  C356     1.0000 0.44942  0.89884  0.91435  Biso   1.000  C
  C357     1.0000 0.41097  0.82194  0.92223  Biso   1.000  C
  H227     1.0000 0.39767  0.79533  0.89533  Biso   1.000  H
  O84      1.0000 0.09655  0.19310  0.21353  Biso   1.000  O
  C358     1.0000 0.15607  0.31215  0.31741  Biso   1.000  C
  C359     1.0000 0.11609  0.23218  0.24769  Biso   1.000  C
  C360     1.0000 0.07764  0.15528  0.25557  Biso   1.000  C
  H228     1.0000 0.06433  0.12867  0.22867  Biso   1.000  H
  O85      1.0000 0.76321  0.23679  0.54686  Biso   1.000  O
  C361     1.0000 0.82274  0.17726  0.65074  Biso   1.000  C
  C362     1.0000 0.78275  0.21725  0.58102  Biso   1.000  C
  C363     1.0000 0.74430  0.25570  0.58890  Biso   1.000  C
  H229     1.0000 0.73100  0.26900  0.56200  Biso   1.000  H
  O86      1.0000 0.42988  0.57012  0.88019  Biso   1.000  O
  C364     1.0000 0.48941  0.51059  0.98407  Biso   1.000  C
  C365     1.0000 0.44942  0.55058  0.91435  Biso   1.000  C
  C366     1.0000 0.41097  0.58903  0.92223  Biso   1.000  C
  H230     1.0000 0.39767  0.60233  0.89533  Biso   1.000  H
  O87      1.0000 0.09655  0.90345  0.21353  Biso   1.000  O
  C367     1.0000 0.15607  0.84393  0.31741  Biso   1.000  C
  C368     1.0000 0.11609  0.88391  0.24769  Biso   1.000  C
  C369     1.0000 0.07764  0.92236  0.25557  Biso   1.000  C
  H231     1.0000 0.06433  0.93567  0.22867  Biso   1.000  H
  O88      1.0000 0.47357  0.23679  0.54686  Biso   1.000  O
  C370     1.0000 0.35452  0.17726  0.65074  Biso   1.000  C
  C371     1.0000 0.43449  0.21725  0.58102  Biso   1.000  C
  C372     1.0000 0.51139  0.25570  0.58890  Biso   1.000  C
  H232     1.0000 0.53800  0.26900  0.56200  Biso   1.000  H
  O89      1.0000 0.14024  0.57012  0.88019  Biso   1.000  O
  C373     1.0000 0.02119  0.51059  0.98407  Biso   1.000  C
  C374     1.0000 0.10116  0.55058  0.91435  Biso   1.000  C
  C375     1.0000 0.17806  0.58903  0.92223  Biso   1.000  C
  H233     1.0000 0.20467  0.60233  0.89533  Biso   1.000  H
  O90      1.0000 0.80690  0.90345  0.21353  Biso   1.000  O
  C376     1.0000 0.68785  0.84393  0.31741  Biso   1.000  C
  C377     1.0000 0.76782  0.88391  0.24769  Biso   1.000  C
  C378     1.0000 0.84472  0.92236  0.25557  Biso   1.000  C
  H234     1.0000 0.87133  0.93567  0.22867  Biso   1.000  H
