data_image0
_cell_length_a       34.829
_cell_length_b       34.829
_cell_length_c       23.497
_cell_angle_alpha    90
_cell_angle_beta     90
_cell_angle_gamma    120

_symmetry_space_group_name_H-M    "P 1"
_symmetry_int_tables_number       1

loop_
  _symmetry_equiv_pos_as_xyz
  'x, y, z'

loop_
  _atom_site_label
  _atom_site_occupancy
  _atom_site_fract_x
  _atom_site_fract_y
  _atom_site_fract_z
  _atom_site_thermal_displace_type
  _atom_site_B_iso_or_equiv
  _atom_site_type_symbol
  O1       1.0000 0.44717  0.47387  0.43311  Biso   1.000  O
  O2       1.0000 0.43218  0.48912  0.51995  Biso   1.000  O
  C1       1.0000 0.42236  0.47590  0.46960  Biso   1.000  C
  C2       1.0000 0.37554  0.46055  0.45440  Biso   1.000  C
  C3       1.0000 0.34383  0.45691  0.49100  Biso   1.000  C
  H1       1.0000 0.35180  0.46490  0.52880  Biso   1.000  H
  C4       1.0000 0.30117  0.44228  0.47580  Biso   1.000  C
  H2       1.0000 0.28120  0.44100  0.50290  Biso   1.000  H
  C5       1.0000 0.28686  0.42916  0.42040  Biso   1.000  C
  C6       1.0000 0.31871  0.43147  0.38310  Biso   1.000  C
  H3       1.0000 0.31100  0.42270  0.34550  Biso   1.000  H
  C7       1.0000 0.36183  0.44668  0.40100  Biso   1.000  C
  H4       1.0000 0.38220  0.44730  0.37480  Biso   1.000  H
  C8       1.0000 0.24016  0.41110  0.40390  Biso   1.000  C
  C9       1.0000 0.22093  0.37333  0.36800  Biso   1.000  C
  H5       1.0000 0.23810  0.36120  0.35620  Biso   1.000  H
  H6       1.0000 0.23080  0.50660  0.39920  Biso   1.000  H
  O3       1.0000 0.11384  0.80720  0.76644  Biso   1.000  O
  O4       1.0000 0.09885  0.82245  0.85328  Biso   1.000  O
  C10      1.0000 0.08903  0.80923  0.80293  Biso   1.000  C
  C11      1.0000 0.04221  0.79388  0.78773  Biso   1.000  C
  C12      1.0000 0.01050  0.79024  0.82433  Biso   1.000  C
  H7       1.0000 0.01847  0.79823  0.86213  Biso   1.000  H
  C13      1.0000 0.96784  0.77561  0.80913  Biso   1.000  C
  H8       1.0000 0.94787  0.77433  0.83623  Biso   1.000  H
  C14      1.0000 0.95353  0.76249  0.75373  Biso   1.000  C
  C15      1.0000 0.98538  0.76480  0.71643  Biso   1.000  C
  H9       1.0000 0.97767  0.75603  0.67883  Biso   1.000  H
  C16      1.0000 0.02850  0.78001  0.73433  Biso   1.000  C
  H10      1.0000 0.04887  0.78063  0.70813  Biso   1.000  H
  C17      1.0000 0.90683  0.74443  0.73723  Biso   1.000  C
  C18      1.0000 0.88760  0.70666  0.70133  Biso   1.000  C
  H11      1.0000 0.90477  0.69453  0.68953  Biso   1.000  H
  H12      1.0000 0.89747  0.83993  0.73253  Biso   1.000  H
  O5       1.0000 0.78050  0.14054  0.09978  Biso   1.000  O
  O6       1.0000 0.76551  0.15579  0.18662  Biso   1.000  O
  C19      1.0000 0.75569  0.14257  0.13627  Biso   1.000  C
  C20      1.0000 0.70887  0.12722  0.12107  Biso   1.000  C
  C21      1.0000 0.67716  0.12358  0.15767  Biso   1.000  C
  H13      1.0000 0.68513  0.13157  0.19547  Biso   1.000  H
  C22      1.0000 0.63450  0.10895  0.14247  Biso   1.000  C
  H14      1.0000 0.61453  0.10767  0.16957  Biso   1.000  H
  C23      1.0000 0.62019  0.09583  0.08707  Biso   1.000  C
  C24      1.0000 0.65204  0.09814  0.04977  Biso   1.000  C
  H15      1.0000 0.64433  0.08937  0.01217  Biso   1.000  H
  C25      1.0000 0.69516  0.11335  0.06767  Biso   1.000  C
  H16      1.0000 0.71553  0.11397  0.04147  Biso   1.000  H
  C26      1.0000 0.57349  0.07777  0.07057  Biso   1.000  C
  C27      1.0000 0.55426  0.04000  0.03467  Biso   1.000  C
  H17      1.0000 0.57143  0.02787  0.02287  Biso   1.000  H
  H18      1.0000 0.56413  0.17327  0.06587  Biso   1.000  H
  O7       1.0000 0.52613  0.97330  0.43311  Biso   1.000  O
  O8       1.0000 0.51088  0.94306  0.51995  Biso   1.000  O
  C28      1.0000 0.52410  0.94646  0.46960  Biso   1.000  C
  C29      1.0000 0.53945  0.91499  0.45440  Biso   1.000  C
  C30      1.0000 0.54309  0.88692  0.49100  Biso   1.000  C
  H19      1.0000 0.53510  0.88690  0.52880  Biso   1.000  H
  C31      1.0000 0.55772  0.85889  0.47580  Biso   1.000  C
  H20      1.0000 0.55900  0.84020  0.50290  Biso   1.000  H
  C32      1.0000 0.57084  0.85770  0.42040  Biso   1.000  C
  C33      1.0000 0.56853  0.88724  0.38310  Biso   1.000  C
  H21      1.0000 0.57730  0.88830  0.34550  Biso   1.000  H
  C34      1.0000 0.55332  0.91515  0.40100  Biso   1.000  C
  H22      1.0000 0.55270  0.93490  0.37480  Biso   1.000  H
  C35      1.0000 0.58890  0.82906  0.40390  Biso   1.000  C
  C36      1.0000 0.62667  0.84760  0.36800  Biso   1.000  C
  H23      1.0000 0.63880  0.87690  0.35620  Biso   1.000  H
  H24      1.0000 0.49340  0.72420  0.39920  Biso   1.000  H
  O9       1.0000 0.19280  0.30663  0.76644  Biso   1.000  O
  O10      1.0000 0.17755  0.27639  0.85328  Biso   1.000  O
  C37      1.0000 0.19077  0.27979  0.80293  Biso   1.000  C
  C38      1.0000 0.20612  0.24832  0.78773  Biso   1.000  C
  C39      1.0000 0.20976  0.22025  0.82433  Biso   1.000  C
  H25      1.0000 0.20177  0.22023  0.86213  Biso   1.000  H
  C40      1.0000 0.22439  0.19222  0.80913  Biso   1.000  C
  H26      1.0000 0.22567  0.17353  0.83623  Biso   1.000  H
  C41      1.0000 0.23751  0.19103  0.75373  Biso   1.000  C
  C42      1.0000 0.23520  0.22057  0.71643  Biso   1.000  C
  H27      1.0000 0.24397  0.22163  0.67883  Biso   1.000  H
  C43      1.0000 0.21999  0.24848  0.73433  Biso   1.000  C
  H28      1.0000 0.21937  0.26823  0.70813  Biso   1.000  H
  C44      1.0000 0.25557  0.16239  0.73723  Biso   1.000  C
  C45      1.0000 0.29334  0.18093  0.70133  Biso   1.000  C
  H29      1.0000 0.30547  0.21023  0.68953  Biso   1.000  H
  H30      1.0000 0.16007  0.05753  0.73253  Biso   1.000  H
  O11      1.0000 0.85946  0.63997  0.09978  Biso   1.000  O
  O12      1.0000 0.84421  0.60973  0.18662  Biso   1.000  O
  C46      1.0000 0.85743  0.61313  0.13627  Biso   1.000  C
  C47      1.0000 0.87278  0.58166  0.12107  Biso   1.000  C
  C48      1.0000 0.87642  0.55359  0.15767  Biso   1.000  C
  H31      1.0000 0.86843  0.55357  0.19547  Biso   1.000  H
  C49      1.0000 0.89105  0.52556  0.14247  Biso   1.000  C
  H32      1.0000 0.89233  0.50687  0.16957  Biso   1.000  H
  C50      1.0000 0.90417  0.52437  0.08707  Biso   1.000  C
  C51      1.0000 0.90186  0.55391  0.04977  Biso   1.000  C
  H33      1.0000 0.91063  0.55497  0.01217  Biso   1.000  H
  C52      1.0000 0.88665  0.58182  0.06767  Biso   1.000  C
  H34      1.0000 0.88603  0.60157  0.04147  Biso   1.000  H
  C53      1.0000 0.92223  0.49573  0.07057  Biso   1.000  C
  C54      1.0000 0.96000  0.51427  0.03467  Biso   1.000  C
  H35      1.0000 0.97213  0.54357  0.02287  Biso   1.000  H
  H36      1.0000 0.82673  0.39087  0.06587  Biso   1.000  H
  O13      1.0000 0.02670  0.55283  0.43311  Biso   1.000  O
  O14      1.0000 0.05694  0.56782  0.51995  Biso   1.000  O
  C55      1.0000 0.05354  0.57764  0.46960  Biso   1.000  C
  C56      1.0000 0.08501  0.62446  0.45440  Biso   1.000  C
  C57      1.0000 0.11308  0.65617  0.49100  Biso   1.000  C
  H37      1.0000 0.11310  0.64820  0.52880  Biso   1.000  H
  C58      1.0000 0.14111  0.69883  0.47580  Biso   1.000  C
  H38      1.0000 0.15980  0.71880  0.50290  Biso   1.000  H
  C59      1.0000 0.14230  0.71314  0.42040  Biso   1.000  C
  C60      1.0000 0.11276  0.68129  0.38310  Biso   1.000  C
  H39      1.0000 0.11170  0.68900  0.34550  Biso   1.000  H
  C61      1.0000 0.08485  0.63817  0.40100  Biso   1.000  C
  H40      1.0000 0.06510  0.61780  0.37480  Biso   1.000  H
  C62      1.0000 0.17094  0.75984  0.40390  Biso   1.000  C
  C63      1.0000 0.15240  0.77907  0.36800  Biso   1.000  C
  H41      1.0000 0.12310  0.76190  0.35620  Biso   1.000  H
  H42      1.0000 0.27580  0.76920  0.39920  Biso   1.000  H
  O15      1.0000 0.69337  0.88616  0.76644  Biso   1.000  O
  O16      1.0000 0.72361  0.90115  0.85328  Biso   1.000  O
  C64      1.0000 0.72021  0.91097  0.80293  Biso   1.000  C
  C65      1.0000 0.75168  0.95779  0.78773  Biso   1.000  C
  C66      1.0000 0.77975  0.98950  0.82433  Biso   1.000  C
  H43      1.0000 0.77977  0.98153  0.86213  Biso   1.000  H
  C67      1.0000 0.80778  0.03216  0.80913  Biso   1.000  C
  H44      1.0000 0.82647  0.05213  0.83623  Biso   1.000  H
  C68      1.0000 0.80897  0.04647  0.75373  Biso   1.000  C
  C69      1.0000 0.77943  0.01462  0.71643  Biso   1.000  C
  H45      1.0000 0.77837  0.02233  0.67883  Biso   1.000  H
  C70      1.0000 0.75152  0.97150  0.73433  Biso   1.000  C
  H46      1.0000 0.73177  0.95113  0.70813  Biso   1.000  H
  C71      1.0000 0.83761  0.09317  0.73723  Biso   1.000  C
  C72      1.0000 0.81907  0.11240  0.70133  Biso   1.000  C
  H47      1.0000 0.78977  0.09523  0.68953  Biso   1.000  H
  H48      1.0000 0.94247  0.10253  0.73253  Biso   1.000  H
  O17      1.0000 0.36003  0.21950  0.09978  Biso   1.000  O
  O18      1.0000 0.39027  0.23449  0.18662  Biso   1.000  O
  C73      1.0000 0.38687  0.24431  0.13627  Biso   1.000  C
  C74      1.0000 0.41834  0.29113  0.12107  Biso   1.000  C
  C75      1.0000 0.44641  0.32284  0.15767  Biso   1.000  C
  H49      1.0000 0.44643  0.31487  0.19547  Biso   1.000  H
  C76      1.0000 0.47444  0.36550  0.14247  Biso   1.000  C
  H50      1.0000 0.49313  0.38547  0.16957  Biso   1.000  H
  C77      1.0000 0.47563  0.37981  0.08707  Biso   1.000  C
  C78      1.0000 0.44609  0.34796  0.04977  Biso   1.000  C
  H51      1.0000 0.44503  0.35567  0.01217  Biso   1.000  H
  C79      1.0000 0.41818  0.30484  0.06767  Biso   1.000  C
  H52      1.0000 0.39843  0.28447  0.04147  Biso   1.000  H
  C80      1.0000 0.50427  0.42651  0.07057  Biso   1.000  C
  C81      1.0000 0.48573  0.44574  0.03467  Biso   1.000  C
  H53      1.0000 0.45643  0.42857  0.02287  Biso   1.000  H
  H54      1.0000 0.60913  0.43587  0.06587  Biso   1.000  H
  O19      1.0000 0.47387  0.44717  0.56689  Biso   1.000  O
  O20      1.0000 0.48912  0.43218  0.48005  Biso   1.000  O
  C82      1.0000 0.47590  0.42236  0.53040  Biso   1.000  C
  C83      1.0000 0.46055  0.37554  0.54560  Biso   1.000  C
  C84      1.0000 0.45691  0.34383  0.50900  Biso   1.000  C
  H55      1.0000 0.46490  0.35180  0.47120  Biso   1.000  H
  C85      1.0000 0.44228  0.30117  0.52420  Biso   1.000  C
  H56      1.0000 0.44100  0.28120  0.49710  Biso   1.000  H
  C86      1.0000 0.42916  0.28686  0.57960  Biso   1.000  C
  C87      1.0000 0.43147  0.31871  0.61690  Biso   1.000  C
  H57      1.0000 0.42270  0.31100  0.65450  Biso   1.000  H
  C88      1.0000 0.44668  0.36183  0.59900  Biso   1.000  C
  H58      1.0000 0.44730  0.38220  0.62520  Biso   1.000  H
  C89      1.0000 0.41110  0.24016  0.59610  Biso   1.000  C
  C90      1.0000 0.37333  0.22093  0.63200  Biso   1.000  C
  H59      1.0000 0.36120  0.23810  0.64380  Biso   1.000  H
  H60      1.0000 0.50660  0.23080  0.60080  Biso   1.000  H
  O21      1.0000 0.14054  0.78050  0.90022  Biso   1.000  O
  O22      1.0000 0.15579  0.76551  0.81338  Biso   1.000  O
  C91      1.0000 0.14257  0.75569  0.86373  Biso   1.000  C
  C92      1.0000 0.12722  0.70887  0.87893  Biso   1.000  C
  C93      1.0000 0.12358  0.67716  0.84233  Biso   1.000  C
  H61      1.0000 0.13157  0.68513  0.80453  Biso   1.000  H
  C94      1.0000 0.10895  0.63450  0.85753  Biso   1.000  C
  H62      1.0000 0.10767  0.61453  0.83043  Biso   1.000  H
  C95      1.0000 0.09583  0.62019  0.91293  Biso   1.000  C
  C96      1.0000 0.09814  0.65204  0.95023  Biso   1.000  C
  H63      1.0000 0.08937  0.64433  0.98783  Biso   1.000  H
  C97      1.0000 0.11335  0.69516  0.93233  Biso   1.000  C
  H64      1.0000 0.11397  0.71553  0.95853  Biso   1.000  H
  C98      1.0000 0.07777  0.57349  0.92943  Biso   1.000  C
  C99      1.0000 0.04000  0.55426  0.96533  Biso   1.000  C
  H65      1.0000 0.02787  0.57143  0.97713  Biso   1.000  H
  H66      1.0000 0.17327  0.56413  0.93413  Biso   1.000  H
  O23      1.0000 0.80720  0.11384  0.23356  Biso   1.000  O
  O24      1.0000 0.82245  0.09885  0.14672  Biso   1.000  O
  C100     1.0000 0.80923  0.08903  0.19707  Biso   1.000  C
  C101     1.0000 0.79388  0.04221  0.21227  Biso   1.000  C
  C102     1.0000 0.79024  0.01050  0.17567  Biso   1.000  C
  H67      1.0000 0.79823  0.01847  0.13787  Biso   1.000  H
  C103     1.0000 0.77561  0.96784  0.19087  Biso   1.000  C
  H68      1.0000 0.77433  0.94787  0.16377  Biso   1.000  H
  C104     1.0000 0.76249  0.95353  0.24627  Biso   1.000  C
  C105     1.0000 0.76480  0.98538  0.28357  Biso   1.000  C
  H69      1.0000 0.75603  0.97767  0.32117  Biso   1.000  H
  C106     1.0000 0.78001  0.02850  0.26567  Biso   1.000  C
  H70      1.0000 0.78063  0.04887  0.29187  Biso   1.000  H
  C107     1.0000 0.74443  0.90683  0.26277  Biso   1.000  C
  C108     1.0000 0.70666  0.88760  0.29867  Biso   1.000  C
  H71      1.0000 0.69453  0.90477  0.31047  Biso   1.000  H
  H72      1.0000 0.83993  0.89747  0.26747  Biso   1.000  H
  O25      1.0000 0.97330  0.52613  0.56689  Biso   1.000  O
  O26      1.0000 0.94306  0.51088  0.48005  Biso   1.000  O
  C109     1.0000 0.94646  0.52410  0.53040  Biso   1.000  C
  C110     1.0000 0.91499  0.53945  0.54560  Biso   1.000  C
  C111     1.0000 0.88692  0.54309  0.50900  Biso   1.000  C
  H73      1.0000 0.88690  0.53510  0.47120  Biso   1.000  H
  C112     1.0000 0.85889  0.55772  0.52420  Biso   1.000  C
  H74      1.0000 0.84020  0.55900  0.49710  Biso   1.000  H
  C113     1.0000 0.85770  0.57084  0.57960  Biso   1.000  C
  C114     1.0000 0.88724  0.56853  0.61690  Biso   1.000  C
  H75      1.0000 0.88830  0.57730  0.65450  Biso   1.000  H
  C115     1.0000 0.91515  0.55332  0.59900  Biso   1.000  C
  H76      1.0000 0.93490  0.55270  0.62520  Biso   1.000  H
  C116     1.0000 0.82906  0.58890  0.59610  Biso   1.000  C
  C117     1.0000 0.84760  0.62667  0.63200  Biso   1.000  C
  H77      1.0000 0.87690  0.63880  0.64380  Biso   1.000  H
  H78      1.0000 0.72420  0.49340  0.60080  Biso   1.000  H
  O27      1.0000 0.63997  0.85946  0.90022  Biso   1.000  O
  O28      1.0000 0.60973  0.84421  0.81338  Biso   1.000  O
  C118     1.0000 0.61313  0.85743  0.86373  Biso   1.000  C
  C119     1.0000 0.58166  0.87278  0.87893  Biso   1.000  C
  C120     1.0000 0.55359  0.87642  0.84233  Biso   1.000  C
  H79      1.0000 0.55357  0.86843  0.80453  Biso   1.000  H
  C121     1.0000 0.52556  0.89105  0.85753  Biso   1.000  C
  H80      1.0000 0.50687  0.89233  0.83043  Biso   1.000  H
  C122     1.0000 0.52437  0.90417  0.91293  Biso   1.000  C
  C123     1.0000 0.55391  0.90186  0.95023  Biso   1.000  C
  H81      1.0000 0.55497  0.91063  0.98783  Biso   1.000  H
  C124     1.0000 0.58182  0.88665  0.93233  Biso   1.000  C
  H82      1.0000 0.60157  0.88603  0.95853  Biso   1.000  H
  C125     1.0000 0.49573  0.92223  0.92943  Biso   1.000  C
  C126     1.0000 0.51427  0.96000  0.96533  Biso   1.000  C
  H83      1.0000 0.54357  0.97213  0.97713  Biso   1.000  H
  H84      1.0000 0.39087  0.82673  0.93413  Biso   1.000  H
  O29      1.0000 0.30663  0.19280  0.23356  Biso   1.000  O
  O30      1.0000 0.27639  0.17755  0.14672  Biso   1.000  O
  C127     1.0000 0.27979  0.19077  0.19707  Biso   1.000  C
  C128     1.0000 0.24832  0.20612  0.21227  Biso   1.000  C
  C129     1.0000 0.22025  0.20976  0.17567  Biso   1.000  C
  H85      1.0000 0.22023  0.20177  0.13787  Biso   1.000  H
  C130     1.0000 0.19222  0.22439  0.19087  Biso   1.000  C
  H86      1.0000 0.17353  0.22567  0.16377  Biso   1.000  H
  C131     1.0000 0.19103  0.23751  0.24627  Biso   1.000  C
  C132     1.0000 0.22057  0.23520  0.28357  Biso   1.000  C
  H87      1.0000 0.22163  0.24397  0.32117  Biso   1.000  H
  C133     1.0000 0.24848  0.21999  0.26567  Biso   1.000  C
  H88      1.0000 0.26823  0.21937  0.29187  Biso   1.000  H
  C134     1.0000 0.16239  0.25557  0.26277  Biso   1.000  C
  C135     1.0000 0.18093  0.29334  0.29867  Biso   1.000  C
  H89      1.0000 0.21023  0.30547  0.31047  Biso   1.000  H
  H90      1.0000 0.05753  0.16007  0.26747  Biso   1.000  H
  O31      1.0000 0.55283  0.02670  0.56689  Biso   1.000  O
  O32      1.0000 0.56782  0.05694  0.48005  Biso   1.000  O
  C136     1.0000 0.57764  0.05354  0.53040  Biso   1.000  C
  C137     1.0000 0.62446  0.08501  0.54560  Biso   1.000  C
  C138     1.0000 0.65617  0.11308  0.50900  Biso   1.000  C
  H91      1.0000 0.64820  0.11310  0.47120  Biso   1.000  H
  C139     1.0000 0.69883  0.14111  0.52420  Biso   1.000  C
  H92      1.0000 0.71880  0.15980  0.49710  Biso   1.000  H
  C140     1.0000 0.71314  0.14230  0.57960  Biso   1.000  C
  C141     1.0000 0.68129  0.11276  0.61690  Biso   1.000  C
  H93      1.0000 0.68900  0.11170  0.65450  Biso   1.000  H
  C142     1.0000 0.63817  0.08485  0.59900  Biso   1.000  C
  H94      1.0000 0.61780  0.06510  0.62520  Biso   1.000  H
  C143     1.0000 0.75984  0.17094  0.59610  Biso   1.000  C
  C144     1.0000 0.77907  0.15240  0.63200  Biso   1.000  C
  H95      1.0000 0.76190  0.12310  0.64380  Biso   1.000  H
  H96      1.0000 0.76920  0.27580  0.60080  Biso   1.000  H
  O33      1.0000 0.21950  0.36003  0.90022  Biso   1.000  O
  O34      1.0000 0.23449  0.39027  0.81338  Biso   1.000  O
  C145     1.0000 0.24431  0.38687  0.86373  Biso   1.000  C
  C146     1.0000 0.29113  0.41834  0.87893  Biso   1.000  C
  C147     1.0000 0.32284  0.44641  0.84233  Biso   1.000  C
  H97      1.0000 0.31487  0.44643  0.80453  Biso   1.000  H
  C148     1.0000 0.36550  0.47444  0.85753  Biso   1.000  C
  H98      1.0000 0.38547  0.49313  0.83043  Biso   1.000  H
  C149     1.0000 0.37981  0.47563  0.91293  Biso   1.000  C
  C150     1.0000 0.34796  0.44609  0.95023  Biso   1.000  C
  H99      1.0000 0.35567  0.44503  0.98783  Biso   1.000  H
  C151     1.0000 0.30484  0.41818  0.93233  Biso   1.000  C
  H100     1.0000 0.28447  0.39843  0.95853  Biso   1.000  H
  C152     1.0000 0.42651  0.50427  0.92943  Biso   1.000  C
  C153     1.0000 0.44574  0.48573  0.96533  Biso   1.000  C
  H101     1.0000 0.42857  0.45643  0.97713  Biso   1.000  H
  H102     1.0000 0.43587  0.60913  0.93413  Biso   1.000  H
  O35      1.0000 0.88616  0.69337  0.23356  Biso   1.000  O
  O36      1.0000 0.90115  0.72361  0.14672  Biso   1.000  O
  C154     1.0000 0.91097  0.72021  0.19707  Biso   1.000  C
  C155     1.0000 0.95779  0.75168  0.21227  Biso   1.000  C
  C156     1.0000 0.98950  0.77975  0.17567  Biso   1.000  C
  H103     1.0000 0.98153  0.77977  0.13787  Biso   1.000  H
  C157     1.0000 0.03216  0.80778  0.19087  Biso   1.000  C
  H104     1.0000 0.05213  0.82647  0.16377  Biso   1.000  H
  C158     1.0000 0.04647  0.80897  0.24627  Biso   1.000  C
  C159     1.0000 0.01462  0.77943  0.28357  Biso   1.000  C
  H105     1.0000 0.02233  0.77837  0.32117  Biso   1.000  H
  C160     1.0000 0.97150  0.75152  0.26567  Biso   1.000  C
  H106     1.0000 0.95113  0.73177  0.29187  Biso   1.000  H
  C161     1.0000 0.09317  0.83761  0.26277  Biso   1.000  C
  C162     1.0000 0.11240  0.81907  0.29867  Biso   1.000  C
  H107     1.0000 0.09523  0.78977  0.31047  Biso   1.000  H
  H108     1.0000 0.10253  0.94247  0.26747  Biso   1.000  H
  O37      1.0000 0.55283  0.52613  0.56689  Biso   1.000  O
  O38      1.0000 0.56782  0.51088  0.48005  Biso   1.000  O
  C163     1.0000 0.57764  0.52410  0.53040  Biso   1.000  C
  C164     1.0000 0.62446  0.53945  0.54560  Biso   1.000  C
  C165     1.0000 0.65617  0.54309  0.50900  Biso   1.000  C
  H109     1.0000 0.64820  0.53510  0.47120  Biso   1.000  H
  C166     1.0000 0.69883  0.55772  0.52420  Biso   1.000  C
  H110     1.0000 0.71880  0.55900  0.49710  Biso   1.000  H
  C167     1.0000 0.71314  0.57084  0.57960  Biso   1.000  C
  C168     1.0000 0.68129  0.56853  0.61690  Biso   1.000  C
  H111     1.0000 0.68900  0.57730  0.65450  Biso   1.000  H
  C169     1.0000 0.63817  0.55332  0.59900  Biso   1.000  C
  H112     1.0000 0.61780  0.55270  0.62520  Biso   1.000  H
  C170     1.0000 0.75984  0.58890  0.59610  Biso   1.000  C
  C171     1.0000 0.77907  0.62667  0.63200  Biso   1.000  C
  H113     1.0000 0.76190  0.63880  0.64380  Biso   1.000  H
  H114     1.0000 0.76920  0.49340  0.60080  Biso   1.000  H
  O39      1.0000 0.21950  0.85946  0.90022  Biso   1.000  O
  O40      1.0000 0.23449  0.84421  0.81338  Biso   1.000  O
  C172     1.0000 0.24431  0.85743  0.86373  Biso   1.000  C
  C173     1.0000 0.29113  0.87278  0.87893  Biso   1.000  C
  C174     1.0000 0.32284  0.87642  0.84233  Biso   1.000  C
  H115     1.0000 0.31487  0.86843  0.80453  Biso   1.000  H
  C175     1.0000 0.36550  0.89105  0.85753  Biso   1.000  C
  H116     1.0000 0.38547  0.89233  0.83043  Biso   1.000  H
  C176     1.0000 0.37981  0.90417  0.91293  Biso   1.000  C
  C177     1.0000 0.34796  0.90186  0.95023  Biso   1.000  C
  H117     1.0000 0.35567  0.91063  0.98783  Biso   1.000  H
  C178     1.0000 0.30484  0.88665  0.93233  Biso   1.000  C
  H118     1.0000 0.28447  0.88603  0.95853  Biso   1.000  H
  C179     1.0000 0.42651  0.92223  0.92943  Biso   1.000  C
  C180     1.0000 0.44574  0.96000  0.96533  Biso   1.000  C
  H119     1.0000 0.42857  0.97213  0.97713  Biso   1.000  H
  H120     1.0000 0.43587  0.82673  0.93413  Biso   1.000  H
  O41      1.0000 0.88616  0.19280  0.23356  Biso   1.000  O
  O42      1.0000 0.90115  0.17755  0.14672  Biso   1.000  O
  C181     1.0000 0.91097  0.19077  0.19707  Biso   1.000  C
  C182     1.0000 0.95779  0.20612  0.21227  Biso   1.000  C
  C183     1.0000 0.98950  0.20976  0.17567  Biso   1.000  C
  H121     1.0000 0.98153  0.20177  0.13787  Biso   1.000  H
  C184     1.0000 0.03216  0.22439  0.19087  Biso   1.000  C
  H122     1.0000 0.05213  0.22567  0.16377  Biso   1.000  H
  C185     1.0000 0.04647  0.23751  0.24627  Biso   1.000  C
  C186     1.0000 0.01462  0.23520  0.28357  Biso   1.000  C
  H123     1.0000 0.02233  0.24397  0.32117  Biso   1.000  H
  C187     1.0000 0.97150  0.21999  0.26567  Biso   1.000  C
  H124     1.0000 0.95113  0.21937  0.29187  Biso   1.000  H
  C188     1.0000 0.09317  0.25557  0.26277  Biso   1.000  C
  C189     1.0000 0.11240  0.29334  0.29867  Biso   1.000  C
  H125     1.0000 0.09523  0.30547  0.31047  Biso   1.000  H
  H126     1.0000 0.10253  0.16007  0.26747  Biso   1.000  H
  O43      1.0000 0.47387  0.02670  0.56689  Biso   1.000  O
  O44      1.0000 0.48912  0.05694  0.48005  Biso   1.000  O
  C190     1.0000 0.47590  0.05354  0.53040  Biso   1.000  C
  C191     1.0000 0.46055  0.08501  0.54560  Biso   1.000  C
  C192     1.0000 0.45691  0.11308  0.50900  Biso   1.000  C
  H127     1.0000 0.46490  0.11310  0.47120  Biso   1.000  H
  C193     1.0000 0.44228  0.14111  0.52420  Biso   1.000  C
  H128     1.0000 0.44100  0.15980  0.49710  Biso   1.000  H
  C194     1.0000 0.42916  0.14230  0.57960  Biso   1.000  C
  C195     1.0000 0.43147  0.11276  0.61690  Biso   1.000  C
  H129     1.0000 0.42270  0.11170  0.65450  Biso   1.000  H
  C196     1.0000 0.44668  0.08485  0.59900  Biso   1.000  C
  H130     1.0000 0.44730  0.06510  0.62520  Biso   1.000  H
  C197     1.0000 0.41110  0.17094  0.59610  Biso   1.000  C
  C198     1.0000 0.37333  0.15240  0.63200  Biso   1.000  C
  H131     1.0000 0.36120  0.12310  0.64380  Biso   1.000  H
  H132     1.0000 0.50660  0.27580  0.60080  Biso   1.000  H
  O45      1.0000 0.14054  0.36003  0.90022  Biso   1.000  O
  O46      1.0000 0.15579  0.39027  0.81338  Biso   1.000  O
  C199     1.0000 0.14257  0.38687  0.86373  Biso   1.000  C
  C200     1.0000 0.12722  0.41834  0.87893  Biso   1.000  C
  C201     1.0000 0.12358  0.44641  0.84233  Biso   1.000  C
  H133     1.0000 0.13157  0.44643  0.80453  Biso   1.000  H
  C202     1.0000 0.10895  0.47444  0.85753  Biso   1.000  C
  H134     1.0000 0.10767  0.49313  0.83043  Biso   1.000  H
  C203     1.0000 0.09583  0.47563  0.91293  Biso   1.000  C
  C204     1.0000 0.09814  0.44609  0.95023  Biso   1.000  C
  H135     1.0000 0.08937  0.44503  0.98783  Biso   1.000  H
  C205     1.0000 0.11335  0.41818  0.93233  Biso   1.000  C
  H136     1.0000 0.11397  0.39843  0.95853  Biso   1.000  H
  C206     1.0000 0.07777  0.50427  0.92943  Biso   1.000  C
  C207     1.0000 0.04000  0.48573  0.96533  Biso   1.000  C
  H137     1.0000 0.02787  0.45643  0.97713  Biso   1.000  H
  H138     1.0000 0.17327  0.60913  0.93413  Biso   1.000  H
  O47      1.0000 0.80720  0.69337  0.23356  Biso   1.000  O
  O48      1.0000 0.82245  0.72361  0.14672  Biso   1.000  O
  C208     1.0000 0.80923  0.72021  0.19707  Biso   1.000  C
  C209     1.0000 0.79388  0.75168  0.21227  Biso   1.000  C
  C210     1.0000 0.79024  0.77975  0.17567  Biso   1.000  C
  H139     1.0000 0.79823  0.77977  0.13787  Biso   1.000  H
  C211     1.0000 0.77561  0.80778  0.19087  Biso   1.000  C
  H140     1.0000 0.77433  0.82647  0.16377  Biso   1.000  H
  C212     1.0000 0.76249  0.80897  0.24627  Biso   1.000  C
  C213     1.0000 0.76480  0.77943  0.28357  Biso   1.000  C
  H141     1.0000 0.75603  0.77837  0.32117  Biso   1.000  H
  C214     1.0000 0.78001  0.75152  0.26567  Biso   1.000  C
  H142     1.0000 0.78063  0.73177  0.29187  Biso   1.000  H
  C215     1.0000 0.74443  0.83761  0.26277  Biso   1.000  C
  C216     1.0000 0.70666  0.81907  0.29867  Biso   1.000  C
  H143     1.0000 0.69453  0.78977  0.31047  Biso   1.000  H
  H144     1.0000 0.83993  0.94247  0.26747  Biso   1.000  H
  O49      1.0000 0.97330  0.44717  0.56689  Biso   1.000  O
  O50      1.0000 0.94306  0.43218  0.48005  Biso   1.000  O
  C217     1.0000 0.94646  0.42236  0.53040  Biso   1.000  C
  C218     1.0000 0.91499  0.37554  0.54560  Biso   1.000  C
  C219     1.0000 0.88692  0.34383  0.50900  Biso   1.000  C
  H145     1.0000 0.88690  0.35180  0.47120  Biso   1.000  H
  C220     1.0000 0.85889  0.30117  0.52420  Biso   1.000  C
  H146     1.0000 0.84020  0.28120  0.49710  Biso   1.000  H
  C221     1.0000 0.85770  0.28686  0.57960  Biso   1.000  C
  C222     1.0000 0.88724  0.31871  0.61690  Biso   1.000  C
  H147     1.0000 0.88830  0.31100  0.65450  Biso   1.000  H
  C223     1.0000 0.91515  0.36183  0.59900  Biso   1.000  C
  H148     1.0000 0.93490  0.38220  0.62520  Biso   1.000  H
  C224     1.0000 0.82906  0.24016  0.59610  Biso   1.000  C
  C225     1.0000 0.84760  0.22093  0.63200  Biso   1.000  C
  H149     1.0000 0.87690  0.23810  0.64380  Biso   1.000  H
  H150     1.0000 0.72420  0.23080  0.60080  Biso   1.000  H
  O51      1.0000 0.63997  0.78050  0.90022  Biso   1.000  O
  O52      1.0000 0.60973  0.76551  0.81338  Biso   1.000  O
  C226     1.0000 0.61313  0.75569  0.86373  Biso   1.000  C
  C227     1.0000 0.58166  0.70887  0.87893  Biso   1.000  C
  C228     1.0000 0.55359  0.67716  0.84233  Biso   1.000  C
  H151     1.0000 0.55357  0.68513  0.80453  Biso   1.000  H
  C229     1.0000 0.52556  0.63450  0.85753  Biso   1.000  C
  H152     1.0000 0.50687  0.61453  0.83043  Biso   1.000  H
  C230     1.0000 0.52437  0.62019  0.91293  Biso   1.000  C
  C231     1.0000 0.55391  0.65204  0.95023  Biso   1.000  C
  H153     1.0000 0.55497  0.64433  0.98783  Biso   1.000  H
  C232     1.0000 0.58182  0.69516  0.93233  Biso   1.000  C
  H154     1.0000 0.60157  0.71553  0.95853  Biso   1.000  H
  C233     1.0000 0.49573  0.57349  0.92943  Biso   1.000  C
  C234     1.0000 0.51427  0.55426  0.96533  Biso   1.000  C
  H155     1.0000 0.54357  0.57143  0.97713  Biso   1.000  H
  H156     1.0000 0.39087  0.56413  0.93413  Biso   1.000  H
  O53      1.0000 0.30663  0.11384  0.23356  Biso   1.000  O
  O54      1.0000 0.27639  0.09885  0.14672  Biso   1.000  O
  C235     1.0000 0.27979  0.08903  0.19707  Biso   1.000  C
  C236     1.0000 0.24832  0.04221  0.21227  Biso   1.000  C
  C237     1.0000 0.22025  0.01050  0.17567  Biso   1.000  C
  H157     1.0000 0.22023  0.01847  0.13787  Biso   1.000  H
  C238     1.0000 0.19222  0.96784  0.19087  Biso   1.000  C
  H158     1.0000 0.17353  0.94787  0.16377  Biso   1.000  H
  C239     1.0000 0.19103  0.95353  0.24627  Biso   1.000  C
  C240     1.0000 0.22057  0.98538  0.28357  Biso   1.000  C
  H159     1.0000 0.22163  0.97767  0.32117  Biso   1.000  H
  C241     1.0000 0.24848  0.02850  0.26567  Biso   1.000  C
  H160     1.0000 0.26823  0.04887  0.29187  Biso   1.000  H
  C242     1.0000 0.16239  0.90683  0.26277  Biso   1.000  C
  C243     1.0000 0.18093  0.88760  0.29867  Biso   1.000  C
  H161     1.0000 0.21023  0.90477  0.31047  Biso   1.000  H
  H162     1.0000 0.05753  0.89747  0.26747  Biso   1.000  H
  O55      1.0000 0.52613  0.55283  0.43311  Biso   1.000  O
  O56      1.0000 0.51088  0.56782  0.51995  Biso   1.000  O
  C244     1.0000 0.52410  0.57764  0.46960  Biso   1.000  C
  C245     1.0000 0.53945  0.62446  0.45440  Biso   1.000  C
  C246     1.0000 0.54309  0.65617  0.49100  Biso   1.000  C
  H163     1.0000 0.53510  0.64820  0.52880  Biso   1.000  H
  C247     1.0000 0.55772  0.69883  0.47580  Biso   1.000  C
  H164     1.0000 0.55900  0.71880  0.50290  Biso   1.000  H
  C248     1.0000 0.57084  0.71314  0.42040  Biso   1.000  C
  C249     1.0000 0.56853  0.68129  0.38310  Biso   1.000  C
  H165     1.0000 0.57730  0.68900  0.34550  Biso   1.000  H
  C250     1.0000 0.55332  0.63817  0.40100  Biso   1.000  C
  H166     1.0000 0.55270  0.61780  0.37480  Biso   1.000  H
  C251     1.0000 0.58890  0.75984  0.40390  Biso   1.000  C
  C252     1.0000 0.62667  0.77907  0.36800  Biso   1.000  C
  H167     1.0000 0.63880  0.76190  0.35620  Biso   1.000  H
  H168     1.0000 0.49340  0.76920  0.39920  Biso   1.000  H
  O57      1.0000 0.19280  0.88616  0.76644  Biso   1.000  O
  O58      1.0000 0.17755  0.90115  0.85328  Biso   1.000  O
  C253     1.0000 0.19077  0.91097  0.80293  Biso   1.000  C
  C254     1.0000 0.20612  0.95779  0.78773  Biso   1.000  C
  C255     1.0000 0.20976  0.98950  0.82433  Biso   1.000  C
  H169     1.0000 0.20177  0.98153  0.86213  Biso   1.000  H
  C256     1.0000 0.22439  0.03216  0.80913  Biso   1.000  C
  H170     1.0000 0.22567  0.05213  0.83623  Biso   1.000  H
  C257     1.0000 0.23751  0.04647  0.75373  Biso   1.000  C
  C258     1.0000 0.23520  0.01462  0.71643  Biso   1.000  C
  H171     1.0000 0.24397  0.02233  0.67883  Biso   1.000  H
  C259     1.0000 0.21999  0.97150  0.73433  Biso   1.000  C
  H172     1.0000 0.21937  0.95113  0.70813  Biso   1.000  H
  C260     1.0000 0.25557  0.09317  0.73723  Biso   1.000  C
  C261     1.0000 0.29334  0.11240  0.70133  Biso   1.000  C
  H173     1.0000 0.30547  0.09523  0.68953  Biso   1.000  H
  H174     1.0000 0.16007  0.10253  0.73253  Biso   1.000  H
  O59      1.0000 0.85946  0.21950  0.09978  Biso   1.000  O
  O60      1.0000 0.84421  0.23449  0.18662  Biso   1.000  O
  C262     1.0000 0.85743  0.24431  0.13627  Biso   1.000  C
  C263     1.0000 0.87278  0.29113  0.12107  Biso   1.000  C
  C264     1.0000 0.87642  0.32284  0.15767  Biso   1.000  C
  H175     1.0000 0.86843  0.31487  0.19547  Biso   1.000  H
  C265     1.0000 0.89105  0.36550  0.14247  Biso   1.000  C
  H176     1.0000 0.89233  0.38547  0.16957  Biso   1.000  H
  C266     1.0000 0.90417  0.37981  0.08707  Biso   1.000  C
  C267     1.0000 0.90186  0.34796  0.04977  Biso   1.000  C
  H177     1.0000 0.91063  0.35567  0.01217  Biso   1.000  H
  C268     1.0000 0.88665  0.30484  0.06767  Biso   1.000  C
  H178     1.0000 0.88603  0.28447  0.04147  Biso   1.000  H
  C269     1.0000 0.92223  0.42651  0.07057  Biso   1.000  C
  C270     1.0000 0.96000  0.44574  0.03467  Biso   1.000  C
  H179     1.0000 0.97213  0.42857  0.02287  Biso   1.000  H
  H180     1.0000 0.82673  0.43587  0.06587  Biso   1.000  H
  O61      1.0000 0.02670  0.47387  0.43311  Biso   1.000  O
  O62      1.0000 0.05694  0.48912  0.51995  Biso   1.000  O
  C271     1.0000 0.05354  0.47590  0.46960  Biso   1.000  C
  C272     1.0000 0.08501  0.46055  0.45440  Biso   1.000  C
  C273     1.0000 0.11308  0.45691  0.49100  Biso   1.000  C
  H181     1.0000 0.11310  0.46490  0.52880  Biso   1.000  H
  C274     1.0000 0.14111  0.44228  0.47580  Biso   1.000  C
  H182     1.0000 0.15980  0.44100  0.50290  Biso   1.000  H
  C275     1.0000 0.14230  0.42916  0.42040  Biso   1.000  C
  C276     1.0000 0.11276  0.43147  0.38310  Biso   1.000  C
  H183     1.0000 0.11170  0.42270  0.34550  Biso   1.000  H
  C277     1.0000 0.08485  0.44668  0.40100  Biso   1.000  C
  H184     1.0000 0.06510  0.44730  0.37480  Biso   1.000  H
  C278     1.0000 0.17094  0.41110  0.40390  Biso   1.000  C
  C279     1.0000 0.15240  0.37333  0.36800  Biso   1.000  C
  H185     1.0000 0.12310  0.36120  0.35620  Biso   1.000  H
  H186     1.0000 0.27580  0.50660  0.39920  Biso   1.000  H
  O63      1.0000 0.69337  0.80720  0.76644  Biso   1.000  O
  O64      1.0000 0.72361  0.82245  0.85328  Biso   1.000  O
  C280     1.0000 0.72021  0.80923  0.80293  Biso   1.000  C
  C281     1.0000 0.75168  0.79388  0.78773  Biso   1.000  C
  C282     1.0000 0.77975  0.79024  0.82433  Biso   1.000  C
  H187     1.0000 0.77977  0.79823  0.86213  Biso   1.000  H
  C283     1.0000 0.80778  0.77561  0.80913  Biso   1.000  C
  H188     1.0000 0.82647  0.77433  0.83623  Biso   1.000  H
  C284     1.0000 0.80897  0.76249  0.75373  Biso   1.000  C
  C285     1.0000 0.77943  0.76480  0.71643  Biso   1.000  C
  H189     1.0000 0.77837  0.75603  0.67883  Biso   1.000  H
  C286     1.0000 0.75152  0.78001  0.73433  Biso   1.000  C
  H190     1.0000 0.73177  0.78063  0.70813  Biso   1.000  H
  C287     1.0000 0.83761  0.74443  0.73723  Biso   1.000  C
  C288     1.0000 0.81907  0.70666  0.70133  Biso   1.000  C
  H191     1.0000 0.78977  0.69453  0.68953  Biso   1.000  H
  H192     1.0000 0.94247  0.83993  0.73253  Biso   1.000  H
  O65      1.0000 0.36003  0.14054  0.09978  Biso   1.000  O
  O66      1.0000 0.39027  0.15579  0.18662  Biso   1.000  O
  C289     1.0000 0.38687  0.14257  0.13627  Biso   1.000  C
  C290     1.0000 0.41834  0.12722  0.12107  Biso   1.000  C
  C291     1.0000 0.44641  0.12358  0.15767  Biso   1.000  C
  H193     1.0000 0.44643  0.13157  0.19547  Biso   1.000  H
  C292     1.0000 0.47444  0.10895  0.14247  Biso   1.000  C
  H194     1.0000 0.49313  0.10767  0.16957  Biso   1.000  H
  C293     1.0000 0.47563  0.09583  0.08707  Biso   1.000  C
  C294     1.0000 0.44609  0.09814  0.04977  Biso   1.000  C
  H195     1.0000 0.44503  0.08937  0.01217  Biso   1.000  H
  C295     1.0000 0.41818  0.11335  0.06767  Biso   1.000  C
  H196     1.0000 0.39843  0.11397  0.04147  Biso   1.000  H
  C296     1.0000 0.50427  0.07777  0.07057  Biso   1.000  C
  C297     1.0000 0.48573  0.04000  0.03467  Biso   1.000  C
  H197     1.0000 0.45643  0.02787  0.02287  Biso   1.000  H
  H198     1.0000 0.60913  0.17327  0.06587  Biso   1.000  H
  O67      1.0000 0.44717  0.97330  0.43311  Biso   1.000  O
  O68      1.0000 0.43218  0.94306  0.51995  Biso   1.000  O
  C298     1.0000 0.42236  0.94646  0.46960  Biso   1.000  C
  C299     1.0000 0.37554  0.91499  0.45440  Biso   1.000  C
  C300     1.0000 0.34383  0.88692  0.49100  Biso   1.000  C
  H199     1.0000 0.35180  0.88690  0.52880  Biso   1.000  H
  C301     1.0000 0.30117  0.85889  0.47580  Biso   1.000  C
  H200     1.0000 0.28120  0.84020  0.50290  Biso   1.000  H
  C302     1.0000 0.28686  0.85770  0.42040  Biso   1.000  C
  C303     1.0000 0.31871  0.88724  0.38310  Biso   1.000  C
  H201     1.0000 0.31100  0.88830  0.34550  Biso   1.000  H
  C304     1.0000 0.36183  0.91515  0.40100  Biso   1.000  C
  H202     1.0000 0.38220  0.93490  0.37480  Biso   1.000  H
  C305     1.0000 0.24016  0.82906  0.40390  Biso   1.000  C
  C306     1.0000 0.22093  0.84760  0.36800  Biso   1.000  C
  H203     1.0000 0.23810  0.87690  0.35620  Biso   1.000  H
  H204     1.0000 0.23080  0.72420  0.39920  Biso   1.000  H
  O69      1.0000 0.11384  0.30663  0.76644  Biso   1.000  O
  O70      1.0000 0.09885  0.27639  0.85328  Biso   1.000  O
  C307     1.0000 0.08903  0.27979  0.80293  Biso   1.000  C
  C308     1.0000 0.04221  0.24832  0.78773  Biso   1.000  C
  C309     1.0000 0.01050  0.22025  0.82433  Biso   1.000  C
  H205     1.0000 0.01847  0.22023  0.86213  Biso   1.000  H
  C310     1.0000 0.96784  0.19222  0.80913  Biso   1.000  C
  H206     1.0000 0.94787  0.17353  0.83623  Biso   1.000  H
  C311     1.0000 0.95353  0.19103  0.75373  Biso   1.000  C
  C312     1.0000 0.98538  0.22057  0.71643  Biso   1.000  C
  H207     1.0000 0.97767  0.22163  0.67883  Biso   1.000  H
  C313     1.0000 0.02850  0.24848  0.73433  Biso   1.000  C
  H208     1.0000 0.04887  0.26823  0.70813  Biso   1.000  H
  C314     1.0000 0.90683  0.16239  0.73723  Biso   1.000  C
  C315     1.0000 0.88760  0.18093  0.70133  Biso   1.000  C
  H209     1.0000 0.90477  0.21023  0.68953  Biso   1.000  H
  H210     1.0000 0.89747  0.05753  0.73253  Biso   1.000  H
  O71      1.0000 0.78050  0.63997  0.09978  Biso   1.000  O
  O72      1.0000 0.76551  0.60973  0.18662  Biso   1.000  O
  C316     1.0000 0.75569  0.61313  0.13627  Biso   1.000  C
  C317     1.0000 0.70887  0.58166  0.12107  Biso   1.000  C
  C318     1.0000 0.67716  0.55359  0.15767  Biso   1.000  C
  H211     1.0000 0.68513  0.55357  0.19547  Biso   1.000  H
  C319     1.0000 0.63450  0.52556  0.14247  Biso   1.000  C
  H212     1.0000 0.61453  0.50687  0.16957  Biso   1.000  H
  C320     1.0000 0.62019  0.52437  0.08707  Biso   1.000  C
  C321     1.0000 0.65204  0.55391  0.04977  Biso   1.000  C
  H213     1.0000 0.64433  0.55497  0.01217  Biso   1.000  H
  C322     1.0000 0.69516  0.58182  0.06767  Biso   1.000  C
  H214     1.0000 0.71553  0.60157  0.04147  Biso   1.000  H
  C323     1.0000 0.57349  0.49573  0.07057  Biso   1.000  C
  C324     1.0000 0.55426  0.51427  0.03467  Biso   1.000  C
  H215     1.0000 0.57143  0.54357  0.02287  Biso   1.000  H
  H216     1.0000 0.56413  0.39087  0.06587  Biso   1.000  H
  Cu1      1.0000 0.50885  0.49115  0.44886  Biso   1.000  Cu
  Cu2      1.0000 0.17552  0.82448  0.78219  Biso   1.000  Cu
  Cu3      1.0000 0.84218  0.15782  0.11553  Biso   1.000  Cu
  Cu4      1.0000 0.50885  0.01770  0.44886  Biso   1.000  Cu
  Cu5      1.0000 0.17552  0.35103  0.78219  Biso   1.000  Cu
  Cu6      1.0000 0.84218  0.68437  0.11553  Biso   1.000  Cu
  Cu7      1.0000 0.98230  0.49115  0.44886  Biso   1.000  Cu
  Cu8      1.0000 0.64897  0.82448  0.78219  Biso   1.000  Cu
  Cu9      1.0000 0.31563  0.15782  0.11553  Biso   1.000  Cu
  Cu10     1.0000 0.49115  0.50885  0.55114  Biso   1.000  Cu
  Cu11     1.0000 0.15782  0.84218  0.88447  Biso   1.000  Cu
  Cu12     1.0000 0.82448  0.17552  0.21781  Biso   1.000  Cu
  Cu13     1.0000 0.01770  0.50885  0.55114  Biso   1.000  Cu
  Cu14     1.0000 0.68437  0.84218  0.88447  Biso   1.000  Cu
  Cu15     1.0000 0.35103  0.17552  0.21781  Biso   1.000  Cu
  Cu16     1.0000 0.49115  0.98230  0.55114  Biso   1.000  Cu
  Cu17     1.0000 0.15782  0.31563  0.88447  Biso   1.000  Cu
  Cu18     1.0000 0.82448  0.64897  0.21781  Biso   1.000  Cu
  O73      1.0000 0.23326  0.46652  0.45460  Biso   1.000  O
  C325     1.0000 0.17687  0.35374  0.34990  Biso   1.000  C
  C326     1.0000 0.21480  0.42960  0.41720  Biso   1.000  C
  C327     1.0000 0.25285  0.50570  0.42270  Biso   1.000  C
  H217     1.0000 0.26535  0.53070  0.44800  Biso   1.000  H
  O74      1.0000 0.89993  0.79985  0.78793  Biso   1.000  O
  C328     1.0000 0.84354  0.68707  0.68323  Biso   1.000  C
  C329     1.0000 0.88147  0.76293  0.75053  Biso   1.000  C
  C330     1.0000 0.91952  0.83903  0.75603  Biso   1.000  C
  H218     1.0000 0.93202  0.86403  0.78133  Biso   1.000  H
  O75      1.0000 0.56659  0.13319  0.12127  Biso   1.000  O
  C331     1.0000 0.51020  0.02041  0.01657  Biso   1.000  C
  C332     1.0000 0.54813  0.09627  0.08387  Biso   1.000  C
  C333     1.0000 0.58618  0.17237  0.08937  Biso   1.000  C
  H219     1.0000 0.59868  0.19737  0.11467  Biso   1.000  H
  O76      1.0000 0.53348  0.76674  0.45460  Biso   1.000  O
  C334     1.0000 0.64626  0.82313  0.34990  Biso   1.000  C
  C335     1.0000 0.57040  0.78520  0.41720  Biso   1.000  C
  C336     1.0000 0.49430  0.74715  0.42270  Biso   1.000  C
  H220     1.0000 0.46930  0.73465  0.44800  Biso   1.000  H
  O77      1.0000 0.20015  0.10007  0.78793  Biso   1.000  O
  C337     1.0000 0.31293  0.15646  0.68323  Biso   1.000  C
  C338     1.0000 0.23707  0.11853  0.75053  Biso   1.000  C
  C339     1.0000 0.16097  0.08048  0.75603  Biso   1.000  C
  H221     1.0000 0.13597  0.06798  0.78133  Biso   1.000  H
  O78      1.0000 0.86681  0.43341  0.12127  Biso   1.000  O
  C340     1.0000 0.97959  0.48980  0.01657  Biso   1.000  C
  C341     1.0000 0.90373  0.45187  0.08387  Biso   1.000  C
  C342     1.0000 0.82763  0.41382  0.08937  Biso   1.000  C
  H222     1.0000 0.80263  0.40132  0.11467  Biso   1.000  H
  O79      1.0000 0.23326  0.76674  0.45460  Biso   1.000  O
  C343     1.0000 0.17687  0.82313  0.34990  Biso   1.000  C
  C344     1.0000 0.21480  0.78520  0.41720  Biso   1.000  C
  C345     1.0000 0.25285  0.74715  0.42270  Biso   1.000  C
  H223     1.0000 0.26535  0.73465  0.44800  Biso   1.000  H
  O80      1.0000 0.89993  0.10007  0.78793  Biso   1.000  O
  C346     1.0000 0.84354  0.15646  0.68323  Biso   1.000  C
  C347     1.0000 0.88147  0.11853  0.75053  Biso   1.000  C
  C348     1.0000 0.91952  0.08048  0.75603  Biso   1.000  C
  H224     1.0000 0.93202  0.06798  0.78133  Biso   1.000  H
  O81      1.0000 0.56659  0.43341  0.12127  Biso   1.000  O
  C349     1.0000 0.51020  0.48980  0.01657  Biso   1.000  C
  C350     1.0000 0.54813  0.45187  0.08387  Biso   1.000  C
  C351     1.0000 0.58618  0.41382  0.08937  Biso   1.000  C
  H225     1.0000 0.59868  0.40132  0.11467  Biso   1.000  H
  O82      1.0000 0.46652  0.23326  0.54540  Biso   1.000  O
  C352     1.0000 0.35374  0.17687  0.65010  Biso   1.000  C
  C353     1.0000 0.42960  0.21480  0.58280  Biso   1.000  C
  C354     1.0000 0.50570  0.25285  0.57730  Biso   1.000  C
  H226     1.0000 0.53070  0.26535  0.55200  Biso   1.000  H
  O83      1.0000 0.13319  0.56659  0.87873  Biso   1.000  O
  C355     1.0000 0.02041  0.51020  0.98343  Biso   1.000  C
  C356     1.0000 0.09627  0.54813  0.91613  Biso   1.000  C
  C357     1.0000 0.17237  0.58618  0.91063  Biso   1.000  C
  H227     1.0000 0.19737  0.59868  0.88533  Biso   1.000  H
  O84      1.0000 0.79985  0.89993  0.21207  Biso   1.000  O
  C358     1.0000 0.68707  0.84354  0.31677  Biso   1.000  C
  C359     1.0000 0.76293  0.88147  0.24947  Biso   1.000  C
  C360     1.0000 0.83903  0.91952  0.24397  Biso   1.000  C
  H228     1.0000 0.86403  0.93202  0.21867  Biso   1.000  H
  O85      1.0000 0.76674  0.53348  0.54540  Biso   1.000  O
  C361     1.0000 0.82313  0.64626  0.65010  Biso   1.000  C
  C362     1.0000 0.78520  0.57040  0.58280  Biso   1.000  C
  C363     1.0000 0.74715  0.49430  0.57730  Biso   1.000  C
  H229     1.0000 0.73465  0.46930  0.55200  Biso   1.000  H
  O86      1.0000 0.43341  0.86681  0.87873  Biso   1.000  O
  C364     1.0000 0.48980  0.97959  0.98343  Biso   1.000  C
  C365     1.0000 0.45187  0.90373  0.91613  Biso   1.000  C
  C366     1.0000 0.41382  0.82763  0.91063  Biso   1.000  C
  H230     1.0000 0.40132  0.80263  0.88533  Biso   1.000  H
  O87      1.0000 0.10007  0.20015  0.21207  Biso   1.000  O
  C367     1.0000 0.15646  0.31293  0.31677  Biso   1.000  C
  C368     1.0000 0.11853  0.23707  0.24947  Biso   1.000  C
  C369     1.0000 0.08048  0.16097  0.24397  Biso   1.000  C
  H231     1.0000 0.06798  0.13597  0.21867  Biso   1.000  H
  O88      1.0000 0.76674  0.23326  0.54540  Biso   1.000  O
  C370     1.0000 0.82313  0.17687  0.65010  Biso   1.000  C
  C371     1.0000 0.78520  0.21480  0.58280  Biso   1.000  C
  C372     1.0000 0.74715  0.25285  0.57730  Biso   1.000  C
  H232     1.0000 0.73465  0.26535  0.55200  Biso   1.000  H
  O89      1.0000 0.43341  0.56659  0.87873  Biso   1.000  O
  C373     1.0000 0.48980  0.51020  0.98343  Biso   1.000  C
  C374     1.0000 0.45187  0.54813  0.91613  Biso   1.000  C
  C375     1.0000 0.41382  0.58618  0.91063  Biso   1.000  C
  H233     1.0000 0.40132  0.59868  0.88533  Biso   1.000  H
  O90      1.0000 0.10007  0.89993  0.21207  Biso   1.000  O
  C376     1.0000 0.15646  0.84354  0.31677  Biso   1.000  C
  C377     1.0000 0.11853  0.88147  0.24947  Biso   1.000  C
  C378     1.0000 0.08048  0.91952  0.24397  Biso   1.000  C
  H234     1.0000 0.06798  0.93202  0.21867  Biso   1.000  H
