data_image0
_cell_length_a       35.0198
_cell_length_b       35.0198
_cell_length_c       22.902
_cell_angle_alpha    90
_cell_angle_beta     90
_cell_angle_gamma    120

_symmetry_space_group_name_H-M    "P 1"
_symmetry_int_tables_number       1

loop_
  _symmetry_equiv_pos_as_xyz
  'x, y, z'

loop_
  _atom_site_label
  _atom_site_occupancy
  _atom_site_fract_x
  _atom_site_fract_y
  _atom_site_fract_z
  _atom_site_thermal_displace_type
  _atom_site_B_iso_or_equiv
  _atom_site_type_symbol
  O1       1.0000 0.23427  0.38956  0.31066  Biso   1.000  O
  O2       1.0000 0.19195  0.30535  0.26562  Biso   1.000  O
  C1       1.0000 0.24464  0.38728  0.36194  Biso   1.000  C
  C2       1.0000 0.29150  0.41874  0.38054  Biso   1.000  C
  C3       1.0000 0.32227  0.44694  0.33955  Biso   1.000  C
  C4       1.0000 0.30532  0.41916  0.43533  Biso   1.000  C
  H1       1.0000 0.31370  0.44640  0.30100  Biso   1.000  H
  C5       1.0000 0.36518  0.47555  0.35592  Biso   1.000  C
  C6       1.0000 0.34801  0.44780  0.45299  Biso   1.000  C
  H2       1.0000 0.28540  0.39940  0.46240  Biso   1.000  H
  H3       1.0000 0.38500  0.49480  0.32850  Biso   1.000  H
  C7       1.0000 0.37908  0.47610  0.41186  Biso   1.000  C
  H4       1.0000 0.35610  0.44840  0.49180  Biso   1.000  H
  C8       1.0000 0.42629  0.50451  0.42996  Biso   1.000  C
  C9       1.0000 0.44611  0.48631  0.46453  Biso   1.000  C
  H5       1.0000 0.42930  0.45690  0.47550  Biso   1.000  H
  H6       1.0000 0.43440  0.61040  0.43470  Biso   1.000  H
  O3       1.0000 0.90094  0.72289  0.64399  Biso   1.000  O
  O4       1.0000 0.85862  0.63868  0.59895  Biso   1.000  O
  C10      1.0000 0.91131  0.72061  0.69527  Biso   1.000  C
  C11      1.0000 0.95817  0.75207  0.71387  Biso   1.000  C
  C12      1.0000 0.98894  0.78027  0.67288  Biso   1.000  C
  C13      1.0000 0.97199  0.75249  0.76866  Biso   1.000  C
  H7       1.0000 0.98037  0.77973  0.63433  Biso   1.000  H
  C14      1.0000 0.03185  0.80888  0.68925  Biso   1.000  C
  C15      1.0000 0.01468  0.78113  0.78632  Biso   1.000  C
  H8       1.0000 0.95207  0.73273  0.79573  Biso   1.000  H
  H9       1.0000 0.05167  0.82813  0.66183  Biso   1.000  H
  C16      1.0000 0.04575  0.80943  0.74519  Biso   1.000  C
  H10      1.0000 0.02277  0.78173  0.82513  Biso   1.000  H
  C17      1.0000 0.09296  0.83784  0.76329  Biso   1.000  C
  C18      1.0000 0.11278  0.81964  0.79786  Biso   1.000  C
  H11      1.0000 0.09597  0.79023  0.80883  Biso   1.000  H
  H12      1.0000 0.10107  0.94373  0.76803  Biso   1.000  H
  O5       1.0000 0.56760  0.05623  0.97733  Biso   1.000  O
  O6       1.0000 0.52528  0.97202  0.93229  Biso   1.000  O
  C19      1.0000 0.57797  0.05395  0.02861  Biso   1.000  C
  C20      1.0000 0.62483  0.08541  0.04721  Biso   1.000  C
  C21      1.0000 0.65560  0.11361  0.00622  Biso   1.000  C
  C22      1.0000 0.63865  0.08583  0.10200  Biso   1.000  C
  H13      1.0000 0.64703  0.11307  0.96767  Biso   1.000  H
  C23      1.0000 0.69851  0.14222  0.02259  Biso   1.000  C
  C24      1.0000 0.68134  0.11447  0.11966  Biso   1.000  C
  H14      1.0000 0.61873  0.06607  0.12907  Biso   1.000  H
  H15      1.0000 0.71833  0.16147  0.99517  Biso   1.000  H
  C25      1.0000 0.71241  0.14277  0.07853  Biso   1.000  C
  H16      1.0000 0.68943  0.11507  0.15847  Biso   1.000  H
  C26      1.0000 0.75962  0.17118  0.09663  Biso   1.000  C
  C27      1.0000 0.77944  0.15298  0.13120  Biso   1.000  C
  H17      1.0000 0.76263  0.12357  0.14217  Biso   1.000  H
  H18      1.0000 0.76773  0.27707  0.10137  Biso   1.000  H
  O7       1.0000 0.61044  0.84471  0.31066  Biso   1.000  O
  O8       1.0000 0.69465  0.88660  0.26562  Biso   1.000  O
  C28      1.0000 0.61272  0.85736  0.36194  Biso   1.000  C
  C29      1.0000 0.58126  0.87276  0.38054  Biso   1.000  C
  C30      1.0000 0.55306  0.87533  0.33955  Biso   1.000  C
  C31      1.0000 0.58084  0.88616  0.43533  Biso   1.000  C
  H19      1.0000 0.55360  0.86730  0.30100  Biso   1.000  H
  C32      1.0000 0.52445  0.88963  0.35592  Biso   1.000  C
  C33      1.0000 0.55220  0.90021  0.45299  Biso   1.000  C
  H20      1.0000 0.60060  0.88600  0.46240  Biso   1.000  H
  H21      1.0000 0.50520  0.89020  0.32850  Biso   1.000  H
  C34      1.0000 0.52390  0.90298  0.41186  Biso   1.000  C
  H22      1.0000 0.55160  0.90770  0.49180  Biso   1.000  H
  C35      1.0000 0.49549  0.92178  0.42996  Biso   1.000  C
  C36      1.0000 0.51369  0.95980  0.46453  Biso   1.000  C
  H23      1.0000 0.54310  0.97240  0.47550  Biso   1.000  H
  H24      1.0000 0.38960  0.82400  0.43470  Biso   1.000  H
  O9       1.0000 0.27711  0.17804  0.64399  Biso   1.000  O
  O10      1.0000 0.36132  0.21993  0.59895  Biso   1.000  O
  C37      1.0000 0.27939  0.19069  0.69527  Biso   1.000  C
  C38      1.0000 0.24793  0.20609  0.71387  Biso   1.000  C
  C39      1.0000 0.21973  0.20866  0.67288  Biso   1.000  C
  C40      1.0000 0.24751  0.21949  0.76866  Biso   1.000  C
  H25      1.0000 0.22027  0.20063  0.63433  Biso   1.000  H
  C41      1.0000 0.19112  0.22296  0.68925  Biso   1.000  C
  C42      1.0000 0.21887  0.23354  0.78632  Biso   1.000  C
  H26      1.0000 0.26727  0.21933  0.79573  Biso   1.000  H
  H27      1.0000 0.17187  0.22353  0.66183  Biso   1.000  H
  C43      1.0000 0.19057  0.23631  0.74519  Biso   1.000  C
  H28      1.0000 0.21827  0.24103  0.82513  Biso   1.000  H
  C44      1.0000 0.16216  0.25511  0.76329  Biso   1.000  C
  C45      1.0000 0.18036  0.29313  0.79786  Biso   1.000  C
  H29      1.0000 0.20977  0.30573  0.80883  Biso   1.000  H
  H30      1.0000 0.05627  0.15733  0.76803  Biso   1.000  H
  O11      1.0000 0.94377  0.51138  0.97733  Biso   1.000  O
  O12      1.0000 0.02798  0.55327  0.93229  Biso   1.000  O
  C46      1.0000 0.94605  0.52403  0.02861  Biso   1.000  C
  C47      1.0000 0.91459  0.53943  0.04721  Biso   1.000  C
  C48      1.0000 0.88639  0.54200  0.00622  Biso   1.000  C
  C49      1.0000 0.91417  0.55283  0.10200  Biso   1.000  C
  H31      1.0000 0.88693  0.53397  0.96767  Biso   1.000  H
  C50      1.0000 0.85778  0.55630  0.02259  Biso   1.000  C
  C51      1.0000 0.88553  0.56688  0.11966  Biso   1.000  C
  H32      1.0000 0.93393  0.55267  0.12907  Biso   1.000  H
  H33      1.0000 0.83853  0.55687  0.99517  Biso   1.000  H
  C52      1.0000 0.85723  0.56965  0.07853  Biso   1.000  C
  H34      1.0000 0.88493  0.57437  0.15847  Biso   1.000  H
  C53      1.0000 0.82882  0.58845  0.09663  Biso   1.000  C
  C54      1.0000 0.84702  0.62647  0.13120  Biso   1.000  C
  H35      1.0000 0.87643  0.63907  0.14217  Biso   1.000  H
  H36      1.0000 0.72293  0.49067  0.10137  Biso   1.000  H
  O13      1.0000 0.15529  0.76573  0.31066  Biso   1.000  O
  O14      1.0000 0.11340  0.80805  0.26562  Biso   1.000  O
  C55      1.0000 0.14264  0.75536  0.36194  Biso   1.000  C
  C56      1.0000 0.12724  0.70850  0.38054  Biso   1.000  C
  C57      1.0000 0.12467  0.67773  0.33955  Biso   1.000  C
  C58      1.0000 0.11384  0.69468  0.43533  Biso   1.000  C
  H37      1.0000 0.13270  0.68630  0.30100  Biso   1.000  H
  C59      1.0000 0.11037  0.63482  0.35592  Biso   1.000  C
  C60      1.0000 0.09979  0.65199  0.45299  Biso   1.000  C
  H38      1.0000 0.11400  0.71460  0.46240  Biso   1.000  H
  H39      1.0000 0.10980  0.61500  0.32850  Biso   1.000  H
  C61      1.0000 0.09702  0.62092  0.41186  Biso   1.000  C
  H40      1.0000 0.09230  0.64390  0.49180  Biso   1.000  H
  C62      1.0000 0.07822  0.57371  0.42996  Biso   1.000  C
  C63      1.0000 0.04020  0.55389  0.46453  Biso   1.000  C
  H41      1.0000 0.02760  0.57070  0.47550  Biso   1.000  H
  H42      1.0000 0.17600  0.56560  0.43470  Biso   1.000  H
  O15      1.0000 0.82196  0.09906  0.64399  Biso   1.000  O
  O16      1.0000 0.78007  0.14138  0.59895  Biso   1.000  O
  C64      1.0000 0.80931  0.08869  0.69527  Biso   1.000  C
  C65      1.0000 0.79391  0.04183  0.71387  Biso   1.000  C
  C66      1.0000 0.79134  0.01106  0.67288  Biso   1.000  C
  C67      1.0000 0.78051  0.02801  0.76866  Biso   1.000  C
  H43      1.0000 0.79937  0.01963  0.63433  Biso   1.000  H
  C68      1.0000 0.77704  0.96815  0.68925  Biso   1.000  C
  C69      1.0000 0.76646  0.98532  0.78632  Biso   1.000  C
  H44      1.0000 0.78067  0.04793  0.79573  Biso   1.000  H
  H45      1.0000 0.77647  0.94833  0.66183  Biso   1.000  H
  C70      1.0000 0.76369  0.95425  0.74519  Biso   1.000  C
  H46      1.0000 0.75897  0.97723  0.82513  Biso   1.000  H
  C71      1.0000 0.74489  0.90704  0.76329  Biso   1.000  C
  C72      1.0000 0.70687  0.88722  0.79786  Biso   1.000  C
  H47      1.0000 0.69427  0.90403  0.80883  Biso   1.000  H
  H48      1.0000 0.84267  0.89893  0.76803  Biso   1.000  H
  O17      1.0000 0.48862  0.43240  0.97733  Biso   1.000  O
  O18      1.0000 0.44673  0.47472  0.93229  Biso   1.000  O
  C73      1.0000 0.47597  0.42203  0.02861  Biso   1.000  C
  C74      1.0000 0.46057  0.37517  0.04721  Biso   1.000  C
  C75      1.0000 0.45800  0.34440  0.00622  Biso   1.000  C
  C76      1.0000 0.44717  0.36135  0.10200  Biso   1.000  C
  H49      1.0000 0.46603  0.35297  0.96767  Biso   1.000  H
  C77      1.0000 0.44370  0.30149  0.02259  Biso   1.000  C
  C78      1.0000 0.43312  0.31866  0.11966  Biso   1.000  C
  H50      1.0000 0.44733  0.38127  0.12907  Biso   1.000  H
  H51      1.0000 0.44313  0.28167  0.99517  Biso   1.000  H
  C79      1.0000 0.43035  0.28759  0.07853  Biso   1.000  C
  H52      1.0000 0.42563  0.31057  0.15847  Biso   1.000  H
  C80      1.0000 0.41155  0.24038  0.09663  Biso   1.000  C
  C81      1.0000 0.37353  0.22056  0.13120  Biso   1.000  C
  H53      1.0000 0.36093  0.23737  0.14217  Biso   1.000  H
  H54      1.0000 0.50933  0.23227  0.10137  Biso   1.000  H
  O19      1.0000 0.38956  0.23427  0.68934  Biso   1.000  O
  O20      1.0000 0.30535  0.19195  0.73438  Biso   1.000  O
  C82      1.0000 0.38728  0.24464  0.63806  Biso   1.000  C
  C83      1.0000 0.41874  0.29150  0.61946  Biso   1.000  C
  C84      1.0000 0.44694  0.32227  0.66045  Biso   1.000  C
  C85      1.0000 0.41916  0.30532  0.56467  Biso   1.000  C
  H55      1.0000 0.44640  0.31370  0.69900  Biso   1.000  H
  C86      1.0000 0.47555  0.36518  0.64408  Biso   1.000  C
  C87      1.0000 0.44780  0.34801  0.54701  Biso   1.000  C
  H56      1.0000 0.39940  0.28540  0.53760  Biso   1.000  H
  H57      1.0000 0.49480  0.38500  0.67150  Biso   1.000  H
  C88      1.0000 0.47610  0.37908  0.58814  Biso   1.000  C
  H58      1.0000 0.44840  0.35610  0.50820  Biso   1.000  H
  C89      1.0000 0.50451  0.42629  0.57004  Biso   1.000  C
  C90      1.0000 0.48631  0.44611  0.53547  Biso   1.000  C
  H59      1.0000 0.45690  0.42930  0.52450  Biso   1.000  H
  H60      1.0000 0.61040  0.43440  0.56530  Biso   1.000  H
  O21      1.0000 0.05623  0.56760  0.02267  Biso   1.000  O
  O22      1.0000 0.97202  0.52528  0.06771  Biso   1.000  O
  C91      1.0000 0.05395  0.57797  0.97139  Biso   1.000  C
  C92      1.0000 0.08541  0.62483  0.95279  Biso   1.000  C
  C93      1.0000 0.11361  0.65560  0.99378  Biso   1.000  C
  C94      1.0000 0.08583  0.63865  0.89800  Biso   1.000  C
  H61      1.0000 0.11307  0.64703  0.03233  Biso   1.000  H
  C95      1.0000 0.14222  0.69851  0.97741  Biso   1.000  C
  C96      1.0000 0.11447  0.68134  0.88034  Biso   1.000  C
  H62      1.0000 0.06607  0.61873  0.87093  Biso   1.000  H
  H63      1.0000 0.16147  0.71833  0.00483  Biso   1.000  H
  C97      1.0000 0.14277  0.71241  0.92147  Biso   1.000  C
  H64      1.0000 0.11507  0.68943  0.84153  Biso   1.000  H
  C98      1.0000 0.17118  0.75962  0.90337  Biso   1.000  C
  C99      1.0000 0.15298  0.77944  0.86880  Biso   1.000  C
  H65      1.0000 0.12357  0.76263  0.85783  Biso   1.000  H
  H66      1.0000 0.27707  0.76773  0.89863  Biso   1.000  H
  O23      1.0000 0.72289  0.90094  0.35601  Biso   1.000  O
  O24      1.0000 0.63868  0.85862  0.40105  Biso   1.000  O
  C100     1.0000 0.72061  0.91131  0.30473  Biso   1.000  C
  C101     1.0000 0.75207  0.95817  0.28613  Biso   1.000  C
  C102     1.0000 0.78027  0.98894  0.32712  Biso   1.000  C
  C103     1.0000 0.75249  0.97199  0.23134  Biso   1.000  C
  H67      1.0000 0.77973  0.98037  0.36567  Biso   1.000  H
  C104     1.0000 0.80888  0.03185  0.31075  Biso   1.000  C
  C105     1.0000 0.78113  0.01468  0.21368  Biso   1.000  C
  H68      1.0000 0.73273  0.95207  0.20427  Biso   1.000  H
  H69      1.0000 0.82813  0.05167  0.33817  Biso   1.000  H
  C106     1.0000 0.80943  0.04575  0.25481  Biso   1.000  C
  H70      1.0000 0.78173  0.02277  0.17487  Biso   1.000  H
  C107     1.0000 0.83784  0.09296  0.23671  Biso   1.000  C
  C108     1.0000 0.81964  0.11278  0.20214  Biso   1.000  C
  H71      1.0000 0.79023  0.09597  0.19117  Biso   1.000  H
  H72      1.0000 0.94373  0.10107  0.23197  Biso   1.000  H
  O25      1.0000 0.84471  0.61044  0.68934  Biso   1.000  O
  O26      1.0000 0.88660  0.69465  0.73438  Biso   1.000  O
  C109     1.0000 0.85736  0.61272  0.63806  Biso   1.000  C
  C110     1.0000 0.87276  0.58126  0.61946  Biso   1.000  C
  C111     1.0000 0.87533  0.55306  0.66045  Biso   1.000  C
  C112     1.0000 0.88616  0.58084  0.56467  Biso   1.000  C
  H73      1.0000 0.86730  0.55360  0.69900  Biso   1.000  H
  C113     1.0000 0.88963  0.52445  0.64408  Biso   1.000  C
  C114     1.0000 0.90021  0.55220  0.54701  Biso   1.000  C
  H74      1.0000 0.88600  0.60060  0.53760  Biso   1.000  H
  H75      1.0000 0.89020  0.50520  0.67150  Biso   1.000  H
  C115     1.0000 0.90298  0.52390  0.58814  Biso   1.000  C
  H76      1.0000 0.90770  0.55160  0.50820  Biso   1.000  H
  C116     1.0000 0.92178  0.49549  0.57004  Biso   1.000  C
  C117     1.0000 0.95980  0.51369  0.53547  Biso   1.000  C
  H77      1.0000 0.97240  0.54310  0.52450  Biso   1.000  H
  H78      1.0000 0.82400  0.38960  0.56530  Biso   1.000  H
  O27      1.0000 0.51138  0.94377  0.02267  Biso   1.000  O
  O28      1.0000 0.55327  0.02798  0.06771  Biso   1.000  O
  C118     1.0000 0.52403  0.94605  0.97139  Biso   1.000  C
  C119     1.0000 0.53943  0.91459  0.95279  Biso   1.000  C
  C120     1.0000 0.54200  0.88639  0.99378  Biso   1.000  C
  C121     1.0000 0.55283  0.91417  0.89800  Biso   1.000  C
  H79      1.0000 0.53397  0.88693  0.03233  Biso   1.000  H
  C122     1.0000 0.55630  0.85778  0.97741  Biso   1.000  C
  C123     1.0000 0.56688  0.88553  0.88034  Biso   1.000  C
  H80      1.0000 0.55267  0.93393  0.87093  Biso   1.000  H
  H81      1.0000 0.55687  0.83853  0.00483  Biso   1.000  H
  C124     1.0000 0.56965  0.85723  0.92147  Biso   1.000  C
  H82      1.0000 0.57437  0.88493  0.84153  Biso   1.000  H
  C125     1.0000 0.58845  0.82882  0.90337  Biso   1.000  C
  C126     1.0000 0.62647  0.84702  0.86880  Biso   1.000  C
  H83      1.0000 0.63907  0.87643  0.85783  Biso   1.000  H
  H84      1.0000 0.49067  0.72293  0.89863  Biso   1.000  H
  O29      1.0000 0.17804  0.27711  0.35601  Biso   1.000  O
  O30      1.0000 0.21993  0.36132  0.40105  Biso   1.000  O
  C127     1.0000 0.19069  0.27939  0.30473  Biso   1.000  C
  C128     1.0000 0.20609  0.24793  0.28613  Biso   1.000  C
  C129     1.0000 0.20866  0.21973  0.32712  Biso   1.000  C
  C130     1.0000 0.21949  0.24751  0.23134  Biso   1.000  C
  H85      1.0000 0.20063  0.22027  0.36567  Biso   1.000  H
  C131     1.0000 0.22296  0.19112  0.31075  Biso   1.000  C
  C132     1.0000 0.23354  0.21887  0.21368  Biso   1.000  C
  H86      1.0000 0.21933  0.26727  0.20427  Biso   1.000  H
  H87      1.0000 0.22353  0.17187  0.33817  Biso   1.000  H
  C133     1.0000 0.23631  0.19057  0.25481  Biso   1.000  C
  H88      1.0000 0.24103  0.21827  0.17487  Biso   1.000  H
  C134     1.0000 0.25511  0.16216  0.23671  Biso   1.000  C
  C135     1.0000 0.29313  0.18036  0.20214  Biso   1.000  C
  H89      1.0000 0.30573  0.20977  0.19117  Biso   1.000  H
  H90      1.0000 0.15733  0.05627  0.23197  Biso   1.000  H
  O31      1.0000 0.76573  0.15529  0.68934  Biso   1.000  O
  O32      1.0000 0.80805  0.11340  0.73438  Biso   1.000  O
  C136     1.0000 0.75536  0.14264  0.63806  Biso   1.000  C
  C137     1.0000 0.70850  0.12724  0.61946  Biso   1.000  C
  C138     1.0000 0.67773  0.12467  0.66045  Biso   1.000  C
  C139     1.0000 0.69468  0.11384  0.56467  Biso   1.000  C
  H91      1.0000 0.68630  0.13270  0.69900  Biso   1.000  H
  C140     1.0000 0.63482  0.11037  0.64408  Biso   1.000  C
  C141     1.0000 0.65199  0.09979  0.54701  Biso   1.000  C
  H92      1.0000 0.71460  0.11400  0.53760  Biso   1.000  H
  H93      1.0000 0.61500  0.10980  0.67150  Biso   1.000  H
  C142     1.0000 0.62092  0.09702  0.58814  Biso   1.000  C
  H94      1.0000 0.64390  0.09230  0.50820  Biso   1.000  H
  C143     1.0000 0.57371  0.07822  0.57004  Biso   1.000  C
  C144     1.0000 0.55389  0.04020  0.53547  Biso   1.000  C
  H95      1.0000 0.57070  0.02760  0.52450  Biso   1.000  H
  H96      1.0000 0.56560  0.17600  0.56530  Biso   1.000  H
  O33      1.0000 0.43240  0.48862  0.02267  Biso   1.000  O
  O34      1.0000 0.47472  0.44673  0.06771  Biso   1.000  O
  C145     1.0000 0.42203  0.47597  0.97139  Biso   1.000  C
  C146     1.0000 0.37517  0.46057  0.95279  Biso   1.000  C
  C147     1.0000 0.34440  0.45800  0.99378  Biso   1.000  C
  C148     1.0000 0.36135  0.44717  0.89800  Biso   1.000  C
  H97      1.0000 0.35297  0.46603  0.03233  Biso   1.000  H
  C149     1.0000 0.30149  0.44370  0.97741  Biso   1.000  C
  C150     1.0000 0.31866  0.43312  0.88034  Biso   1.000  C
  H98      1.0000 0.38127  0.44733  0.87093  Biso   1.000  H
  H99      1.0000 0.28167  0.44313  0.00483  Biso   1.000  H
  C151     1.0000 0.28759  0.43035  0.92147  Biso   1.000  C
  H100     1.0000 0.31057  0.42563  0.84153  Biso   1.000  H
  C152     1.0000 0.24038  0.41155  0.90337  Biso   1.000  C
  C153     1.0000 0.22056  0.37353  0.86880  Biso   1.000  C
  H101     1.0000 0.23737  0.36093  0.85783  Biso   1.000  H
  H102     1.0000 0.23227  0.50933  0.89863  Biso   1.000  H
  O35      1.0000 0.09906  0.82196  0.35601  Biso   1.000  O
  O36      1.0000 0.14138  0.78007  0.40105  Biso   1.000  O
  C154     1.0000 0.08869  0.80931  0.30473  Biso   1.000  C
  C155     1.0000 0.04183  0.79391  0.28613  Biso   1.000  C
  C156     1.0000 0.01106  0.79134  0.32712  Biso   1.000  C
  C157     1.0000 0.02801  0.78051  0.23134  Biso   1.000  C
  H103     1.0000 0.01963  0.79937  0.36567  Biso   1.000  H
  C158     1.0000 0.96815  0.77704  0.31075  Biso   1.000  C
  C159     1.0000 0.98532  0.76646  0.21368  Biso   1.000  C
  H104     1.0000 0.04793  0.78067  0.20427  Biso   1.000  H
  H105     1.0000 0.94833  0.77647  0.33817  Biso   1.000  H
  C160     1.0000 0.95425  0.76369  0.25481  Biso   1.000  C
  H106     1.0000 0.97723  0.75897  0.17487  Biso   1.000  H
  C161     1.0000 0.90704  0.74489  0.23671  Biso   1.000  C
  C162     1.0000 0.88722  0.70687  0.20214  Biso   1.000  C
  H107     1.0000 0.90403  0.69427  0.19117  Biso   1.000  H
  H108     1.0000 0.89893  0.84267  0.23197  Biso   1.000  H
  O37      1.0000 0.76573  0.61044  0.68934  Biso   1.000  O
  O38      1.0000 0.80805  0.69465  0.73438  Biso   1.000  O
  C163     1.0000 0.75536  0.61272  0.63806  Biso   1.000  C
  C164     1.0000 0.70850  0.58126  0.61946  Biso   1.000  C
  C165     1.0000 0.67773  0.55306  0.66045  Biso   1.000  C
  C166     1.0000 0.69468  0.58084  0.56467  Biso   1.000  C
  H109     1.0000 0.68630  0.55360  0.69900  Biso   1.000  H
  C167     1.0000 0.63482  0.52445  0.64408  Biso   1.000  C
  C168     1.0000 0.65199  0.55220  0.54701  Biso   1.000  C
  H110     1.0000 0.71460  0.60060  0.53760  Biso   1.000  H
  H111     1.0000 0.61500  0.50520  0.67150  Biso   1.000  H
  C169     1.0000 0.62092  0.52390  0.58814  Biso   1.000  C
  H112     1.0000 0.64390  0.55160  0.50820  Biso   1.000  H
  C170     1.0000 0.57371  0.49549  0.57004  Biso   1.000  C
  C171     1.0000 0.55389  0.51369  0.53547  Biso   1.000  C
  H113     1.0000 0.57070  0.54310  0.52450  Biso   1.000  H
  H114     1.0000 0.56560  0.38960  0.56530  Biso   1.000  H
  O39      1.0000 0.43240  0.94377  0.02267  Biso   1.000  O
  O40      1.0000 0.47472  0.02798  0.06771  Biso   1.000  O
  C172     1.0000 0.42203  0.94605  0.97139  Biso   1.000  C
  C173     1.0000 0.37517  0.91459  0.95279  Biso   1.000  C
  C174     1.0000 0.34440  0.88639  0.99378  Biso   1.000  C
  C175     1.0000 0.36135  0.91417  0.89800  Biso   1.000  C
  H115     1.0000 0.35297  0.88693  0.03233  Biso   1.000  H
  C176     1.0000 0.30149  0.85778  0.97741  Biso   1.000  C
  C177     1.0000 0.31866  0.88553  0.88034  Biso   1.000  C
  H116     1.0000 0.38127  0.93393  0.87093  Biso   1.000  H
  H117     1.0000 0.28167  0.83853  0.00483  Biso   1.000  H
  C178     1.0000 0.28759  0.85723  0.92147  Biso   1.000  C
  H118     1.0000 0.31057  0.88493  0.84153  Biso   1.000  H
  C179     1.0000 0.24038  0.82882  0.90337  Biso   1.000  C
  C180     1.0000 0.22056  0.84702  0.86880  Biso   1.000  C
  H119     1.0000 0.23737  0.87643  0.85783  Biso   1.000  H
  H120     1.0000 0.23227  0.72293  0.89863  Biso   1.000  H
  O41      1.0000 0.09906  0.27711  0.35601  Biso   1.000  O
  O42      1.0000 0.14138  0.36132  0.40105  Biso   1.000  O
  C181     1.0000 0.08869  0.27939  0.30473  Biso   1.000  C
  C182     1.0000 0.04183  0.24793  0.28613  Biso   1.000  C
  C183     1.0000 0.01106  0.21973  0.32712  Biso   1.000  C
  C184     1.0000 0.02801  0.24751  0.23134  Biso   1.000  C
  H121     1.0000 0.01963  0.22027  0.36567  Biso   1.000  H
  C185     1.0000 0.96815  0.19112  0.31075  Biso   1.000  C
  C186     1.0000 0.98532  0.21887  0.21368  Biso   1.000  C
  H122     1.0000 0.04793  0.26727  0.20427  Biso   1.000  H
  H123     1.0000 0.94833  0.17187  0.33817  Biso   1.000  H
  C187     1.0000 0.95425  0.19057  0.25481  Biso   1.000  C
  H124     1.0000 0.97723  0.21827  0.17487  Biso   1.000  H
  C188     1.0000 0.90704  0.16216  0.23671  Biso   1.000  C
  C189     1.0000 0.88722  0.18036  0.20214  Biso   1.000  C
  H125     1.0000 0.90403  0.20977  0.19117  Biso   1.000  H
  H126     1.0000 0.89893  0.05627  0.23197  Biso   1.000  H
  O43      1.0000 0.38956  0.15529  0.68934  Biso   1.000  O
  O44      1.0000 0.30535  0.11340  0.73438  Biso   1.000  O
  C190     1.0000 0.38728  0.14264  0.63806  Biso   1.000  C
  C191     1.0000 0.41874  0.12724  0.61946  Biso   1.000  C
  C192     1.0000 0.44694  0.12467  0.66045  Biso   1.000  C
  C193     1.0000 0.41916  0.11384  0.56467  Biso   1.000  C
  H127     1.0000 0.44640  0.13270  0.69900  Biso   1.000  H
  C194     1.0000 0.47555  0.11037  0.64408  Biso   1.000  C
  C195     1.0000 0.44780  0.09979  0.54701  Biso   1.000  C
  H128     1.0000 0.39940  0.11400  0.53760  Biso   1.000  H
  H129     1.0000 0.49480  0.10980  0.67150  Biso   1.000  H
  C196     1.0000 0.47610  0.09702  0.58814  Biso   1.000  C
  H130     1.0000 0.44840  0.09230  0.50820  Biso   1.000  H
  C197     1.0000 0.50451  0.07822  0.57004  Biso   1.000  C
  C198     1.0000 0.48631  0.04020  0.53547  Biso   1.000  C
  H131     1.0000 0.45690  0.02760  0.52450  Biso   1.000  H
  H132     1.0000 0.61040  0.17600  0.56530  Biso   1.000  H
  O45      1.0000 0.05623  0.48862  0.02267  Biso   1.000  O
  O46      1.0000 0.97202  0.44673  0.06771  Biso   1.000  O
  C199     1.0000 0.05395  0.47597  0.97139  Biso   1.000  C
  C200     1.0000 0.08541  0.46057  0.95279  Biso   1.000  C
  C201     1.0000 0.11361  0.45800  0.99378  Biso   1.000  C
  C202     1.0000 0.08583  0.44717  0.89800  Biso   1.000  C
  H133     1.0000 0.11307  0.46603  0.03233  Biso   1.000  H
  C203     1.0000 0.14222  0.44370  0.97741  Biso   1.000  C
  C204     1.0000 0.11447  0.43312  0.88034  Biso   1.000  C
  H134     1.0000 0.06607  0.44733  0.87093  Biso   1.000  H
  H135     1.0000 0.16147  0.44313  0.00483  Biso   1.000  H
  C205     1.0000 0.14277  0.43035  0.92147  Biso   1.000  C
  H136     1.0000 0.11507  0.42563  0.84153  Biso   1.000  H
  C206     1.0000 0.17118  0.41155  0.90337  Biso   1.000  C
  C207     1.0000 0.15298  0.37353  0.86880  Biso   1.000  C
  H137     1.0000 0.12357  0.36093  0.85783  Biso   1.000  H
  H138     1.0000 0.27707  0.50933  0.89863  Biso   1.000  H
  O47      1.0000 0.72289  0.82196  0.35601  Biso   1.000  O
  O48      1.0000 0.63868  0.78007  0.40105  Biso   1.000  O
  C208     1.0000 0.72061  0.80931  0.30473  Biso   1.000  C
  C209     1.0000 0.75207  0.79391  0.28613  Biso   1.000  C
  C210     1.0000 0.78027  0.79134  0.32712  Biso   1.000  C
  C211     1.0000 0.75249  0.78051  0.23134  Biso   1.000  C
  H139     1.0000 0.77973  0.79937  0.36567  Biso   1.000  H
  C212     1.0000 0.80888  0.77704  0.31075  Biso   1.000  C
  C213     1.0000 0.78113  0.76646  0.21368  Biso   1.000  C
  H140     1.0000 0.73273  0.78067  0.20427  Biso   1.000  H
  H141     1.0000 0.82813  0.77647  0.33817  Biso   1.000  H
  C214     1.0000 0.80943  0.76369  0.25481  Biso   1.000  C
  H142     1.0000 0.78173  0.75897  0.17487  Biso   1.000  H
  C215     1.0000 0.83784  0.74489  0.23671  Biso   1.000  C
  C216     1.0000 0.81964  0.70687  0.20214  Biso   1.000  C
  H143     1.0000 0.79023  0.69427  0.19117  Biso   1.000  H
  H144     1.0000 0.94373  0.84267  0.23197  Biso   1.000  H
  O49      1.0000 0.84471  0.23427  0.68934  Biso   1.000  O
  O50      1.0000 0.88660  0.19195  0.73438  Biso   1.000  O
  C217     1.0000 0.85736  0.24464  0.63806  Biso   1.000  C
  C218     1.0000 0.87276  0.29150  0.61946  Biso   1.000  C
  C219     1.0000 0.87533  0.32227  0.66045  Biso   1.000  C
  C220     1.0000 0.88616  0.30532  0.56467  Biso   1.000  C
  H145     1.0000 0.86730  0.31370  0.69900  Biso   1.000  H
  C221     1.0000 0.88963  0.36518  0.64408  Biso   1.000  C
  C222     1.0000 0.90021  0.34801  0.54701  Biso   1.000  C
  H146     1.0000 0.88600  0.28540  0.53760  Biso   1.000  H
  H147     1.0000 0.89020  0.38500  0.67150  Biso   1.000  H
  C223     1.0000 0.90298  0.37908  0.58814  Biso   1.000  C
  H148     1.0000 0.90770  0.35610  0.50820  Biso   1.000  H
  C224     1.0000 0.92178  0.42629  0.57004  Biso   1.000  C
  C225     1.0000 0.95980  0.44611  0.53547  Biso   1.000  C
  H149     1.0000 0.97240  0.42930  0.52450  Biso   1.000  H
  H150     1.0000 0.82400  0.43440  0.56530  Biso   1.000  H
  O51      1.0000 0.51138  0.56760  0.02267  Biso   1.000  O
  O52      1.0000 0.55327  0.52528  0.06771  Biso   1.000  O
  C226     1.0000 0.52403  0.57797  0.97139  Biso   1.000  C
  C227     1.0000 0.53943  0.62483  0.95279  Biso   1.000  C
  C228     1.0000 0.54200  0.65560  0.99378  Biso   1.000  C
  C229     1.0000 0.55283  0.63865  0.89800  Biso   1.000  C
  H151     1.0000 0.53397  0.64703  0.03233  Biso   1.000  H
  C230     1.0000 0.55630  0.69851  0.97741  Biso   1.000  C
  C231     1.0000 0.56688  0.68134  0.88034  Biso   1.000  C
  H152     1.0000 0.55267  0.61873  0.87093  Biso   1.000  H
  H153     1.0000 0.55687  0.71833  0.00483  Biso   1.000  H
  C232     1.0000 0.56965  0.71241  0.92147  Biso   1.000  C
  H154     1.0000 0.57437  0.68943  0.84153  Biso   1.000  H
  C233     1.0000 0.58845  0.75962  0.90337  Biso   1.000  C
  C234     1.0000 0.62647  0.77944  0.86880  Biso   1.000  C
  H155     1.0000 0.63907  0.76263  0.85783  Biso   1.000  H
  H156     1.0000 0.49067  0.76773  0.89863  Biso   1.000  H
  O53      1.0000 0.17804  0.90094  0.35601  Biso   1.000  O
  O54      1.0000 0.21993  0.85862  0.40105  Biso   1.000  O
  C235     1.0000 0.19069  0.91131  0.30473  Biso   1.000  C
  C236     1.0000 0.20609  0.95817  0.28613  Biso   1.000  C
  C237     1.0000 0.20866  0.98894  0.32712  Biso   1.000  C
  C238     1.0000 0.21949  0.97199  0.23134  Biso   1.000  C
  H157     1.0000 0.20063  0.98037  0.36567  Biso   1.000  H
  C239     1.0000 0.22296  0.03185  0.31075  Biso   1.000  C
  C240     1.0000 0.23354  0.01468  0.21368  Biso   1.000  C
  H158     1.0000 0.21933  0.95207  0.20427  Biso   1.000  H
  H159     1.0000 0.22353  0.05167  0.33817  Biso   1.000  H
  C241     1.0000 0.23631  0.04575  0.25481  Biso   1.000  C
  H160     1.0000 0.24103  0.02277  0.17487  Biso   1.000  H
  C242     1.0000 0.25511  0.09296  0.23671  Biso   1.000  C
  C243     1.0000 0.29313  0.11278  0.20214  Biso   1.000  C
  H161     1.0000 0.30573  0.09597  0.19117  Biso   1.000  H
  H162     1.0000 0.15733  0.10107  0.23197  Biso   1.000  H
  O55      1.0000 0.61044  0.76573  0.31066  Biso   1.000  O
  O56      1.0000 0.69465  0.80805  0.26562  Biso   1.000  O
  C244     1.0000 0.61272  0.75536  0.36194  Biso   1.000  C
  C245     1.0000 0.58126  0.70850  0.38054  Biso   1.000  C
  C246     1.0000 0.55306  0.67773  0.33955  Biso   1.000  C
  C247     1.0000 0.58084  0.69468  0.43533  Biso   1.000  C
  H163     1.0000 0.55360  0.68630  0.30100  Biso   1.000  H
  C248     1.0000 0.52445  0.63482  0.35592  Biso   1.000  C
  C249     1.0000 0.55220  0.65199  0.45299  Biso   1.000  C
  H164     1.0000 0.60060  0.71460  0.46240  Biso   1.000  H
  H165     1.0000 0.50520  0.61500  0.32850  Biso   1.000  H
  C250     1.0000 0.52390  0.62092  0.41186  Biso   1.000  C
  H166     1.0000 0.55160  0.64390  0.49180  Biso   1.000  H
  C251     1.0000 0.49549  0.57371  0.42996  Biso   1.000  C
  C252     1.0000 0.51369  0.55389  0.46453  Biso   1.000  C
  H167     1.0000 0.54310  0.57070  0.47550  Biso   1.000  H
  H168     1.0000 0.38960  0.56560  0.43470  Biso   1.000  H
  O57      1.0000 0.27711  0.09906  0.64399  Biso   1.000  O
  O58      1.0000 0.36132  0.14138  0.59895  Biso   1.000  O
  C253     1.0000 0.27939  0.08869  0.69527  Biso   1.000  C
  C254     1.0000 0.24793  0.04183  0.71387  Biso   1.000  C
  C255     1.0000 0.21973  0.01106  0.67288  Biso   1.000  C
  C256     1.0000 0.24751  0.02801  0.76866  Biso   1.000  C
  H169     1.0000 0.22027  0.01963  0.63433  Biso   1.000  H
  C257     1.0000 0.19112  0.96815  0.68925  Biso   1.000  C
  C258     1.0000 0.21887  0.98532  0.78632  Biso   1.000  C
  H170     1.0000 0.26727  0.04793  0.79573  Biso   1.000  H
  H171     1.0000 0.17187  0.94833  0.66183  Biso   1.000  H
  C259     1.0000 0.19057  0.95425  0.74519  Biso   1.000  C
  H172     1.0000 0.21827  0.97723  0.82513  Biso   1.000  H
  C260     1.0000 0.16216  0.90704  0.76329  Biso   1.000  C
  C261     1.0000 0.18036  0.88722  0.79786  Biso   1.000  C
  H173     1.0000 0.20977  0.90403  0.80883  Biso   1.000  H
  H174     1.0000 0.05627  0.89893  0.76803  Biso   1.000  H
  O59      1.0000 0.94377  0.43240  0.97733  Biso   1.000  O
  O60      1.0000 0.02798  0.47472  0.93229  Biso   1.000  O
  C262     1.0000 0.94605  0.42203  0.02861  Biso   1.000  C
  C263     1.0000 0.91459  0.37517  0.04721  Biso   1.000  C
  C264     1.0000 0.88639  0.34440  0.00622  Biso   1.000  C
  C265     1.0000 0.91417  0.36135  0.10200  Biso   1.000  C
  H175     1.0000 0.88693  0.35297  0.96767  Biso   1.000  H
  C266     1.0000 0.85778  0.30149  0.02259  Biso   1.000  C
  C267     1.0000 0.88553  0.31866  0.11966  Biso   1.000  C
  H176     1.0000 0.93393  0.38127  0.12907  Biso   1.000  H
  H177     1.0000 0.83853  0.28167  0.99517  Biso   1.000  H
  C268     1.0000 0.85723  0.28759  0.07853  Biso   1.000  C
  H178     1.0000 0.88493  0.31057  0.15847  Biso   1.000  H
  C269     1.0000 0.82882  0.24038  0.09663  Biso   1.000  C
  C270     1.0000 0.84702  0.22056  0.13120  Biso   1.000  C
  H179     1.0000 0.87643  0.23737  0.14217  Biso   1.000  H
  H180     1.0000 0.72293  0.23227  0.10137  Biso   1.000  H
  O61      1.0000 0.15529  0.38956  0.31066  Biso   1.000  O
  O62      1.0000 0.11340  0.30535  0.26562  Biso   1.000  O
  C271     1.0000 0.14264  0.38728  0.36194  Biso   1.000  C
  C272     1.0000 0.12724  0.41874  0.38054  Biso   1.000  C
  C273     1.0000 0.12467  0.44694  0.33955  Biso   1.000  C
  C274     1.0000 0.11384  0.41916  0.43533  Biso   1.000  C
  H181     1.0000 0.13270  0.44640  0.30100  Biso   1.000  H
  C275     1.0000 0.11037  0.47555  0.35592  Biso   1.000  C
  C276     1.0000 0.09979  0.44780  0.45299  Biso   1.000  C
  H182     1.0000 0.11400  0.39940  0.46240  Biso   1.000  H
  H183     1.0000 0.10980  0.49480  0.32850  Biso   1.000  H
  C277     1.0000 0.09702  0.47610  0.41186  Biso   1.000  C
  H184     1.0000 0.09230  0.44840  0.49180  Biso   1.000  H
  C278     1.0000 0.07822  0.50451  0.42996  Biso   1.000  C
  C279     1.0000 0.04020  0.48631  0.46453  Biso   1.000  C
  H185     1.0000 0.02760  0.45690  0.47550  Biso   1.000  H
  H186     1.0000 0.17600  0.61040  0.43470  Biso   1.000  H
  O63      1.0000 0.82196  0.72289  0.64399  Biso   1.000  O
  O64      1.0000 0.78007  0.63868  0.59895  Biso   1.000  O
  C280     1.0000 0.80931  0.72061  0.69527  Biso   1.000  C
  C281     1.0000 0.79391  0.75207  0.71387  Biso   1.000  C
  C282     1.0000 0.79134  0.78027  0.67288  Biso   1.000  C
  C283     1.0000 0.78051  0.75249  0.76866  Biso   1.000  C
  H187     1.0000 0.79937  0.77973  0.63433  Biso   1.000  H
  C284     1.0000 0.77704  0.80888  0.68925  Biso   1.000  C
  C285     1.0000 0.76646  0.78113  0.78632  Biso   1.000  C
  H188     1.0000 0.78067  0.73273  0.79573  Biso   1.000  H
  H189     1.0000 0.77647  0.82813  0.66183  Biso   1.000  H
  C286     1.0000 0.76369  0.80943  0.74519  Biso   1.000  C
  H190     1.0000 0.75897  0.78173  0.82513  Biso   1.000  H
  C287     1.0000 0.74489  0.83784  0.76329  Biso   1.000  C
  C288     1.0000 0.70687  0.81964  0.79786  Biso   1.000  C
  H191     1.0000 0.69427  0.79023  0.80883  Biso   1.000  H
  H192     1.0000 0.84267  0.94373  0.76803  Biso   1.000  H
  O65      1.0000 0.48862  0.05623  0.97733  Biso   1.000  O
  O66      1.0000 0.44673  0.97202  0.93229  Biso   1.000  O
  C289     1.0000 0.47597  0.05395  0.02861  Biso   1.000  C
  C290     1.0000 0.46057  0.08541  0.04721  Biso   1.000  C
  C291     1.0000 0.45800  0.11361  0.00622  Biso   1.000  C
  C292     1.0000 0.44717  0.08583  0.10200  Biso   1.000  C
  H193     1.0000 0.46603  0.11307  0.96767  Biso   1.000  H
  C293     1.0000 0.44370  0.14222  0.02259  Biso   1.000  C
  C294     1.0000 0.43312  0.11447  0.11966  Biso   1.000  C
  H194     1.0000 0.44733  0.06607  0.12907  Biso   1.000  H
  H195     1.0000 0.44313  0.16147  0.99517  Biso   1.000  H
  C295     1.0000 0.43035  0.14277  0.07853  Biso   1.000  C
  H196     1.0000 0.42563  0.11507  0.15847  Biso   1.000  H
  C296     1.0000 0.41155  0.17118  0.09663  Biso   1.000  C
  C297     1.0000 0.37353  0.15298  0.13120  Biso   1.000  C
  H197     1.0000 0.36093  0.12357  0.14217  Biso   1.000  H
  H198     1.0000 0.50933  0.27707  0.10137  Biso   1.000  H
  O67      1.0000 0.23427  0.84471  0.31066  Biso   1.000  O
  O68      1.0000 0.19195  0.88660  0.26562  Biso   1.000  O
  C298     1.0000 0.24464  0.85736  0.36194  Biso   1.000  C
  C299     1.0000 0.29150  0.87276  0.38054  Biso   1.000  C
  C300     1.0000 0.32227  0.87533  0.33955  Biso   1.000  C
  C301     1.0000 0.30532  0.88616  0.43533  Biso   1.000  C
  H199     1.0000 0.31370  0.86730  0.30100  Biso   1.000  H
  C302     1.0000 0.36518  0.88963  0.35592  Biso   1.000  C
  C303     1.0000 0.34801  0.90021  0.45299  Biso   1.000  C
  H200     1.0000 0.28540  0.88600  0.46240  Biso   1.000  H
  H201     1.0000 0.38500  0.89020  0.32850  Biso   1.000  H
  C304     1.0000 0.37908  0.90298  0.41186  Biso   1.000  C
  H202     1.0000 0.35610  0.90770  0.49180  Biso   1.000  H
  C305     1.0000 0.42629  0.92178  0.42996  Biso   1.000  C
  C306     1.0000 0.44611  0.95980  0.46453  Biso   1.000  C
  H203     1.0000 0.42930  0.97240  0.47550  Biso   1.000  H
  H204     1.0000 0.43440  0.82400  0.43470  Biso   1.000  H
  O69      1.0000 0.90094  0.17804  0.64399  Biso   1.000  O
  O70      1.0000 0.85862  0.21993  0.59895  Biso   1.000  O
  C307     1.0000 0.91131  0.19069  0.69527  Biso   1.000  C
  C308     1.0000 0.95817  0.20609  0.71387  Biso   1.000  C
  C309     1.0000 0.98894  0.20866  0.67288  Biso   1.000  C
  C310     1.0000 0.97199  0.21949  0.76866  Biso   1.000  C
  H205     1.0000 0.98037  0.20063  0.63433  Biso   1.000  H
  C311     1.0000 0.03185  0.22296  0.68925  Biso   1.000  C
  C312     1.0000 0.01468  0.23354  0.78632  Biso   1.000  C
  H206     1.0000 0.95207  0.21933  0.79573  Biso   1.000  H
  H207     1.0000 0.05167  0.22353  0.66183  Biso   1.000  H
  C313     1.0000 0.04575  0.23631  0.74519  Biso   1.000  C
  H208     1.0000 0.02277  0.24103  0.82513  Biso   1.000  H
  C314     1.0000 0.09296  0.25511  0.76329  Biso   1.000  C
  C315     1.0000 0.11278  0.29313  0.79786  Biso   1.000  C
  H209     1.0000 0.09597  0.30573  0.80883  Biso   1.000  H
  H210     1.0000 0.10107  0.15733  0.76803  Biso   1.000  H
  O71      1.0000 0.56760  0.51138  0.97733  Biso   1.000  O
  O72      1.0000 0.52528  0.55327  0.93229  Biso   1.000  O
  C316     1.0000 0.57797  0.52403  0.02861  Biso   1.000  C
  C317     1.0000 0.62483  0.53943  0.04721  Biso   1.000  C
  C318     1.0000 0.65560  0.54200  0.00622  Biso   1.000  C
  C319     1.0000 0.63865  0.55283  0.10200  Biso   1.000  C
  H211     1.0000 0.64703  0.53397  0.96767  Biso   1.000  H
  C320     1.0000 0.69851  0.55630  0.02259  Biso   1.000  C
  C321     1.0000 0.68134  0.56688  0.11966  Biso   1.000  C
  H212     1.0000 0.61873  0.55267  0.12907  Biso   1.000  H
  H213     1.0000 0.71833  0.55687  0.99517  Biso   1.000  H
  C322     1.0000 0.71241  0.56965  0.07853  Biso   1.000  C
  H214     1.0000 0.68943  0.57437  0.15847  Biso   1.000  H
  C323     1.0000 0.75962  0.58845  0.09663  Biso   1.000  C
  C324     1.0000 0.77944  0.62647  0.13120  Biso   1.000  C
  H215     1.0000 0.76263  0.63907  0.14217  Biso   1.000  H
  H216     1.0000 0.76773  0.49067  0.10137  Biso   1.000  H
  Cu1      1.0000 0.17503  0.35007  0.28006  Biso   1.000  Cu
  Cu2      1.0000 0.84170  0.68340  0.61339  Biso   1.000  Cu
  Cu3      1.0000 0.50837  0.01674  0.94673  Biso   1.000  Cu
  Cu4      1.0000 0.64993  0.82497  0.28006  Biso   1.000  Cu
  Cu5      1.0000 0.31660  0.15830  0.61339  Biso   1.000  Cu
  Cu6      1.0000 0.98326  0.49163  0.94673  Biso   1.000  Cu
  Cu7      1.0000 0.17503  0.82497  0.28006  Biso   1.000  Cu
  Cu8      1.0000 0.84170  0.15830  0.61339  Biso   1.000  Cu
  Cu9      1.0000 0.50837  0.49163  0.94673  Biso   1.000  Cu
  Cu10     1.0000 0.35007  0.17503  0.71994  Biso   1.000  Cu
  Cu11     1.0000 0.01674  0.50837  0.05327  Biso   1.000  Cu
  Cu12     1.0000 0.68340  0.84170  0.38661  Biso   1.000  Cu
  Cu13     1.0000 0.82497  0.64993  0.71994  Biso   1.000  Cu
  Cu14     1.0000 0.49163  0.98326  0.05327  Biso   1.000  Cu
  Cu15     1.0000 0.15830  0.31660  0.38661  Biso   1.000  Cu
  Cu16     1.0000 0.82497  0.17503  0.71994  Biso   1.000  Cu
  Cu17     1.0000 0.49163  0.50837  0.05327  Biso   1.000  Cu
  Cu18     1.0000 0.15830  0.84170  0.38661  Biso   1.000  Cu
  C325     1.0000 0.45151  0.54849  0.41350  Biso   1.000  C
  C326     1.0000 0.48984  0.51016  0.48330  Biso   1.000  C
  O73      1.0000 0.43254  0.56746  0.37893  Biso   1.000  O
  C327     1.0000 0.41266  0.58734  0.41060  Biso   1.000  C
  H217     1.0000 0.40050  0.59950  0.38390  Biso   1.000  H
  C328     1.0000 0.11818  0.88182  0.74683  Biso   1.000  C
  C329     1.0000 0.15651  0.84349  0.81663  Biso   1.000  C
  O74      1.0000 0.09921  0.90079  0.71226  Biso   1.000  O
  C330     1.0000 0.07933  0.92067  0.74393  Biso   1.000  C
  H218     1.0000 0.06717  0.93283  0.71723  Biso   1.000  H
  C331     1.0000 0.78484  0.21516  0.08017  Biso   1.000  C
  C332     1.0000 0.82317  0.17683  0.14997  Biso   1.000  C
  O75      1.0000 0.76587  0.23413  0.04560  Biso   1.000  O
  C333     1.0000 0.74599  0.25401  0.07727  Biso   1.000  C
  H219     1.0000 0.73383  0.26617  0.05057  Biso   1.000  H
  C334     1.0000 0.45151  0.90302  0.41350  Biso   1.000  C
  C335     1.0000 0.48984  0.97968  0.48330  Biso   1.000  C
  O76      1.0000 0.43254  0.86508  0.37893  Biso   1.000  O
  C336     1.0000 0.41266  0.82532  0.41060  Biso   1.000  C
  H220     1.0000 0.40050  0.80100  0.38390  Biso   1.000  H
  C337     1.0000 0.11818  0.23635  0.74683  Biso   1.000  C
  C338     1.0000 0.15651  0.31301  0.81663  Biso   1.000  C
  O77      1.0000 0.09921  0.19841  0.71226  Biso   1.000  O
  C339     1.0000 0.07933  0.15865  0.74393  Biso   1.000  C
  H221     1.0000 0.06717  0.13433  0.71723  Biso   1.000  H
  C340     1.0000 0.78484  0.56969  0.08017  Biso   1.000  C
  C341     1.0000 0.82317  0.64635  0.14997  Biso   1.000  C
  O78      1.0000 0.76587  0.53175  0.04560  Biso   1.000  O
  C342     1.0000 0.74599  0.49199  0.07727  Biso   1.000  C
  H222     1.0000 0.73383  0.46767  0.05057  Biso   1.000  H
  C343     1.0000 0.09698  0.54849  0.41350  Biso   1.000  C
  C344     1.0000 0.02032  0.51016  0.48330  Biso   1.000  C
  O79      1.0000 0.13492  0.56746  0.37893  Biso   1.000  O
  C345     1.0000 0.17468  0.58734  0.41060  Biso   1.000  C
  H223     1.0000 0.19900  0.59950  0.38390  Biso   1.000  H
  C346     1.0000 0.76365  0.88182  0.74683  Biso   1.000  C
  C347     1.0000 0.68699  0.84349  0.81663  Biso   1.000  C
  O80      1.0000 0.80159  0.90079  0.71226  Biso   1.000  O
  C348     1.0000 0.84135  0.92067  0.74393  Biso   1.000  C
  H224     1.0000 0.86567  0.93283  0.71723  Biso   1.000  H
  C349     1.0000 0.43031  0.21516  0.08017  Biso   1.000  C
  C350     1.0000 0.35365  0.17683  0.14997  Biso   1.000  C
  O81      1.0000 0.46825  0.23413  0.04560  Biso   1.000  O
  C351     1.0000 0.50801  0.25401  0.07727  Biso   1.000  C
  H225     1.0000 0.53233  0.26617  0.05057  Biso   1.000  H
  C352     1.0000 0.54849  0.45151  0.58650  Biso   1.000  C
  C353     1.0000 0.51016  0.48984  0.51670  Biso   1.000  C
  O82      1.0000 0.56746  0.43254  0.62107  Biso   1.000  O
  C354     1.0000 0.58734  0.41266  0.58940  Biso   1.000  C
  H226     1.0000 0.59950  0.40050  0.61610  Biso   1.000  H
  C355     1.0000 0.21516  0.78484  0.91983  Biso   1.000  C
  C356     1.0000 0.17683  0.82317  0.85003  Biso   1.000  C
  O83      1.0000 0.23413  0.76587  0.95440  Biso   1.000  O
  C357     1.0000 0.25401  0.74599  0.92273  Biso   1.000  C
  H227     1.0000 0.26617  0.73383  0.94943  Biso   1.000  H
  C358     1.0000 0.88182  0.11818  0.25317  Biso   1.000  C
  C359     1.0000 0.84349  0.15651  0.18337  Biso   1.000  C
  O84      1.0000 0.90079  0.09921  0.28774  Biso   1.000  O
  C360     1.0000 0.92067  0.07933  0.25607  Biso   1.000  C
  H228     1.0000 0.93283  0.06717  0.28277  Biso   1.000  H
  C361     1.0000 0.90302  0.45151  0.58650  Biso   1.000  C
  C362     1.0000 0.97968  0.48984  0.51670  Biso   1.000  C
  O85      1.0000 0.86508  0.43254  0.62107  Biso   1.000  O
  C363     1.0000 0.82532  0.41266  0.58940  Biso   1.000  C
  H229     1.0000 0.80100  0.40050  0.61610  Biso   1.000  H
  C364     1.0000 0.56969  0.78484  0.91983  Biso   1.000  C
  C365     1.0000 0.64635  0.82317  0.85003  Biso   1.000  C
  O86      1.0000 0.53175  0.76587  0.95440  Biso   1.000  O
  C366     1.0000 0.49199  0.74599  0.92273  Biso   1.000  C
  H230     1.0000 0.46767  0.73383  0.94943  Biso   1.000  H
  C367     1.0000 0.23635  0.11818  0.25317  Biso   1.000  C
  C368     1.0000 0.31301  0.15651  0.18337  Biso   1.000  C
  O87      1.0000 0.19841  0.09921  0.28774  Biso   1.000  O
  C369     1.0000 0.15865  0.07933  0.25607  Biso   1.000  C
  H231     1.0000 0.13433  0.06717  0.28277  Biso   1.000  H
  C370     1.0000 0.54849  0.09698  0.58650  Biso   1.000  C
  C371     1.0000 0.51016  0.02032  0.51670  Biso   1.000  C
  O88      1.0000 0.56746  0.13492  0.62107  Biso   1.000  O
  C372     1.0000 0.58734  0.17468  0.58940  Biso   1.000  C
  H232     1.0000 0.59950  0.19900  0.61610  Biso   1.000  H
  C373     1.0000 0.21516  0.43031  0.91983  Biso   1.000  C
  C374     1.0000 0.17683  0.35365  0.85003  Biso   1.000  C
  O89      1.0000 0.23413  0.46825  0.95440  Biso   1.000  O
  C375     1.0000 0.25401  0.50801  0.92273  Biso   1.000  C
  H233     1.0000 0.26617  0.53233  0.94943  Biso   1.000  H
  C376     1.0000 0.88182  0.76365  0.25317  Biso   1.000  C
  C377     1.0000 0.84349  0.68699  0.18337  Biso   1.000  C
  O90      1.0000 0.90079  0.80159  0.28774  Biso   1.000  O
  C378     1.0000 0.92067  0.84135  0.25607  Biso   1.000  C
  H234     1.0000 0.93283  0.86567  0.28277  Biso   1.000  H
