data_image0
_cell_length_a       35.1433
_cell_length_b       35.1433
_cell_length_c       21.9283
_cell_angle_alpha    90
_cell_angle_beta     90
_cell_angle_gamma    120

_symmetry_space_group_name_H-M    "P 1"
_symmetry_int_tables_number       1

loop_
  _symmetry_equiv_pos_as_xyz
  'x, y, z'

loop_
  _atom_site_label
  _atom_site_occupancy
  _atom_site_fract_x
  _atom_site_fract_y
  _atom_site_fract_z
  _atom_site_thermal_displace_type
  _atom_site_B_iso_or_equiv
  _atom_site_type_symbol
  O1       1.0000 0.52484  0.97133  0.92979  Biso   1.000  O
  O2       1.0000 0.51141  0.94419  0.02529  Biso   1.000  O
  C1       1.0000 0.52361  0.94560  0.97119  Biso   1.000  C
  C2       1.0000 0.53889  0.91404  0.95301  Biso   1.000  C
  C3       1.0000 0.54129  0.88663  0.99711  Biso   1.000  C
  H1       1.0000 0.53330  0.88780  0.03770  Biso   1.000  H
  C4       1.0000 0.55561  0.85765  0.98068  Biso   1.000  C
  H2       1.0000 0.55650  0.83870  0.01010  Biso   1.000  H
  C5       1.0000 0.56856  0.85642  0.92154  Biso   1.000  C
  C6       1.0000 0.56549  0.88373  0.87764  Biso   1.000  C
  H3       1.0000 0.57310  0.88250  0.83690  Biso   1.000  H
  C7       1.0000 0.55124  0.91260  0.89464  Biso   1.000  C
  H4       1.0000 0.55010  0.93150  0.86530  Biso   1.000  H
  C8       1.0000 0.58785  0.82854  0.90414  Biso   1.000  C
  C9       1.0000 0.62582  0.84670  0.87006  Biso   1.000  C
  H5       1.0000 0.63860  0.87640  0.85880  Biso   1.000  H
  H6       1.0000 0.49330  0.72410  0.89530  Biso   1.000  H
  O3       1.0000 0.19151  0.30466  0.26312  Biso   1.000  O
  O4       1.0000 0.17808  0.27752  0.35862  Biso   1.000  O
  C10      1.0000 0.19028  0.27893  0.30452  Biso   1.000  C
  C11      1.0000 0.20556  0.24737  0.28634  Biso   1.000  C
  C12      1.0000 0.20796  0.21996  0.33044  Biso   1.000  C
  H7       1.0000 0.19997  0.22113  0.37103  Biso   1.000  H
  C13      1.0000 0.22228  0.19098  0.31401  Biso   1.000  C
  H8       1.0000 0.22317  0.17203  0.34343  Biso   1.000  H
  C14      1.0000 0.23523  0.18975  0.25487  Biso   1.000  C
  C15      1.0000 0.23216  0.21706  0.21097  Biso   1.000  C
  H9       1.0000 0.23977  0.21583  0.17023  Biso   1.000  H
  C16      1.0000 0.21791  0.24593  0.22797  Biso   1.000  C
  H10      1.0000 0.21677  0.26483  0.19863  Biso   1.000  H
  C17      1.0000 0.25452  0.16187  0.23747  Biso   1.000  C
  C18      1.0000 0.29249  0.18003  0.20339  Biso   1.000  C
  H11      1.0000 0.30527  0.20973  0.19213  Biso   1.000  H
  H12      1.0000 0.15997  0.05743  0.22863  Biso   1.000  H
  O5       1.0000 0.85817  0.63800  0.59646  Biso   1.000  O
  O6       1.0000 0.84474  0.61086  0.69196  Biso   1.000  O
  C19      1.0000 0.85694  0.61227  0.63786  Biso   1.000  C
  C20      1.0000 0.87222  0.58071  0.61968  Biso   1.000  C
  C21      1.0000 0.87462  0.55330  0.66378  Biso   1.000  C
  H13      1.0000 0.86663  0.55447  0.70437  Biso   1.000  H
  C22      1.0000 0.88894  0.52432  0.64735  Biso   1.000  C
  H14      1.0000 0.88983  0.50537  0.67677  Biso   1.000  H
  C23      1.0000 0.90189  0.52309  0.58821  Biso   1.000  C
  C24      1.0000 0.89882  0.55040  0.54431  Biso   1.000  C
  H15      1.0000 0.90643  0.54917  0.50357  Biso   1.000  H
  C25      1.0000 0.88457  0.57927  0.56131  Biso   1.000  C
  H16      1.0000 0.88343  0.59817  0.53197  Biso   1.000  H
  C26      1.0000 0.92118  0.49521  0.57081  Biso   1.000  C
  C27      1.0000 0.95915  0.51337  0.53673  Biso   1.000  C
  H17      1.0000 0.97193  0.54307  0.52547  Biso   1.000  H
  H18      1.0000 0.82663  0.39077  0.56197  Biso   1.000  H
  O7       1.0000 0.02867  0.55351  0.92979  Biso   1.000  O
  O8       1.0000 0.05581  0.56722  0.02529  Biso   1.000  O
  C28      1.0000 0.05440  0.57801  0.97119  Biso   1.000  C
  C29      1.0000 0.08596  0.62485  0.95301  Biso   1.000  C
  C30      1.0000 0.11337  0.65466  0.99711  Biso   1.000  C
  H19      1.0000 0.11220  0.64550  0.03770  Biso   1.000  H
  C31      1.0000 0.14235  0.69796  0.98068  Biso   1.000  C
  H20      1.0000 0.16130  0.71780  0.01010  Biso   1.000  H
  C32      1.0000 0.14358  0.71214  0.92154  Biso   1.000  C
  C33      1.0000 0.11627  0.68176  0.87764  Biso   1.000  C
  H21      1.0000 0.11750  0.69060  0.83690  Biso   1.000  H
  C34      1.0000 0.08740  0.63864  0.89464  Biso   1.000  C
  H22      1.0000 0.06850  0.61860  0.86530  Biso   1.000  H
  C35      1.0000 0.17146  0.75931  0.90414  Biso   1.000  C
  C36      1.0000 0.15330  0.77912  0.87006  Biso   1.000  C
  H23      1.0000 0.12360  0.76220  0.85880  Biso   1.000  H
  H24      1.0000 0.27590  0.76920  0.89530  Biso   1.000  H
  O9       1.0000 0.69534  0.88684  0.26312  Biso   1.000  O
  O10      1.0000 0.72248  0.90055  0.35862  Biso   1.000  O
  C37      1.0000 0.72107  0.91134  0.30452  Biso   1.000  C
  C38      1.0000 0.75263  0.95818  0.28634  Biso   1.000  C
  C39      1.0000 0.78004  0.98799  0.33044  Biso   1.000  C
  H25      1.0000 0.77887  0.97883  0.37103  Biso   1.000  H
  C40      1.0000 0.80902  0.03129  0.31401  Biso   1.000  C
  H26      1.0000 0.82797  0.05113  0.34343  Biso   1.000  H
  C41      1.0000 0.81025  0.04547  0.25487  Biso   1.000  C
  C42      1.0000 0.78294  0.01509  0.21097  Biso   1.000  C
  H27      1.0000 0.78417  0.02393  0.17023  Biso   1.000  H
  C43      1.0000 0.75407  0.97197  0.22797  Biso   1.000  C
  H28      1.0000 0.73517  0.95193  0.19863  Biso   1.000  H
  C44      1.0000 0.83813  0.09264  0.23747  Biso   1.000  C
  C45      1.0000 0.81997  0.11245  0.20339  Biso   1.000  C
  H29      1.0000 0.79027  0.09553  0.19213  Biso   1.000  H
  H30      1.0000 0.94257  0.10253  0.22863  Biso   1.000  H
  O11      1.0000 0.36200  0.22018  0.59646  Biso   1.000  O
  O12      1.0000 0.38914  0.23389  0.69196  Biso   1.000  O
  C46      1.0000 0.38773  0.24468  0.63786  Biso   1.000  C
  C47      1.0000 0.41929  0.29152  0.61968  Biso   1.000  C
  C48      1.0000 0.44670  0.32133  0.66378  Biso   1.000  C
  H31      1.0000 0.44553  0.31217  0.70437  Biso   1.000  H
  C49      1.0000 0.47568  0.36463  0.64735  Biso   1.000  C
  H32      1.0000 0.49463  0.38447  0.67677  Biso   1.000  H
  C50      1.0000 0.47691  0.37881  0.58821  Biso   1.000  C
  C51      1.0000 0.44960  0.34843  0.54431  Biso   1.000  C
  H33      1.0000 0.45083  0.35727  0.50357  Biso   1.000  H
  C52      1.0000 0.42073  0.30531  0.56131  Biso   1.000  C
  H34      1.0000 0.40183  0.28527  0.53197  Biso   1.000  H
  C53      1.0000 0.50479  0.42598  0.57081  Biso   1.000  C
  C54      1.0000 0.48663  0.44579  0.53673  Biso   1.000  C
  H35      1.0000 0.45693  0.42887  0.52547  Biso   1.000  H
  H36      1.0000 0.60923  0.43587  0.56197  Biso   1.000  H
  O13      1.0000 0.44649  0.47516  0.92979  Biso   1.000  O
  O14      1.0000 0.43278  0.48859  0.02529  Biso   1.000  O
  C55      1.0000 0.42199  0.47639  0.97119  Biso   1.000  C
  C56      1.0000 0.37515  0.46111  0.95301  Biso   1.000  C
  C57      1.0000 0.34534  0.45871  0.99711  Biso   1.000  C
  H37      1.0000 0.35450  0.46670  0.03770  Biso   1.000  H
  C58      1.0000 0.30204  0.44439  0.98068  Biso   1.000  C
  H38      1.0000 0.28220  0.44350  0.01010  Biso   1.000  H
  C59      1.0000 0.28786  0.43144  0.92154  Biso   1.000  C
  C60      1.0000 0.31824  0.43451  0.87764  Biso   1.000  C
  H39      1.0000 0.30940  0.42690  0.83690  Biso   1.000  H
  C61      1.0000 0.36136  0.44876  0.89464  Biso   1.000  C
  H40      1.0000 0.38140  0.44990  0.86530  Biso   1.000  H
  C62      1.0000 0.24069  0.41215  0.90414  Biso   1.000  C
  C63      1.0000 0.22088  0.37418  0.87006  Biso   1.000  C
  H41      1.0000 0.23780  0.36140  0.85880  Biso   1.000  H
  H42      1.0000 0.23080  0.50670  0.89530  Biso   1.000  H
  O15      1.0000 0.11316  0.80849  0.26312  Biso   1.000  O
  O16      1.0000 0.09945  0.82192  0.35862  Biso   1.000  O
  C64      1.0000 0.08866  0.80972  0.30452  Biso   1.000  C
  C65      1.0000 0.04182  0.79444  0.28634  Biso   1.000  C
  C66      1.0000 0.01201  0.79204  0.33044  Biso   1.000  C
  H43      1.0000 0.02117  0.80003  0.37103  Biso   1.000  H
  C67      1.0000 0.96871  0.77772  0.31401  Biso   1.000  C
  H44      1.0000 0.94887  0.77683  0.34343  Biso   1.000  H
  C68      1.0000 0.95453  0.76477  0.25487  Biso   1.000  C
  C69      1.0000 0.98491  0.76784  0.21097  Biso   1.000  C
  H45      1.0000 0.97607  0.76023  0.17023  Biso   1.000  H
  C70      1.0000 0.02803  0.78209  0.22797  Biso   1.000  C
  H46      1.0000 0.04807  0.78323  0.19863  Biso   1.000  H
  C71      1.0000 0.90736  0.74548  0.23747  Biso   1.000  C
  C72      1.0000 0.88755  0.70751  0.20339  Biso   1.000  C
  H47      1.0000 0.90447  0.69473  0.19213  Biso   1.000  H
  H48      1.0000 0.89747  0.84003  0.22863  Biso   1.000  H
  O17      1.0000 0.77982  0.14183  0.59646  Biso   1.000  O
  O18      1.0000 0.76611  0.15526  0.69196  Biso   1.000  O
  C73      1.0000 0.75532  0.14306  0.63786  Biso   1.000  C
  C74      1.0000 0.70848  0.12778  0.61968  Biso   1.000  C
  C75      1.0000 0.67867  0.12538  0.66378  Biso   1.000  C
  H49      1.0000 0.68783  0.13337  0.70437  Biso   1.000  H
  C76      1.0000 0.63537  0.11106  0.64735  Biso   1.000  C
  H50      1.0000 0.61553  0.11017  0.67677  Biso   1.000  H
  C77      1.0000 0.62119  0.09811  0.58821  Biso   1.000  C
  C78      1.0000 0.65157  0.10118  0.54431  Biso   1.000  C
  H51      1.0000 0.64273  0.09357  0.50357  Biso   1.000  H
  C79      1.0000 0.69469  0.11543  0.56131  Biso   1.000  C
  H52      1.0000 0.71473  0.11657  0.53197  Biso   1.000  H
  C80      1.0000 0.57402  0.07882  0.57081  Biso   1.000  C
  C81      1.0000 0.55421  0.04085  0.53673  Biso   1.000  C
  H53      1.0000 0.57113  0.02807  0.52547  Biso   1.000  H
  H54      1.0000 0.56413  0.17337  0.56197  Biso   1.000  H
  O19      1.0000 0.97133  0.52484  0.07021  Biso   1.000  O
  O20      1.0000 0.94419  0.51141  0.97471  Biso   1.000  O
  C82      1.0000 0.94560  0.52361  0.02881  Biso   1.000  C
  C83      1.0000 0.91404  0.53889  0.04699  Biso   1.000  C
  C84      1.0000 0.88663  0.54129  0.00289  Biso   1.000  C
  H55      1.0000 0.88780  0.53330  0.96230  Biso   1.000  H
  C85      1.0000 0.85765  0.55561  0.01932  Biso   1.000  C
  H56      1.0000 0.83870  0.55650  0.98990  Biso   1.000  H
  C86      1.0000 0.85642  0.56856  0.07846  Biso   1.000  C
  C87      1.0000 0.88373  0.56549  0.12236  Biso   1.000  C
  H57      1.0000 0.88250  0.57310  0.16310  Biso   1.000  H
  C88      1.0000 0.91260  0.55124  0.10536  Biso   1.000  C
  H58      1.0000 0.93150  0.55010  0.13470  Biso   1.000  H
  C89      1.0000 0.82854  0.58785  0.09586  Biso   1.000  C
  C90      1.0000 0.84670  0.62582  0.12994  Biso   1.000  C
  H59      1.0000 0.87640  0.63860  0.14120  Biso   1.000  H
  H60      1.0000 0.72410  0.49330  0.10470  Biso   1.000  H
  O21      1.0000 0.63800  0.85817  0.40354  Biso   1.000  O
  O22      1.0000 0.61086  0.84474  0.30804  Biso   1.000  O
  C91      1.0000 0.61227  0.85694  0.36214  Biso   1.000  C
  C92      1.0000 0.58071  0.87222  0.38032  Biso   1.000  C
  C93      1.0000 0.55330  0.87462  0.33622  Biso   1.000  C
  H61      1.0000 0.55447  0.86663  0.29563  Biso   1.000  H
  C94      1.0000 0.52432  0.88894  0.35265  Biso   1.000  C
  H62      1.0000 0.50537  0.88983  0.32323  Biso   1.000  H
  C95      1.0000 0.52309  0.90189  0.41179  Biso   1.000  C
  C96      1.0000 0.55040  0.89882  0.45569  Biso   1.000  C
  H63      1.0000 0.54917  0.90643  0.49643  Biso   1.000  H
  C97      1.0000 0.57927  0.88457  0.43869  Biso   1.000  C
  H64      1.0000 0.59817  0.88343  0.46803  Biso   1.000  H
  C98      1.0000 0.49521  0.92118  0.42919  Biso   1.000  C
  C99      1.0000 0.51337  0.95915  0.46327  Biso   1.000  C
  H65      1.0000 0.54307  0.97193  0.47453  Biso   1.000  H
  H66      1.0000 0.39077  0.82663  0.43803  Biso   1.000  H
  O23      1.0000 0.30466  0.19151  0.73688  Biso   1.000  O
  O24      1.0000 0.27752  0.17808  0.64138  Biso   1.000  O
  C100     1.0000 0.27893  0.19028  0.69548  Biso   1.000  C
  C101     1.0000 0.24737  0.20556  0.71366  Biso   1.000  C
  C102     1.0000 0.21996  0.20796  0.66956  Biso   1.000  C
  H67      1.0000 0.22113  0.19997  0.62897  Biso   1.000  H
  C103     1.0000 0.19098  0.22228  0.68599  Biso   1.000  C
  H68      1.0000 0.17203  0.22317  0.65657  Biso   1.000  H
  C104     1.0000 0.18975  0.23523  0.74513  Biso   1.000  C
  C105     1.0000 0.21706  0.23216  0.78903  Biso   1.000  C
  H69      1.0000 0.21583  0.23977  0.82977  Biso   1.000  H
  C106     1.0000 0.24593  0.21791  0.77203  Biso   1.000  C
  H70      1.0000 0.26483  0.21677  0.80137  Biso   1.000  H
  C107     1.0000 0.16187  0.25452  0.76253  Biso   1.000  C
  C108     1.0000 0.18003  0.29249  0.79661  Biso   1.000  C
  H71      1.0000 0.20973  0.30527  0.80787  Biso   1.000  H
  H72      1.0000 0.05743  0.15997  0.77137  Biso   1.000  H
  O25      1.0000 0.55351  0.02867  0.07021  Biso   1.000  O
  O26      1.0000 0.56722  0.05581  0.97471  Biso   1.000  O
  C109     1.0000 0.57801  0.05440  0.02881  Biso   1.000  C
  C110     1.0000 0.62485  0.08596  0.04699  Biso   1.000  C
  C111     1.0000 0.65466  0.11337  0.00289  Biso   1.000  C
  H73      1.0000 0.64550  0.11220  0.96230  Biso   1.000  H
  C112     1.0000 0.69796  0.14235  0.01932  Biso   1.000  C
  H74      1.0000 0.71780  0.16130  0.98990  Biso   1.000  H
  C113     1.0000 0.71214  0.14358  0.07846  Biso   1.000  C
  C114     1.0000 0.68176  0.11627  0.12236  Biso   1.000  C
  H75      1.0000 0.69060  0.11750  0.16310  Biso   1.000  H
  C115     1.0000 0.63864  0.08740  0.10536  Biso   1.000  C
  H76      1.0000 0.61860  0.06850  0.13470  Biso   1.000  H
  C116     1.0000 0.75931  0.17146  0.09586  Biso   1.000  C
  C117     1.0000 0.77912  0.15330  0.12994  Biso   1.000  C
  H77      1.0000 0.76220  0.12360  0.14120  Biso   1.000  H
  H78      1.0000 0.76920  0.27590  0.10470  Biso   1.000  H
  O27      1.0000 0.22018  0.36200  0.40354  Biso   1.000  O
  O28      1.0000 0.23389  0.38914  0.30804  Biso   1.000  O
  C118     1.0000 0.24468  0.38773  0.36214  Biso   1.000  C
  C119     1.0000 0.29152  0.41929  0.38032  Biso   1.000  C
  C120     1.0000 0.32133  0.44670  0.33622  Biso   1.000  C
  H79      1.0000 0.31217  0.44553  0.29563  Biso   1.000  H
  C121     1.0000 0.36463  0.47568  0.35265  Biso   1.000  C
  H80      1.0000 0.38447  0.49463  0.32323  Biso   1.000  H
  C122     1.0000 0.37881  0.47691  0.41179  Biso   1.000  C
  C123     1.0000 0.34843  0.44960  0.45569  Biso   1.000  C
  H81      1.0000 0.35727  0.45083  0.49643  Biso   1.000  H
  C124     1.0000 0.30531  0.42073  0.43869  Biso   1.000  C
  H82      1.0000 0.28527  0.40183  0.46803  Biso   1.000  H
  C125     1.0000 0.42598  0.50479  0.42919  Biso   1.000  C
  C126     1.0000 0.44579  0.48663  0.46327  Biso   1.000  C
  H83      1.0000 0.42887  0.45693  0.47453  Biso   1.000  H
  H84      1.0000 0.43587  0.60923  0.43803  Biso   1.000  H
  O29      1.0000 0.88684  0.69534  0.73688  Biso   1.000  O
  O30      1.0000 0.90055  0.72248  0.64138  Biso   1.000  O
  C127     1.0000 0.91134  0.72107  0.69548  Biso   1.000  C
  C128     1.0000 0.95818  0.75263  0.71366  Biso   1.000  C
  C129     1.0000 0.98799  0.78004  0.66956  Biso   1.000  C
  H85      1.0000 0.97883  0.77887  0.62897  Biso   1.000  H
  C130     1.0000 0.03129  0.80902  0.68599  Biso   1.000  C
  H86      1.0000 0.05113  0.82797  0.65657  Biso   1.000  H
  C131     1.0000 0.04547  0.81025  0.74513  Biso   1.000  C
  C132     1.0000 0.01509  0.78294  0.78903  Biso   1.000  C
  H87      1.0000 0.02393  0.78417  0.82977  Biso   1.000  H
  C133     1.0000 0.97197  0.75407  0.77203  Biso   1.000  C
  H88      1.0000 0.95193  0.73517  0.80137  Biso   1.000  H
  C134     1.0000 0.09264  0.83813  0.76253  Biso   1.000  C
  C135     1.0000 0.11245  0.81997  0.79661  Biso   1.000  C
  H89      1.0000 0.09553  0.79027  0.80787  Biso   1.000  H
  H90      1.0000 0.10253  0.94257  0.77137  Biso   1.000  H
  O31      1.0000 0.47516  0.44649  0.07021  Biso   1.000  O
  O32      1.0000 0.48859  0.43278  0.97471  Biso   1.000  O
  C136     1.0000 0.47639  0.42199  0.02881  Biso   1.000  C
  C137     1.0000 0.46111  0.37515  0.04699  Biso   1.000  C
  C138     1.0000 0.45871  0.34534  0.00289  Biso   1.000  C
  H91      1.0000 0.46670  0.35450  0.96230  Biso   1.000  H
  C139     1.0000 0.44439  0.30204  0.01932  Biso   1.000  C
  H92      1.0000 0.44350  0.28220  0.98990  Biso   1.000  H
  C140     1.0000 0.43144  0.28786  0.07846  Biso   1.000  C
  C141     1.0000 0.43451  0.31824  0.12236  Biso   1.000  C
  H93      1.0000 0.42690  0.30940  0.16310  Biso   1.000  H
  C142     1.0000 0.44876  0.36136  0.10536  Biso   1.000  C
  H94      1.0000 0.44990  0.38140  0.13470  Biso   1.000  H
  C143     1.0000 0.41215  0.24069  0.09586  Biso   1.000  C
  C144     1.0000 0.37418  0.22088  0.12994  Biso   1.000  C
  H95      1.0000 0.36140  0.23780  0.14120  Biso   1.000  H
  H96      1.0000 0.50670  0.23080  0.10470  Biso   1.000  H
  O33      1.0000 0.14183  0.77982  0.40354  Biso   1.000  O
  O34      1.0000 0.15526  0.76611  0.30804  Biso   1.000  O
  C145     1.0000 0.14306  0.75532  0.36214  Biso   1.000  C
  C146     1.0000 0.12778  0.70848  0.38032  Biso   1.000  C
  C147     1.0000 0.12538  0.67867  0.33622  Biso   1.000  C
  H97      1.0000 0.13337  0.68783  0.29563  Biso   1.000  H
  C148     1.0000 0.11106  0.63537  0.35265  Biso   1.000  C
  H98      1.0000 0.11017  0.61553  0.32323  Biso   1.000  H
  C149     1.0000 0.09811  0.62119  0.41179  Biso   1.000  C
  C150     1.0000 0.10118  0.65157  0.45569  Biso   1.000  C
  H99      1.0000 0.09357  0.64273  0.49643  Biso   1.000  H
  C151     1.0000 0.11543  0.69469  0.43869  Biso   1.000  C
  H100     1.0000 0.11657  0.71473  0.46803  Biso   1.000  H
  C152     1.0000 0.07882  0.57402  0.42919  Biso   1.000  C
  C153     1.0000 0.04085  0.55421  0.46327  Biso   1.000  C
  H101     1.0000 0.02807  0.57113  0.47453  Biso   1.000  H
  H102     1.0000 0.17337  0.56413  0.43803  Biso   1.000  H
  O35      1.0000 0.80849  0.11316  0.73688  Biso   1.000  O
  O36      1.0000 0.82192  0.09945  0.64138  Biso   1.000  O
  C154     1.0000 0.80972  0.08866  0.69548  Biso   1.000  C
  C155     1.0000 0.79444  0.04182  0.71366  Biso   1.000  C
  C156     1.0000 0.79204  0.01201  0.66956  Biso   1.000  C
  H103     1.0000 0.80003  0.02117  0.62897  Biso   1.000  H
  C157     1.0000 0.77772  0.96871  0.68599  Biso   1.000  C
  H104     1.0000 0.77683  0.94887  0.65657  Biso   1.000  H
  C158     1.0000 0.76477  0.95453  0.74513  Biso   1.000  C
  C159     1.0000 0.76784  0.98491  0.78903  Biso   1.000  C
  H105     1.0000 0.76023  0.97607  0.82977  Biso   1.000  H
  C160     1.0000 0.78209  0.02803  0.77203  Biso   1.000  C
  H106     1.0000 0.78323  0.04807  0.80137  Biso   1.000  H
  C161     1.0000 0.74548  0.90736  0.76253  Biso   1.000  C
  C162     1.0000 0.70751  0.88755  0.79661  Biso   1.000  C
  H107     1.0000 0.69473  0.90447  0.80787  Biso   1.000  H
  H108     1.0000 0.84003  0.89747  0.77137  Biso   1.000  H
  O37      1.0000 0.47516  0.02867  0.07021  Biso   1.000  O
  O38      1.0000 0.48859  0.05581  0.97471  Biso   1.000  O
  C163     1.0000 0.47639  0.05440  0.02881  Biso   1.000  C
  C164     1.0000 0.46111  0.08596  0.04699  Biso   1.000  C
  C165     1.0000 0.45871  0.11337  0.00289  Biso   1.000  C
  H109     1.0000 0.46670  0.11220  0.96230  Biso   1.000  H
  C166     1.0000 0.44439  0.14235  0.01932  Biso   1.000  C
  H110     1.0000 0.44350  0.16130  0.98990  Biso   1.000  H
  C167     1.0000 0.43144  0.14358  0.07846  Biso   1.000  C
  C168     1.0000 0.43451  0.11627  0.12236  Biso   1.000  C
  H111     1.0000 0.42690  0.11750  0.16310  Biso   1.000  H
  C169     1.0000 0.44876  0.08740  0.10536  Biso   1.000  C
  H112     1.0000 0.44990  0.06850  0.13470  Biso   1.000  H
  C170     1.0000 0.41215  0.17146  0.09586  Biso   1.000  C
  C171     1.0000 0.37418  0.15330  0.12994  Biso   1.000  C
  H113     1.0000 0.36140  0.12360  0.14120  Biso   1.000  H
  H114     1.0000 0.50670  0.27590  0.10470  Biso   1.000  H
  O39      1.0000 0.14183  0.36200  0.40354  Biso   1.000  O
  O40      1.0000 0.15526  0.38914  0.30804  Biso   1.000  O
  C172     1.0000 0.14306  0.38773  0.36214  Biso   1.000  C
  C173     1.0000 0.12778  0.41929  0.38032  Biso   1.000  C
  C174     1.0000 0.12538  0.44670  0.33622  Biso   1.000  C
  H115     1.0000 0.13337  0.44553  0.29563  Biso   1.000  H
  C175     1.0000 0.11106  0.47568  0.35265  Biso   1.000  C
  H116     1.0000 0.11017  0.49463  0.32323  Biso   1.000  H
  C176     1.0000 0.09811  0.47691  0.41179  Biso   1.000  C
  C177     1.0000 0.10118  0.44960  0.45569  Biso   1.000  C
  H117     1.0000 0.09357  0.45083  0.49643  Biso   1.000  H
  C178     1.0000 0.11543  0.42073  0.43869  Biso   1.000  C
  H118     1.0000 0.11657  0.40183  0.46803  Biso   1.000  H
  C179     1.0000 0.07882  0.50479  0.42919  Biso   1.000  C
  C180     1.0000 0.04085  0.48663  0.46327  Biso   1.000  C
  H119     1.0000 0.02807  0.45693  0.47453  Biso   1.000  H
  H120     1.0000 0.17337  0.60923  0.43803  Biso   1.000  H
  O41      1.0000 0.80849  0.69534  0.73688  Biso   1.000  O
  O42      1.0000 0.82192  0.72248  0.64138  Biso   1.000  O
  C181     1.0000 0.80972  0.72107  0.69548  Biso   1.000  C
  C182     1.0000 0.79444  0.75263  0.71366  Biso   1.000  C
  C183     1.0000 0.79204  0.78004  0.66956  Biso   1.000  C
  H121     1.0000 0.80003  0.77887  0.62897  Biso   1.000  H
  C184     1.0000 0.77772  0.80902  0.68599  Biso   1.000  C
  H122     1.0000 0.77683  0.82797  0.65657  Biso   1.000  H
  C185     1.0000 0.76477  0.81025  0.74513  Biso   1.000  C
  C186     1.0000 0.76784  0.78294  0.78903  Biso   1.000  C
  H123     1.0000 0.76023  0.78417  0.82977  Biso   1.000  H
  C187     1.0000 0.78209  0.75407  0.77203  Biso   1.000  C
  H124     1.0000 0.78323  0.73517  0.80137  Biso   1.000  H
  C188     1.0000 0.74548  0.83813  0.76253  Biso   1.000  C
  C189     1.0000 0.70751  0.81997  0.79661  Biso   1.000  C
  H125     1.0000 0.69473  0.79027  0.80787  Biso   1.000  H
  H126     1.0000 0.84003  0.94257  0.77137  Biso   1.000  H
  O43      1.0000 0.97133  0.44649  0.07021  Biso   1.000  O
  O44      1.0000 0.94419  0.43278  0.97471  Biso   1.000  O
  C190     1.0000 0.94560  0.42199  0.02881  Biso   1.000  C
  C191     1.0000 0.91404  0.37515  0.04699  Biso   1.000  C
  C192     1.0000 0.88663  0.34534  0.00289  Biso   1.000  C
  H127     1.0000 0.88780  0.35450  0.96230  Biso   1.000  H
  C193     1.0000 0.85765  0.30204  0.01932  Biso   1.000  C
  H128     1.0000 0.83870  0.28220  0.98990  Biso   1.000  H
  C194     1.0000 0.85642  0.28786  0.07846  Biso   1.000  C
  C195     1.0000 0.88373  0.31824  0.12236  Biso   1.000  C
  H129     1.0000 0.88250  0.30940  0.16310  Biso   1.000  H
  C196     1.0000 0.91260  0.36136  0.10536  Biso   1.000  C
  H130     1.0000 0.93150  0.38140  0.13470  Biso   1.000  H
  C197     1.0000 0.82854  0.24069  0.09586  Biso   1.000  C
  C198     1.0000 0.84670  0.22088  0.12994  Biso   1.000  C
  H131     1.0000 0.87640  0.23780  0.14120  Biso   1.000  H
  H132     1.0000 0.72410  0.23080  0.10470  Biso   1.000  H
  O45      1.0000 0.63800  0.77982  0.40354  Biso   1.000  O
  O46      1.0000 0.61086  0.76611  0.30804  Biso   1.000  O
  C199     1.0000 0.61227  0.75532  0.36214  Biso   1.000  C
  C200     1.0000 0.58071  0.70848  0.38032  Biso   1.000  C
  C201     1.0000 0.55330  0.67867  0.33622  Biso   1.000  C
  H133     1.0000 0.55447  0.68783  0.29563  Biso   1.000  H
  C202     1.0000 0.52432  0.63537  0.35265  Biso   1.000  C
  H134     1.0000 0.50537  0.61553  0.32323  Biso   1.000  H
  C203     1.0000 0.52309  0.62119  0.41179  Biso   1.000  C
  C204     1.0000 0.55040  0.65157  0.45569  Biso   1.000  C
  H135     1.0000 0.54917  0.64273  0.49643  Biso   1.000  H
  C205     1.0000 0.57927  0.69469  0.43869  Biso   1.000  C
  H136     1.0000 0.59817  0.71473  0.46803  Biso   1.000  H
  C206     1.0000 0.49521  0.57402  0.42919  Biso   1.000  C
  C207     1.0000 0.51337  0.55421  0.46327  Biso   1.000  C
  H137     1.0000 0.54307  0.57113  0.47453  Biso   1.000  H
  H138     1.0000 0.39077  0.56413  0.43803  Biso   1.000  H
  O47      1.0000 0.30466  0.11316  0.73688  Biso   1.000  O
  O48      1.0000 0.27752  0.09945  0.64138  Biso   1.000  O
  C208     1.0000 0.27893  0.08866  0.69548  Biso   1.000  C
  C209     1.0000 0.24737  0.04182  0.71366  Biso   1.000  C
  C210     1.0000 0.21996  0.01201  0.66956  Biso   1.000  C
  H139     1.0000 0.22113  0.02117  0.62897  Biso   1.000  H
  C211     1.0000 0.19098  0.96871  0.68599  Biso   1.000  C
  H140     1.0000 0.17203  0.94887  0.65657  Biso   1.000  H
  C212     1.0000 0.18975  0.95453  0.74513  Biso   1.000  C
  C213     1.0000 0.21706  0.98491  0.78903  Biso   1.000  C
  H141     1.0000 0.21583  0.97607  0.82977  Biso   1.000  H
  C214     1.0000 0.24593  0.02803  0.77203  Biso   1.000  C
  H142     1.0000 0.26483  0.04807  0.80137  Biso   1.000  H
  C215     1.0000 0.16187  0.90736  0.76253  Biso   1.000  C
  C216     1.0000 0.18003  0.88755  0.79661  Biso   1.000  C
  H143     1.0000 0.20973  0.90447  0.80787  Biso   1.000  H
  H144     1.0000 0.05743  0.89747  0.77137  Biso   1.000  H
  O49      1.0000 0.55351  0.52484  0.07021  Biso   1.000  O
  O50      1.0000 0.56722  0.51141  0.97471  Biso   1.000  O
  C217     1.0000 0.57801  0.52361  0.02881  Biso   1.000  C
  C218     1.0000 0.62485  0.53889  0.04699  Biso   1.000  C
  C219     1.0000 0.65466  0.54129  0.00289  Biso   1.000  C
  H145     1.0000 0.64550  0.53330  0.96230  Biso   1.000  H
  C220     1.0000 0.69796  0.55561  0.01932  Biso   1.000  C
  H146     1.0000 0.71780  0.55650  0.98990  Biso   1.000  H
  C221     1.0000 0.71214  0.56856  0.07846  Biso   1.000  C
  C222     1.0000 0.68176  0.56549  0.12236  Biso   1.000  C
  H147     1.0000 0.69060  0.57310  0.16310  Biso   1.000  H
  C223     1.0000 0.63864  0.55124  0.10536  Biso   1.000  C
  H148     1.0000 0.61860  0.55010  0.13470  Biso   1.000  H
  C224     1.0000 0.75931  0.58785  0.09586  Biso   1.000  C
  C225     1.0000 0.77912  0.62582  0.12994  Biso   1.000  C
  H149     1.0000 0.76220  0.63860  0.14120  Biso   1.000  H
  H150     1.0000 0.76920  0.49330  0.10470  Biso   1.000  H
  O51      1.0000 0.22018  0.85817  0.40354  Biso   1.000  O
  O52      1.0000 0.23389  0.84474  0.30804  Biso   1.000  O
  C226     1.0000 0.24468  0.85694  0.36214  Biso   1.000  C
  C227     1.0000 0.29152  0.87222  0.38032  Biso   1.000  C
  C228     1.0000 0.32133  0.87462  0.33622  Biso   1.000  C
  H151     1.0000 0.31217  0.86663  0.29563  Biso   1.000  H
  C229     1.0000 0.36463  0.88894  0.35265  Biso   1.000  C
  H152     1.0000 0.38447  0.88983  0.32323  Biso   1.000  H
  C230     1.0000 0.37881  0.90189  0.41179  Biso   1.000  C
  C231     1.0000 0.34843  0.89882  0.45569  Biso   1.000  C
  H153     1.0000 0.35727  0.90643  0.49643  Biso   1.000  H
  C232     1.0000 0.30531  0.88457  0.43869  Biso   1.000  C
  H154     1.0000 0.28527  0.88343  0.46803  Biso   1.000  H
  C233     1.0000 0.42598  0.92118  0.42919  Biso   1.000  C
  C234     1.0000 0.44579  0.95915  0.46327  Biso   1.000  C
  H155     1.0000 0.42887  0.97193  0.47453  Biso   1.000  H
  H156     1.0000 0.43587  0.82663  0.43803  Biso   1.000  H
  O53      1.0000 0.88684  0.19151  0.73688  Biso   1.000  O
  O54      1.0000 0.90055  0.17808  0.64138  Biso   1.000  O
  C235     1.0000 0.91134  0.19028  0.69548  Biso   1.000  C
  C236     1.0000 0.95818  0.20556  0.71366  Biso   1.000  C
  C237     1.0000 0.98799  0.20796  0.66956  Biso   1.000  C
  H157     1.0000 0.97883  0.19997  0.62897  Biso   1.000  H
  C238     1.0000 0.03129  0.22228  0.68599  Biso   1.000  C
  H158     1.0000 0.05113  0.22317  0.65657  Biso   1.000  H
  C239     1.0000 0.04547  0.23523  0.74513  Biso   1.000  C
  C240     1.0000 0.01509  0.23216  0.78903  Biso   1.000  C
  H159     1.0000 0.02393  0.23977  0.82977  Biso   1.000  H
  C241     1.0000 0.97197  0.21791  0.77203  Biso   1.000  C
  H160     1.0000 0.95193  0.21677  0.80137  Biso   1.000  H
  C242     1.0000 0.09264  0.25452  0.76253  Biso   1.000  C
  C243     1.0000 0.11245  0.29249  0.79661  Biso   1.000  C
  H161     1.0000 0.09553  0.30527  0.80787  Biso   1.000  H
  H162     1.0000 0.10253  0.15997  0.77137  Biso   1.000  H
  O55      1.0000 0.02867  0.47516  0.92979  Biso   1.000  O
  O56      1.0000 0.05581  0.48859  0.02529  Biso   1.000  O
  C244     1.0000 0.05440  0.47639  0.97119  Biso   1.000  C
  C245     1.0000 0.08596  0.46111  0.95301  Biso   1.000  C
  C246     1.0000 0.11337  0.45871  0.99711  Biso   1.000  C
  H163     1.0000 0.11220  0.46670  0.03770  Biso   1.000  H
  C247     1.0000 0.14235  0.44439  0.98068  Biso   1.000  C
  H164     1.0000 0.16130  0.44350  0.01010  Biso   1.000  H
  C248     1.0000 0.14358  0.43144  0.92154  Biso   1.000  C
  C249     1.0000 0.11627  0.43451  0.87764  Biso   1.000  C
  H165     1.0000 0.11750  0.42690  0.83690  Biso   1.000  H
  C250     1.0000 0.08740  0.44876  0.89464  Biso   1.000  C
  H166     1.0000 0.06850  0.44990  0.86530  Biso   1.000  H
  C251     1.0000 0.17146  0.41215  0.90414  Biso   1.000  C
  C252     1.0000 0.15330  0.37418  0.87006  Biso   1.000  C
  H167     1.0000 0.12360  0.36140  0.85880  Biso   1.000  H
  H168     1.0000 0.27590  0.50670  0.89530  Biso   1.000  H
  O57      1.0000 0.69534  0.80849  0.26312  Biso   1.000  O
  O58      1.0000 0.72248  0.82192  0.35862  Biso   1.000  O
  C253     1.0000 0.72107  0.80972  0.30452  Biso   1.000  C
  C254     1.0000 0.75263  0.79444  0.28634  Biso   1.000  C
  C255     1.0000 0.78004  0.79204  0.33044  Biso   1.000  C
  H169     1.0000 0.77887  0.80003  0.37103  Biso   1.000  H
  C256     1.0000 0.80902  0.77772  0.31401  Biso   1.000  C
  H170     1.0000 0.82797  0.77683  0.34343  Biso   1.000  H
  C257     1.0000 0.81025  0.76477  0.25487  Biso   1.000  C
  C258     1.0000 0.78294  0.76784  0.21097  Biso   1.000  C
  H171     1.0000 0.78417  0.76023  0.17023  Biso   1.000  H
  C259     1.0000 0.75407  0.78209  0.22797  Biso   1.000  C
  H172     1.0000 0.73517  0.78323  0.19863  Biso   1.000  H
  C260     1.0000 0.83813  0.74548  0.23747  Biso   1.000  C
  C261     1.0000 0.81997  0.70751  0.20339  Biso   1.000  C
  H173     1.0000 0.79027  0.69473  0.19213  Biso   1.000  H
  H174     1.0000 0.94257  0.84003  0.22863  Biso   1.000  H
  O59      1.0000 0.36200  0.14183  0.59646  Biso   1.000  O
  O60      1.0000 0.38914  0.15526  0.69196  Biso   1.000  O
  C262     1.0000 0.38773  0.14306  0.63786  Biso   1.000  C
  C263     1.0000 0.41929  0.12778  0.61968  Biso   1.000  C
  C264     1.0000 0.44670  0.12538  0.66378  Biso   1.000  C
  H175     1.0000 0.44553  0.13337  0.70437  Biso   1.000  H
  C265     1.0000 0.47568  0.11106  0.64735  Biso   1.000  C
  H176     1.0000 0.49463  0.11017  0.67677  Biso   1.000  H
  C266     1.0000 0.47691  0.09811  0.58821  Biso   1.000  C
  C267     1.0000 0.44960  0.10118  0.54431  Biso   1.000  C
  H177     1.0000 0.45083  0.09357  0.50357  Biso   1.000  H
  C268     1.0000 0.42073  0.11543  0.56131  Biso   1.000  C
  H178     1.0000 0.40183  0.11657  0.53197  Biso   1.000  H
  C269     1.0000 0.50479  0.07882  0.57081  Biso   1.000  C
  C270     1.0000 0.48663  0.04085  0.53673  Biso   1.000  C
  H179     1.0000 0.45693  0.02807  0.52547  Biso   1.000  H
  H180     1.0000 0.60923  0.17337  0.56197  Biso   1.000  H
  O61      1.0000 0.44649  0.97133  0.92979  Biso   1.000  O
  O62      1.0000 0.43278  0.94419  0.02529  Biso   1.000  O
  C271     1.0000 0.42199  0.94560  0.97119  Biso   1.000  C
  C272     1.0000 0.37515  0.91404  0.95301  Biso   1.000  C
  C273     1.0000 0.34534  0.88663  0.99711  Biso   1.000  C
  H181     1.0000 0.35450  0.88780  0.03770  Biso   1.000  H
  C274     1.0000 0.30204  0.85765  0.98068  Biso   1.000  C
  H182     1.0000 0.28220  0.83870  0.01010  Biso   1.000  H
  C275     1.0000 0.28786  0.85642  0.92154  Biso   1.000  C
  C276     1.0000 0.31824  0.88373  0.87764  Biso   1.000  C
  H183     1.0000 0.30940  0.88250  0.83690  Biso   1.000  H
  C277     1.0000 0.36136  0.91260  0.89464  Biso   1.000  C
  H184     1.0000 0.38140  0.93150  0.86530  Biso   1.000  H
  C278     1.0000 0.24069  0.82854  0.90414  Biso   1.000  C
  C279     1.0000 0.22088  0.84670  0.87006  Biso   1.000  C
  H185     1.0000 0.23780  0.87640  0.85880  Biso   1.000  H
  H186     1.0000 0.23080  0.72410  0.89530  Biso   1.000  H
  O63      1.0000 0.11316  0.30466  0.26312  Biso   1.000  O
  O64      1.0000 0.09945  0.27752  0.35862  Biso   1.000  O
  C280     1.0000 0.08866  0.27893  0.30452  Biso   1.000  C
  C281     1.0000 0.04182  0.24737  0.28634  Biso   1.000  C
  C282     1.0000 0.01201  0.21996  0.33044  Biso   1.000  C
  H187     1.0000 0.02117  0.22113  0.37103  Biso   1.000  H
  C283     1.0000 0.96871  0.19098  0.31401  Biso   1.000  C
  H188     1.0000 0.94887  0.17203  0.34343  Biso   1.000  H
  C284     1.0000 0.95453  0.18975  0.25487  Biso   1.000  C
  C285     1.0000 0.98491  0.21706  0.21097  Biso   1.000  C
  H189     1.0000 0.97607  0.21583  0.17023  Biso   1.000  H
  C286     1.0000 0.02803  0.24593  0.22797  Biso   1.000  C
  H190     1.0000 0.04807  0.26483  0.19863  Biso   1.000  H
  C287     1.0000 0.90736  0.16187  0.23747  Biso   1.000  C
  C288     1.0000 0.88755  0.18003  0.20339  Biso   1.000  C
  H191     1.0000 0.90447  0.20973  0.19213  Biso   1.000  H
  H192     1.0000 0.89747  0.05743  0.22863  Biso   1.000  H
  O65      1.0000 0.77982  0.63800  0.59646  Biso   1.000  O
  O66      1.0000 0.76611  0.61086  0.69196  Biso   1.000  O
  C289     1.0000 0.75532  0.61227  0.63786  Biso   1.000  C
  C290     1.0000 0.70848  0.58071  0.61968  Biso   1.000  C
  C291     1.0000 0.67867  0.55330  0.66378  Biso   1.000  C
  H193     1.0000 0.68783  0.55447  0.70437  Biso   1.000  H
  C292     1.0000 0.63537  0.52432  0.64735  Biso   1.000  C
  H194     1.0000 0.61553  0.50537  0.67677  Biso   1.000  H
  C293     1.0000 0.62119  0.52309  0.58821  Biso   1.000  C
  C294     1.0000 0.65157  0.55040  0.54431  Biso   1.000  C
  H195     1.0000 0.64273  0.54917  0.50357  Biso   1.000  H
  C295     1.0000 0.69469  0.57927  0.56131  Biso   1.000  C
  H196     1.0000 0.71473  0.59817  0.53197  Biso   1.000  H
  C296     1.0000 0.57402  0.49521  0.57081  Biso   1.000  C
  C297     1.0000 0.55421  0.51337  0.53673  Biso   1.000  C
  H197     1.0000 0.57113  0.54307  0.52547  Biso   1.000  H
  H198     1.0000 0.56413  0.39077  0.56197  Biso   1.000  H
  O67      1.0000 0.52484  0.55351  0.92979  Biso   1.000  O
  O68      1.0000 0.51141  0.56722  0.02529  Biso   1.000  O
  C298     1.0000 0.52361  0.57801  0.97119  Biso   1.000  C
  C299     1.0000 0.53889  0.62485  0.95301  Biso   1.000  C
  C300     1.0000 0.54129  0.65466  0.99711  Biso   1.000  C
  H199     1.0000 0.53330  0.64550  0.03770  Biso   1.000  H
  C301     1.0000 0.55561  0.69796  0.98068  Biso   1.000  C
  H200     1.0000 0.55650  0.71780  0.01010  Biso   1.000  H
  C302     1.0000 0.56856  0.71214  0.92154  Biso   1.000  C
  C303     1.0000 0.56549  0.68176  0.87764  Biso   1.000  C
  H201     1.0000 0.57310  0.69060  0.83690  Biso   1.000  H
  C304     1.0000 0.55124  0.63864  0.89464  Biso   1.000  C
  H202     1.0000 0.55010  0.61860  0.86530  Biso   1.000  H
  C305     1.0000 0.58785  0.75931  0.90414  Biso   1.000  C
  C306     1.0000 0.62582  0.77912  0.87006  Biso   1.000  C
  H203     1.0000 0.63860  0.76220  0.85880  Biso   1.000  H
  H204     1.0000 0.49330  0.76920  0.89530  Biso   1.000  H
  O69      1.0000 0.19151  0.88684  0.26312  Biso   1.000  O
  O70      1.0000 0.17808  0.90055  0.35862  Biso   1.000  O
  C307     1.0000 0.19028  0.91134  0.30452  Biso   1.000  C
  C308     1.0000 0.20556  0.95818  0.28634  Biso   1.000  C
  C309     1.0000 0.20796  0.98799  0.33044  Biso   1.000  C
  H205     1.0000 0.19997  0.97883  0.37103  Biso   1.000  H
  C310     1.0000 0.22228  0.03129  0.31401  Biso   1.000  C
  H206     1.0000 0.22317  0.05113  0.34343  Biso   1.000  H
  C311     1.0000 0.23523  0.04547  0.25487  Biso   1.000  C
  C312     1.0000 0.23216  0.01509  0.21097  Biso   1.000  C
  H207     1.0000 0.23977  0.02393  0.17023  Biso   1.000  H
  C313     1.0000 0.21791  0.97197  0.22797  Biso   1.000  C
  H208     1.0000 0.21677  0.95193  0.19863  Biso   1.000  H
  C314     1.0000 0.25452  0.09264  0.23747  Biso   1.000  C
  C315     1.0000 0.29249  0.11245  0.20339  Biso   1.000  C
  H209     1.0000 0.30527  0.09553  0.19213  Biso   1.000  H
  H210     1.0000 0.15997  0.10253  0.22863  Biso   1.000  H
  O71      1.0000 0.85817  0.22018  0.59646  Biso   1.000  O
  O72      1.0000 0.84474  0.23389  0.69196  Biso   1.000  O
  C316     1.0000 0.85694  0.24468  0.63786  Biso   1.000  C
  C317     1.0000 0.87222  0.29152  0.61968  Biso   1.000  C
  C318     1.0000 0.87462  0.32133  0.66378  Biso   1.000  C
  H211     1.0000 0.86663  0.31217  0.70437  Biso   1.000  H
  C319     1.0000 0.88894  0.36463  0.64735  Biso   1.000  C
  H212     1.0000 0.88983  0.38447  0.67677  Biso   1.000  H
  C320     1.0000 0.90189  0.37881  0.58821  Biso   1.000  C
  C321     1.0000 0.89882  0.34843  0.54431  Biso   1.000  C
  H213     1.0000 0.90643  0.35727  0.50357  Biso   1.000  H
  C322     1.0000 0.88457  0.30531  0.56131  Biso   1.000  C
  H214     1.0000 0.88343  0.28527  0.53197  Biso   1.000  H
  C323     1.0000 0.92118  0.42598  0.57081  Biso   1.000  C
  C324     1.0000 0.95915  0.44579  0.53673  Biso   1.000  C
  H215     1.0000 0.97193  0.42887  0.52547  Biso   1.000  H
  H216     1.0000 0.82663  0.43587  0.56197  Biso   1.000  H
  Cu1      1.0000 0.50792  0.01584  0.94383  Biso   1.000  Cu
  Cu2      1.0000 0.17459  0.34917  0.27716  Biso   1.000  Cu
  Cu3      1.0000 0.84125  0.68251  0.61050  Biso   1.000  Cu
  Cu4      1.0000 0.98416  0.49208  0.94383  Biso   1.000  Cu
  Cu5      1.0000 0.65083  0.82541  0.27716  Biso   1.000  Cu
  Cu6      1.0000 0.31749  0.15875  0.61050  Biso   1.000  Cu
  Cu7      1.0000 0.50792  0.49208  0.94383  Biso   1.000  Cu
  Cu8      1.0000 0.17459  0.82541  0.27716  Biso   1.000  Cu
  Cu9      1.0000 0.84125  0.15875  0.61050  Biso   1.000  Cu
  Cu10     1.0000 0.01584  0.50792  0.05617  Biso   1.000  Cu
  Cu11     1.0000 0.68251  0.84125  0.38950  Biso   1.000  Cu
  Cu12     1.0000 0.34917  0.17459  0.72284  Biso   1.000  Cu
  Cu13     1.0000 0.49208  0.98416  0.05617  Biso   1.000  Cu
  Cu14     1.0000 0.15875  0.31749  0.38950  Biso   1.000  Cu
  Cu15     1.0000 0.82541  0.65083  0.72284  Biso   1.000  Cu
  Cu16     1.0000 0.49208  0.50792  0.05617  Biso   1.000  Cu
  Cu17     1.0000 0.15875  0.84125  0.38950  Biso   1.000  Cu
  Cu18     1.0000 0.82541  0.17459  0.72284  Biso   1.000  Cu
  O73      1.0000 0.53130  0.76565  0.95664  Biso   1.000  O
  C325     1.0000 0.64639  0.82319  0.85128  Biso   1.000  C
  C326     1.0000 0.56849  0.78424  0.92144  Biso   1.000  C
  C327     1.0000 0.49357  0.74678  0.92080  Biso   1.000  C
  H217     1.0000 0.46780  0.73390  0.94690  Biso   1.000  H
  O74      1.0000 0.19797  0.09898  0.28997  Biso   1.000  O
  C328     1.0000 0.31306  0.15653  0.18461  Biso   1.000  C
  C329     1.0000 0.23516  0.11758  0.25477  Biso   1.000  C
  C330     1.0000 0.16024  0.08012  0.25413  Biso   1.000  C
  H218     1.0000 0.13447  0.06723  0.28023  Biso   1.000  H
  O75      1.0000 0.86463  0.43232  0.62331  Biso   1.000  O
  C331     1.0000 0.97972  0.48986  0.51795  Biso   1.000  C
  C332     1.0000 0.90182  0.45091  0.58811  Biso   1.000  C
  C333     1.0000 0.82690  0.41345  0.58747  Biso   1.000  C
  H219     1.0000 0.80113  0.40057  0.61357  Biso   1.000  H
  O76      1.0000 0.23435  0.76565  0.95664  Biso   1.000  O
  C334     1.0000 0.17681  0.82319  0.85128  Biso   1.000  C
  C335     1.0000 0.21576  0.78424  0.92144  Biso   1.000  C
  C336     1.0000 0.25322  0.74678  0.92080  Biso   1.000  C
  H220     1.0000 0.26610  0.73390  0.94690  Biso   1.000  H
  O77      1.0000 0.90102  0.09898  0.28997  Biso   1.000  O
  C337     1.0000 0.84347  0.15653  0.18461  Biso   1.000  C
  C338     1.0000 0.88242  0.11758  0.25477  Biso   1.000  C
  C339     1.0000 0.91988  0.08012  0.25413  Biso   1.000  C
  H221     1.0000 0.93277  0.06723  0.28023  Biso   1.000  H
  O78      1.0000 0.56768  0.43232  0.62331  Biso   1.000  O
  C340     1.0000 0.51014  0.48986  0.51795  Biso   1.000  C
  C341     1.0000 0.54909  0.45091  0.58811  Biso   1.000  C
  C342     1.0000 0.58655  0.41345  0.58747  Biso   1.000  C
  H222     1.0000 0.59943  0.40057  0.61357  Biso   1.000  H
  O79      1.0000 0.23435  0.46870  0.95664  Biso   1.000  O
  C343     1.0000 0.17681  0.35361  0.85128  Biso   1.000  C
  C344     1.0000 0.21576  0.43151  0.92144  Biso   1.000  C
  C345     1.0000 0.25322  0.50643  0.92080  Biso   1.000  C
  H223     1.0000 0.26610  0.53220  0.94690  Biso   1.000  H
  O80      1.0000 0.90102  0.80203  0.28997  Biso   1.000  O
  C346     1.0000 0.84347  0.68694  0.18461  Biso   1.000  C
  C347     1.0000 0.88242  0.76484  0.25477  Biso   1.000  C
  C348     1.0000 0.91988  0.83976  0.25413  Biso   1.000  C
  H224     1.0000 0.93277  0.86553  0.28023  Biso   1.000  H
  O81      1.0000 0.56768  0.13537  0.62331  Biso   1.000  O
  C349     1.0000 0.51014  0.02028  0.51795  Biso   1.000  C
  C350     1.0000 0.54909  0.09818  0.58811  Biso   1.000  C
  C351     1.0000 0.58655  0.17310  0.58747  Biso   1.000  C
  H225     1.0000 0.59943  0.19887  0.61357  Biso   1.000  H
  O82      1.0000 0.76565  0.53130  0.04336  Biso   1.000  O
  C352     1.0000 0.82319  0.64639  0.14872  Biso   1.000  C
  C353     1.0000 0.78424  0.56849  0.07856  Biso   1.000  C
  C354     1.0000 0.74678  0.49357  0.07920  Biso   1.000  C
  H226     1.0000 0.73390  0.46780  0.05310  Biso   1.000  H
  O83      1.0000 0.43232  0.86463  0.37669  Biso   1.000  O
  C355     1.0000 0.48986  0.97972  0.48205  Biso   1.000  C
  C356     1.0000 0.45091  0.90182  0.41189  Biso   1.000  C
  C357     1.0000 0.41345  0.82690  0.41253  Biso   1.000  C
  H227     1.0000 0.40057  0.80113  0.38643  Biso   1.000  H
  O84      1.0000 0.09898  0.19797  0.71003  Biso   1.000  O
  C358     1.0000 0.15653  0.31306  0.81539  Biso   1.000  C
  C359     1.0000 0.11758  0.23516  0.74523  Biso   1.000  C
  C360     1.0000 0.08012  0.16024  0.74587  Biso   1.000  C
  H228     1.0000 0.06723  0.13447  0.71977  Biso   1.000  H
  O85      1.0000 0.76565  0.23435  0.04336  Biso   1.000  O
  C361     1.0000 0.82319  0.17681  0.14872  Biso   1.000  C
  C362     1.0000 0.78424  0.21576  0.07856  Biso   1.000  C
  C363     1.0000 0.74678  0.25322  0.07920  Biso   1.000  C
  H229     1.0000 0.73390  0.26610  0.05310  Biso   1.000  H
  O86      1.0000 0.43232  0.56768  0.37669  Biso   1.000  O
  C364     1.0000 0.48986  0.51014  0.48205  Biso   1.000  C
  C365     1.0000 0.45091  0.54909  0.41189  Biso   1.000  C
  C366     1.0000 0.41345  0.58655  0.41253  Biso   1.000  C
  H230     1.0000 0.40057  0.59943  0.38643  Biso   1.000  H
  O87      1.0000 0.09898  0.90102  0.71003  Biso   1.000  O
  C367     1.0000 0.15653  0.84347  0.81539  Biso   1.000  C
  C368     1.0000 0.11758  0.88242  0.74523  Biso   1.000  C
  C369     1.0000 0.08012  0.91988  0.74587  Biso   1.000  C
  H231     1.0000 0.06723  0.93277  0.71977  Biso   1.000  H
  O88      1.0000 0.46870  0.23435  0.04336  Biso   1.000  O
  C370     1.0000 0.35361  0.17681  0.14872  Biso   1.000  C
  C371     1.0000 0.43151  0.21576  0.07856  Biso   1.000  C
  C372     1.0000 0.50643  0.25322  0.07920  Biso   1.000  C
  H232     1.0000 0.53220  0.26610  0.05310  Biso   1.000  H
  O89      1.0000 0.13537  0.56768  0.37669  Biso   1.000  O
  C373     1.0000 0.02028  0.51014  0.48205  Biso   1.000  C
  C374     1.0000 0.09818  0.54909  0.41189  Biso   1.000  C
  C375     1.0000 0.17310  0.58655  0.41253  Biso   1.000  C
  H233     1.0000 0.19887  0.59943  0.38643  Biso   1.000  H
  O90      1.0000 0.80203  0.90102  0.71003  Biso   1.000  O
  C376     1.0000 0.68694  0.84347  0.81539  Biso   1.000  C
  C377     1.0000 0.76484  0.88242  0.74523  Biso   1.000  C
  C378     1.0000 0.83976  0.91988  0.74587  Biso   1.000  C
  H234     1.0000 0.86553  0.93277  0.71977  Biso   1.000  H
