data_image0
_cell_length_a       35.2388
_cell_length_b       35.2388
_cell_length_c       21.1503
_cell_angle_alpha    90
_cell_angle_beta     90
_cell_angle_gamma    120

_symmetry_space_group_name_H-M    "P 1"
_symmetry_int_tables_number       1

loop_
  _symmetry_equiv_pos_as_xyz
  'x, y, z'

loop_
  _atom_site_label
  _atom_site_occupancy
  _atom_site_fract_x
  _atom_site_fract_y
  _atom_site_fract_z
  _atom_site_thermal_displace_type
  _atom_site_B_iso_or_equiv
  _atom_site_type_symbol
  O1       1.0000 0.30403  0.19089  0.23982  Biso   1.000  O
  O2       1.0000 0.27808  0.17836  0.13937  Biso   1.000  O
  C1       1.0000 0.27891  0.18984  0.19559  Biso   1.000  C
  C2       1.0000 0.24712  0.20510  0.21448  Biso   1.000  C
  C3       1.0000 0.21893  0.20621  0.16810  Biso   1.000  C
  H1       1.0000 0.21960  0.19720  0.12600  Biso   1.000  H
  C4       1.0000 0.18998  0.22083  0.18500  Biso   1.000  C
  H2       1.0000 0.17090  0.22160  0.15390  Biso   1.000  H
  C5       1.0000 0.18871  0.23407  0.24550  Biso   1.000  C
  C6       1.0000 0.21669  0.23187  0.29180  Biso   1.000  C
  H3       1.0000 0.21580  0.24010  0.33430  Biso   1.000  H
  C7       1.0000 0.24557  0.21748  0.27448  Biso   1.000  C
  H4       1.0000 0.26450  0.21630  0.30540  Biso   1.000  H
  C8       1.0000 0.16108  0.25365  0.26300  Biso   1.000  C
  C9       1.0000 0.17962  0.29193  0.29730  Biso   1.000  C
  H5       1.0000 0.20960  0.30490  0.30880  Biso   1.000  H
  H6       1.0000 0.05590  0.15720  0.27620  Biso   1.000  H
  O3       1.0000 0.97070  0.52422  0.57315  Biso   1.000  O
  O4       1.0000 0.94475  0.51169  0.47270  Biso   1.000  O
  C10      1.0000 0.94558  0.52317  0.52892  Biso   1.000  C
  C11      1.0000 0.91379  0.53843  0.54781  Biso   1.000  C
  C12      1.0000 0.88560  0.53954  0.50143  Biso   1.000  C
  H7       1.0000 0.88627  0.53053  0.45933  Biso   1.000  H
  C13      1.0000 0.85665  0.55416  0.51833  Biso   1.000  C
  H8       1.0000 0.83757  0.55493  0.48723  Biso   1.000  H
  C14      1.0000 0.85538  0.56740  0.57883  Biso   1.000  C
  C15      1.0000 0.88336  0.56520  0.62513  Biso   1.000  C
  H9       1.0000 0.88247  0.57343  0.66763  Biso   1.000  H
  C16      1.0000 0.91224  0.55081  0.60781  Biso   1.000  C
  H10      1.0000 0.93117  0.54963  0.63873  Biso   1.000  H
  C17      1.0000 0.82775  0.58698  0.59633  Biso   1.000  C
  C18      1.0000 0.84629  0.62526  0.63063  Biso   1.000  C
  H11      1.0000 0.87627  0.63823  0.64213  Biso   1.000  H
  H12      1.0000 0.72257  0.49053  0.60953  Biso   1.000  H
  O5       1.0000 0.63736  0.85756  0.90649  Biso   1.000  O
  O6       1.0000 0.61141  0.84503  0.80604  Biso   1.000  O
  C19      1.0000 0.61224  0.85651  0.86226  Biso   1.000  C
  C20      1.0000 0.58045  0.87177  0.88115  Biso   1.000  C
  C21      1.0000 0.55226  0.87288  0.83477  Biso   1.000  C
  H13      1.0000 0.55293  0.86387  0.79267  Biso   1.000  H
  C22      1.0000 0.52331  0.88750  0.85167  Biso   1.000  C
  H14      1.0000 0.50423  0.88827  0.82057  Biso   1.000  H
  C23      1.0000 0.52204  0.90074  0.91217  Biso   1.000  C
  C24      1.0000 0.55002  0.89854  0.95847  Biso   1.000  C
  H15      1.0000 0.54913  0.90677  0.00097  Biso   1.000  H
  C25      1.0000 0.57890  0.88415  0.94115  Biso   1.000  C
  H16      1.0000 0.59783  0.88297  0.97207  Biso   1.000  H
  C26      1.0000 0.49441  0.92032  0.92967  Biso   1.000  C
  C27      1.0000 0.51295  0.95860  0.96397  Biso   1.000  C
  H17      1.0000 0.54293  0.97157  0.97547  Biso   1.000  H
  H18      1.0000 0.38923  0.82387  0.94287  Biso   1.000  H
  O7       1.0000 0.80911  0.11314  0.23982  Biso   1.000  O
  O8       1.0000 0.82164  0.09972  0.13937  Biso   1.000  O
  C28      1.0000 0.81016  0.08907  0.19559  Biso   1.000  C
  C29      1.0000 0.79490  0.04202  0.21448  Biso   1.000  C
  C30      1.0000 0.79379  0.01272  0.16810  Biso   1.000  C
  H19      1.0000 0.80280  0.02240  0.12600  Biso   1.000  H
  C31      1.0000 0.77917  0.96915  0.18500  Biso   1.000  C
  H20      1.0000 0.77840  0.94930  0.15390  Biso   1.000  H
  C32      1.0000 0.76593  0.95464  0.24550  Biso   1.000  C
  C33      1.0000 0.76813  0.98482  0.29180  Biso   1.000  C
  H21      1.0000 0.75990  0.97570  0.33430  Biso   1.000  H
  C34      1.0000 0.78252  0.02809  0.27448  Biso   1.000  C
  H22      1.0000 0.78370  0.04820  0.30540  Biso   1.000  H
  C35      1.0000 0.74635  0.90743  0.26300  Biso   1.000  C
  C36      1.0000 0.70807  0.88769  0.29730  Biso   1.000  C
  H23      1.0000 0.69510  0.90470  0.30880  Biso   1.000  H
  H24      1.0000 0.84280  0.89870  0.27620  Biso   1.000  H
  O9       1.0000 0.47578  0.44647  0.57315  Biso   1.000  O
  O10      1.0000 0.48831  0.43305  0.47270  Biso   1.000  O
  C37      1.0000 0.47683  0.42240  0.52892  Biso   1.000  C
  C38      1.0000 0.46157  0.37535  0.54781  Biso   1.000  C
  C39      1.0000 0.46046  0.34605  0.50143  Biso   1.000  C
  H25      1.0000 0.46947  0.35573  0.45933  Biso   1.000  H
  C40      1.0000 0.44584  0.30248  0.51833  Biso   1.000  C
  H26      1.0000 0.44507  0.28263  0.48723  Biso   1.000  H
  C41      1.0000 0.43260  0.28797  0.57883  Biso   1.000  C
  C42      1.0000 0.43480  0.31815  0.62513  Biso   1.000  C
  H27      1.0000 0.42657  0.30903  0.66763  Biso   1.000  H
  C43      1.0000 0.44919  0.36142  0.60781  Biso   1.000  C
  H28      1.0000 0.45037  0.38153  0.63873  Biso   1.000  H
  C44      1.0000 0.41302  0.24076  0.59633  Biso   1.000  C
  C45      1.0000 0.37474  0.22102  0.63063  Biso   1.000  C
  H29      1.0000 0.36177  0.23803  0.64213  Biso   1.000  H
  H30      1.0000 0.50947  0.23203  0.60953  Biso   1.000  H
  O11      1.0000 0.14244  0.77981  0.90649  Biso   1.000  O
  O12      1.0000 0.15497  0.76639  0.80604  Biso   1.000  O
  C46      1.0000 0.14349  0.75574  0.86226  Biso   1.000  C
  C47      1.0000 0.12823  0.70869  0.88115  Biso   1.000  C
  C48      1.0000 0.12712  0.67939  0.83477  Biso   1.000  C
  H31      1.0000 0.13613  0.68907  0.79267  Biso   1.000  H
  C49      1.0000 0.11250  0.63582  0.85167  Biso   1.000  C
  H32      1.0000 0.11173  0.61597  0.82057  Biso   1.000  H
  C50      1.0000 0.09926  0.62131  0.91217  Biso   1.000  C
  C51      1.0000 0.10146  0.65149  0.95847  Biso   1.000  C
  H33      1.0000 0.09323  0.64237  0.00097  Biso   1.000  H
  C52      1.0000 0.11585  0.69476  0.94115  Biso   1.000  C
  H34      1.0000 0.11703  0.71487  0.97207  Biso   1.000  H
  C53      1.0000 0.07968  0.57410  0.92967  Biso   1.000  C
  C54      1.0000 0.04140  0.55436  0.96397  Biso   1.000  C
  H35      1.0000 0.02843  0.57137  0.97547  Biso   1.000  H
  H36      1.0000 0.17613  0.56537  0.94287  Biso   1.000  H
  O13      1.0000 0.88686  0.69597  0.23982  Biso   1.000  O
  O14      1.0000 0.90028  0.72192  0.13937  Biso   1.000  O
  C55      1.0000 0.91093  0.72109  0.19559  Biso   1.000  C
  C56      1.0000 0.95798  0.75288  0.21448  Biso   1.000  C
  C57      1.0000 0.98728  0.78107  0.16810  Biso   1.000  C
  H37      1.0000 0.97760  0.78040  0.12600  Biso   1.000  H
  C58      1.0000 0.03085  0.81002  0.18500  Biso   1.000  C
  H38      1.0000 0.05070  0.82910  0.15390  Biso   1.000  H
  C59      1.0000 0.04536  0.81129  0.24550  Biso   1.000  C
  C60      1.0000 0.01518  0.78331  0.29180  Biso   1.000  C
  H39      1.0000 0.02430  0.78420  0.33430  Biso   1.000  H
  C61      1.0000 0.97191  0.75443  0.27448  Biso   1.000  C
  H40      1.0000 0.95180  0.73550  0.30540  Biso   1.000  H
  C62      1.0000 0.09257  0.83892  0.26300  Biso   1.000  C
  C63      1.0000 0.11231  0.82038  0.29730  Biso   1.000  C
  H41      1.0000 0.09530  0.79040  0.30880  Biso   1.000  H
  H42      1.0000 0.10130  0.94410  0.27620  Biso   1.000  H
  O15      1.0000 0.55353  0.02930  0.57315  Biso   1.000  O
  O16      1.0000 0.56695  0.05525  0.47270  Biso   1.000  O
  C64      1.0000 0.57760  0.05442  0.52892  Biso   1.000  C
  C65      1.0000 0.62465  0.08621  0.54781  Biso   1.000  C
  C66      1.0000 0.65395  0.11440  0.50143  Biso   1.000  C
  H43      1.0000 0.64427  0.11373  0.45933  Biso   1.000  H
  C67      1.0000 0.69752  0.14335  0.51833  Biso   1.000  C
  H44      1.0000 0.71737  0.16243  0.48723  Biso   1.000  H
  C68      1.0000 0.71203  0.14462  0.57883  Biso   1.000  C
  C69      1.0000 0.68185  0.11664  0.62513  Biso   1.000  C
  H45      1.0000 0.69097  0.11753  0.66763  Biso   1.000  H
  C70      1.0000 0.63858  0.08776  0.60781  Biso   1.000  C
  H46      1.0000 0.61847  0.06883  0.63873  Biso   1.000  H
  C71      1.0000 0.75924  0.17225  0.59633  Biso   1.000  C
  C72      1.0000 0.77898  0.15371  0.63063  Biso   1.000  C
  H47      1.0000 0.76197  0.12373  0.64213  Biso   1.000  H
  H48      1.0000 0.76797  0.27743  0.60953  Biso   1.000  H
  O17      1.0000 0.22019  0.36264  0.90649  Biso   1.000  O
  O18      1.0000 0.23361  0.38859  0.80604  Biso   1.000  O
  C73      1.0000 0.24426  0.38776  0.86226  Biso   1.000  C
  C74      1.0000 0.29131  0.41955  0.88115  Biso   1.000  C
  C75      1.0000 0.32061  0.44774  0.83477  Biso   1.000  C
  H49      1.0000 0.31093  0.44707  0.79267  Biso   1.000  H
  C76      1.0000 0.36418  0.47669  0.85167  Biso   1.000  C
  H50      1.0000 0.38403  0.49577  0.82057  Biso   1.000  H
  C77      1.0000 0.37869  0.47796  0.91217  Biso   1.000  C
  C78      1.0000 0.34851  0.44998  0.95847  Biso   1.000  C
  H51      1.0000 0.35763  0.45087  0.00097  Biso   1.000  H
  C79      1.0000 0.30524  0.42110  0.94115  Biso   1.000  C
  H52      1.0000 0.28513  0.40217  0.97207  Biso   1.000  H
  C80      1.0000 0.42590  0.50559  0.92967  Biso   1.000  C
  C81      1.0000 0.44564  0.48705  0.96397  Biso   1.000  C
  H53      1.0000 0.42863  0.45707  0.97547  Biso   1.000  H
  H54      1.0000 0.43463  0.61077  0.94287  Biso   1.000  H
  O19      1.0000 0.19089  0.30403  0.76018  Biso   1.000  O
  O20      1.0000 0.17836  0.27808  0.86063  Biso   1.000  O
  C82      1.0000 0.18984  0.27891  0.80441  Biso   1.000  C
  C83      1.0000 0.20510  0.24712  0.78552  Biso   1.000  C
  C84      1.0000 0.20621  0.21893  0.83190  Biso   1.000  C
  H55      1.0000 0.19720  0.21960  0.87400  Biso   1.000  H
  C85      1.0000 0.22083  0.18998  0.81500  Biso   1.000  C
  H56      1.0000 0.22160  0.17090  0.84610  Biso   1.000  H
  C86      1.0000 0.23407  0.18871  0.75450  Biso   1.000  C
  C87      1.0000 0.23187  0.21669  0.70820  Biso   1.000  C
  H57      1.0000 0.24010  0.21580  0.66570  Biso   1.000  H
  C88      1.0000 0.21748  0.24557  0.72552  Biso   1.000  C
  H58      1.0000 0.21630  0.26450  0.69460  Biso   1.000  H
  C89      1.0000 0.25365  0.16108  0.73700  Biso   1.000  C
  C90      1.0000 0.29193  0.17962  0.70270  Biso   1.000  C
  H59      1.0000 0.30490  0.20960  0.69120  Biso   1.000  H
  H60      1.0000 0.15720  0.05590  0.72380  Biso   1.000  H
  O21      1.0000 0.85756  0.63736  0.09351  Biso   1.000  O
  O22      1.0000 0.84503  0.61141  0.19396  Biso   1.000  O
  C91      1.0000 0.85651  0.61224  0.13774  Biso   1.000  C
  C92      1.0000 0.87177  0.58045  0.11885  Biso   1.000  C
  C93      1.0000 0.87288  0.55226  0.16523  Biso   1.000  C
  H61      1.0000 0.86387  0.55293  0.20733  Biso   1.000  H
  C94      1.0000 0.88750  0.52331  0.14833  Biso   1.000  C
  H62      1.0000 0.88827  0.50423  0.17943  Biso   1.000  H
  C95      1.0000 0.90074  0.52204  0.08783  Biso   1.000  C
  C96      1.0000 0.89854  0.55002  0.04153  Biso   1.000  C
  H63      1.0000 0.90677  0.54913  0.99903  Biso   1.000  H
  C97      1.0000 0.88415  0.57890  0.05885  Biso   1.000  C
  H64      1.0000 0.88297  0.59783  0.02793  Biso   1.000  H
  C98      1.0000 0.92032  0.49441  0.07033  Biso   1.000  C
  C99      1.0000 0.95860  0.51295  0.03603  Biso   1.000  C
  H65      1.0000 0.97157  0.54293  0.02453  Biso   1.000  H
  H66      1.0000 0.82387  0.38923  0.05713  Biso   1.000  H
  O23      1.0000 0.52422  0.97070  0.42685  Biso   1.000  O
  O24      1.0000 0.51169  0.94475  0.52730  Biso   1.000  O
  C100     1.0000 0.52317  0.94558  0.47108  Biso   1.000  C
  C101     1.0000 0.53843  0.91379  0.45219  Biso   1.000  C
  C102     1.0000 0.53954  0.88560  0.49857  Biso   1.000  C
  H67      1.0000 0.53053  0.88627  0.54067  Biso   1.000  H
  C103     1.0000 0.55416  0.85665  0.48167  Biso   1.000  C
  H68      1.0000 0.55493  0.83757  0.51277  Biso   1.000  H
  C104     1.0000 0.56740  0.85538  0.42117  Biso   1.000  C
  C105     1.0000 0.56520  0.88336  0.37487  Biso   1.000  C
  H69      1.0000 0.57343  0.88247  0.33237  Biso   1.000  H
  C106     1.0000 0.55081  0.91224  0.39219  Biso   1.000  C
  H70      1.0000 0.54963  0.93117  0.36127  Biso   1.000  H
  C107     1.0000 0.58698  0.82775  0.40367  Biso   1.000  C
  C108     1.0000 0.62526  0.84629  0.36937  Biso   1.000  C
  H71      1.0000 0.63823  0.87627  0.35787  Biso   1.000  H
  H72      1.0000 0.49053  0.72257  0.39047  Biso   1.000  H
  O25      1.0000 0.11314  0.80911  0.76018  Biso   1.000  O
  O26      1.0000 0.09972  0.82164  0.86063  Biso   1.000  O
  C109     1.0000 0.08907  0.81016  0.80441  Biso   1.000  C
  C110     1.0000 0.04202  0.79490  0.78552  Biso   1.000  C
  C111     1.0000 0.01272  0.79379  0.83190  Biso   1.000  C
  H73      1.0000 0.02240  0.80280  0.87400  Biso   1.000  H
  C112     1.0000 0.96915  0.77917  0.81500  Biso   1.000  C
  H74      1.0000 0.94930  0.77840  0.84610  Biso   1.000  H
  C113     1.0000 0.95464  0.76593  0.75450  Biso   1.000  C
  C114     1.0000 0.98482  0.76813  0.70820  Biso   1.000  C
  H75      1.0000 0.97570  0.75990  0.66570  Biso   1.000  H
  C115     1.0000 0.02809  0.78252  0.72552  Biso   1.000  C
  H76      1.0000 0.04820  0.78370  0.69460  Biso   1.000  H
  C116     1.0000 0.90743  0.74635  0.73700  Biso   1.000  C
  C117     1.0000 0.88769  0.70807  0.70270  Biso   1.000  C
  H77      1.0000 0.90470  0.69510  0.69120  Biso   1.000  H
  H78      1.0000 0.89870  0.84280  0.72380  Biso   1.000  H
  O27      1.0000 0.77981  0.14244  0.09351  Biso   1.000  O
  O28      1.0000 0.76639  0.15497  0.19396  Biso   1.000  O
  C118     1.0000 0.75574  0.14349  0.13774  Biso   1.000  C
  C119     1.0000 0.70869  0.12823  0.11885  Biso   1.000  C
  C120     1.0000 0.67939  0.12712  0.16523  Biso   1.000  C
  H79      1.0000 0.68907  0.13613  0.20733  Biso   1.000  H
  C121     1.0000 0.63582  0.11250  0.14833  Biso   1.000  C
  H80      1.0000 0.61597  0.11173  0.17943  Biso   1.000  H
  C122     1.0000 0.62131  0.09926  0.08783  Biso   1.000  C
  C123     1.0000 0.65149  0.10146  0.04153  Biso   1.000  C
  H81      1.0000 0.64237  0.09323  0.99903  Biso   1.000  H
  C124     1.0000 0.69476  0.11585  0.05885  Biso   1.000  C
  H82      1.0000 0.71487  0.11703  0.02793  Biso   1.000  H
  C125     1.0000 0.57410  0.07968  0.07033  Biso   1.000  C
  C126     1.0000 0.55436  0.04140  0.03603  Biso   1.000  C
  H83      1.0000 0.57137  0.02843  0.02453  Biso   1.000  H
  H84      1.0000 0.56537  0.17613  0.05713  Biso   1.000  H
  O29      1.0000 0.44647  0.47578  0.42685  Biso   1.000  O
  O30      1.0000 0.43305  0.48831  0.52730  Biso   1.000  O
  C127     1.0000 0.42240  0.47683  0.47108  Biso   1.000  C
  C128     1.0000 0.37535  0.46157  0.45219  Biso   1.000  C
  C129     1.0000 0.34605  0.46046  0.49857  Biso   1.000  C
  H85      1.0000 0.35573  0.46947  0.54067  Biso   1.000  H
  C130     1.0000 0.30248  0.44584  0.48167  Biso   1.000  C
  H86      1.0000 0.28263  0.44507  0.51277  Biso   1.000  H
  C131     1.0000 0.28797  0.43260  0.42117  Biso   1.000  C
  C132     1.0000 0.31815  0.43480  0.37487  Biso   1.000  C
  H87      1.0000 0.30903  0.42657  0.33237  Biso   1.000  H
  C133     1.0000 0.36142  0.44919  0.39219  Biso   1.000  C
  H88      1.0000 0.38153  0.45037  0.36127  Biso   1.000  H
  C134     1.0000 0.24076  0.41302  0.40367  Biso   1.000  C
  C135     1.0000 0.22102  0.37474  0.36937  Biso   1.000  C
  H89      1.0000 0.23803  0.36177  0.35787  Biso   1.000  H
  H90      1.0000 0.23203  0.50947  0.39047  Biso   1.000  H
  O31      1.0000 0.69597  0.88686  0.76018  Biso   1.000  O
  O32      1.0000 0.72192  0.90028  0.86063  Biso   1.000  O
  C136     1.0000 0.72109  0.91093  0.80441  Biso   1.000  C
  C137     1.0000 0.75288  0.95798  0.78552  Biso   1.000  C
  C138     1.0000 0.78107  0.98728  0.83190  Biso   1.000  C
  H91      1.0000 0.78040  0.97760  0.87400  Biso   1.000  H
  C139     1.0000 0.81002  0.03085  0.81500  Biso   1.000  C
  H92      1.0000 0.82910  0.05070  0.84610  Biso   1.000  H
  C140     1.0000 0.81129  0.04536  0.75450  Biso   1.000  C
  C141     1.0000 0.78331  0.01518  0.70820  Biso   1.000  C
  H93      1.0000 0.78420  0.02430  0.66570  Biso   1.000  H
  C142     1.0000 0.75443  0.97191  0.72552  Biso   1.000  C
  H94      1.0000 0.73550  0.95180  0.69460  Biso   1.000  H
  C143     1.0000 0.83892  0.09257  0.73700  Biso   1.000  C
  C144     1.0000 0.82038  0.11231  0.70270  Biso   1.000  C
  H95      1.0000 0.79040  0.09530  0.69120  Biso   1.000  H
  H96      1.0000 0.94410  0.10130  0.72380  Biso   1.000  H
  O33      1.0000 0.36264  0.22019  0.09351  Biso   1.000  O
  O34      1.0000 0.38859  0.23361  0.19396  Biso   1.000  O
  C145     1.0000 0.38776  0.24426  0.13774  Biso   1.000  C
  C146     1.0000 0.41955  0.29131  0.11885  Biso   1.000  C
  C147     1.0000 0.44774  0.32061  0.16523  Biso   1.000  C
  H97      1.0000 0.44707  0.31093  0.20733  Biso   1.000  H
  C148     1.0000 0.47669  0.36418  0.14833  Biso   1.000  C
  H98      1.0000 0.49577  0.38403  0.17943  Biso   1.000  H
  C149     1.0000 0.47796  0.37869  0.08783  Biso   1.000  C
  C150     1.0000 0.44998  0.34851  0.04153  Biso   1.000  C
  H99      1.0000 0.45087  0.35763  0.99903  Biso   1.000  H
  C151     1.0000 0.42110  0.30524  0.05885  Biso   1.000  C
  H100     1.0000 0.40217  0.28513  0.02793  Biso   1.000  H
  C152     1.0000 0.50559  0.42590  0.07033  Biso   1.000  C
  C153     1.0000 0.48705  0.44564  0.03603  Biso   1.000  C
  H101     1.0000 0.45707  0.42863  0.02453  Biso   1.000  H
  H102     1.0000 0.61077  0.43463  0.05713  Biso   1.000  H
  O35      1.0000 0.02930  0.55353  0.42685  Biso   1.000  O
  O36      1.0000 0.05525  0.56695  0.52730  Biso   1.000  O
  C154     1.0000 0.05442  0.57760  0.47108  Biso   1.000  C
  C155     1.0000 0.08621  0.62465  0.45219  Biso   1.000  C
  C156     1.0000 0.11440  0.65395  0.49857  Biso   1.000  C
  H103     1.0000 0.11373  0.64427  0.54067  Biso   1.000  H
  C157     1.0000 0.14335  0.69752  0.48167  Biso   1.000  C
  H104     1.0000 0.16243  0.71737  0.51277  Biso   1.000  H
  C158     1.0000 0.14462  0.71203  0.42117  Biso   1.000  C
  C159     1.0000 0.11664  0.68185  0.37487  Biso   1.000  C
  H105     1.0000 0.11753  0.69097  0.33237  Biso   1.000  H
  C160     1.0000 0.08776  0.63858  0.39219  Biso   1.000  C
  H106     1.0000 0.06883  0.61847  0.36127  Biso   1.000  H
  C161     1.0000 0.17225  0.75924  0.40367  Biso   1.000  C
  C162     1.0000 0.15371  0.77898  0.36937  Biso   1.000  C
  H107     1.0000 0.12373  0.76197  0.35787  Biso   1.000  H
  H108     1.0000 0.27743  0.76797  0.39047  Biso   1.000  H
  O37      1.0000 0.69597  0.80911  0.76018  Biso   1.000  O
  O38      1.0000 0.72192  0.82164  0.86063  Biso   1.000  O
  C163     1.0000 0.72109  0.81016  0.80441  Biso   1.000  C
  C164     1.0000 0.75288  0.79490  0.78552  Biso   1.000  C
  C165     1.0000 0.78107  0.79379  0.83190  Biso   1.000  C
  H109     1.0000 0.78040  0.80280  0.87400  Biso   1.000  H
  C166     1.0000 0.81002  0.77917  0.81500  Biso   1.000  C
  H110     1.0000 0.82910  0.77840  0.84610  Biso   1.000  H
  C167     1.0000 0.81129  0.76593  0.75450  Biso   1.000  C
  C168     1.0000 0.78331  0.76813  0.70820  Biso   1.000  C
  H111     1.0000 0.78420  0.75990  0.66570  Biso   1.000  H
  C169     1.0000 0.75443  0.78252  0.72552  Biso   1.000  C
  H112     1.0000 0.73550  0.78370  0.69460  Biso   1.000  H
  C170     1.0000 0.83892  0.74635  0.73700  Biso   1.000  C
  C171     1.0000 0.82038  0.70807  0.70270  Biso   1.000  C
  H113     1.0000 0.79040  0.69510  0.69120  Biso   1.000  H
  H114     1.0000 0.94410  0.84280  0.72380  Biso   1.000  H
  O39      1.0000 0.36264  0.14244  0.09351  Biso   1.000  O
  O40      1.0000 0.38859  0.15497  0.19396  Biso   1.000  O
  C172     1.0000 0.38776  0.14349  0.13774  Biso   1.000  C
  C173     1.0000 0.41955  0.12823  0.11885  Biso   1.000  C
  C174     1.0000 0.44774  0.12712  0.16523  Biso   1.000  C
  H115     1.0000 0.44707  0.13613  0.20733  Biso   1.000  H
  C175     1.0000 0.47669  0.11250  0.14833  Biso   1.000  C
  H116     1.0000 0.49577  0.11173  0.17943  Biso   1.000  H
  C176     1.0000 0.47796  0.09926  0.08783  Biso   1.000  C
  C177     1.0000 0.44998  0.10146  0.04153  Biso   1.000  C
  H117     1.0000 0.45087  0.09323  0.99903  Biso   1.000  H
  C178     1.0000 0.42110  0.11585  0.05885  Biso   1.000  C
  H118     1.0000 0.40217  0.11703  0.02793  Biso   1.000  H
  C179     1.0000 0.50559  0.07968  0.07033  Biso   1.000  C
  C180     1.0000 0.48705  0.04140  0.03603  Biso   1.000  C
  H119     1.0000 0.45707  0.02843  0.02453  Biso   1.000  H
  H120     1.0000 0.61077  0.17613  0.05713  Biso   1.000  H
  O41      1.0000 0.02930  0.47578  0.42685  Biso   1.000  O
  O42      1.0000 0.05525  0.48831  0.52730  Biso   1.000  O
  C181     1.0000 0.05442  0.47683  0.47108  Biso   1.000  C
  C182     1.0000 0.08621  0.46157  0.45219  Biso   1.000  C
  C183     1.0000 0.11440  0.46046  0.49857  Biso   1.000  C
  H121     1.0000 0.11373  0.46947  0.54067  Biso   1.000  H
  C184     1.0000 0.14335  0.44584  0.48167  Biso   1.000  C
  H122     1.0000 0.16243  0.44507  0.51277  Biso   1.000  H
  C185     1.0000 0.14462  0.43260  0.42117  Biso   1.000  C
  C186     1.0000 0.11664  0.43480  0.37487  Biso   1.000  C
  H123     1.0000 0.11753  0.42657  0.33237  Biso   1.000  H
  C187     1.0000 0.08776  0.44919  0.39219  Biso   1.000  C
  H124     1.0000 0.06883  0.45037  0.36127  Biso   1.000  H
  C188     1.0000 0.17225  0.41302  0.40367  Biso   1.000  C
  C189     1.0000 0.15371  0.37474  0.36937  Biso   1.000  C
  H125     1.0000 0.12373  0.36177  0.35787  Biso   1.000  H
  H126     1.0000 0.27743  0.50947  0.39047  Biso   1.000  H
  O43      1.0000 0.19089  0.88686  0.76018  Biso   1.000  O
  O44      1.0000 0.17836  0.90028  0.86063  Biso   1.000  O
  C190     1.0000 0.18984  0.91093  0.80441  Biso   1.000  C
  C191     1.0000 0.20510  0.95798  0.78552  Biso   1.000  C
  C192     1.0000 0.20621  0.98728  0.83190  Biso   1.000  C
  H127     1.0000 0.19720  0.97760  0.87400  Biso   1.000  H
  C193     1.0000 0.22083  0.03085  0.81500  Biso   1.000  C
  H128     1.0000 0.22160  0.05070  0.84610  Biso   1.000  H
  C194     1.0000 0.23407  0.04536  0.75450  Biso   1.000  C
  C195     1.0000 0.23187  0.01518  0.70820  Biso   1.000  C
  H129     1.0000 0.24010  0.02430  0.66570  Biso   1.000  H
  C196     1.0000 0.21748  0.97191  0.72552  Biso   1.000  C
  H130     1.0000 0.21630  0.95180  0.69460  Biso   1.000  H
  C197     1.0000 0.25365  0.09257  0.73700  Biso   1.000  C
  C198     1.0000 0.29193  0.11231  0.70270  Biso   1.000  C
  H131     1.0000 0.30490  0.09530  0.69120  Biso   1.000  H
  H132     1.0000 0.15720  0.10130  0.72380  Biso   1.000  H
  O45      1.0000 0.85756  0.22019  0.09351  Biso   1.000  O
  O46      1.0000 0.84503  0.23361  0.19396  Biso   1.000  O
  C199     1.0000 0.85651  0.24426  0.13774  Biso   1.000  C
  C200     1.0000 0.87177  0.29131  0.11885  Biso   1.000  C
  C201     1.0000 0.87288  0.32061  0.16523  Biso   1.000  C
  H133     1.0000 0.86387  0.31093  0.20733  Biso   1.000  H
  C202     1.0000 0.88750  0.36418  0.14833  Biso   1.000  C
  H134     1.0000 0.88827  0.38403  0.17943  Biso   1.000  H
  C203     1.0000 0.90074  0.37869  0.08783  Biso   1.000  C
  C204     1.0000 0.89854  0.34851  0.04153  Biso   1.000  C
  H135     1.0000 0.90677  0.35763  0.99903  Biso   1.000  H
  C205     1.0000 0.88415  0.30524  0.05885  Biso   1.000  C
  H136     1.0000 0.88297  0.28513  0.02793  Biso   1.000  H
  C206     1.0000 0.92032  0.42590  0.07033  Biso   1.000  C
  C207     1.0000 0.95860  0.44564  0.03603  Biso   1.000  C
  H137     1.0000 0.97157  0.42863  0.02453  Biso   1.000  H
  H138     1.0000 0.82387  0.43463  0.05713  Biso   1.000  H
  O47      1.0000 0.52422  0.55353  0.42685  Biso   1.000  O
  O48      1.0000 0.51169  0.56695  0.52730  Biso   1.000  O
  C208     1.0000 0.52317  0.57760  0.47108  Biso   1.000  C
  C209     1.0000 0.53843  0.62465  0.45219  Biso   1.000  C
  C210     1.0000 0.53954  0.65395  0.49857  Biso   1.000  C
  H139     1.0000 0.53053  0.64427  0.54067  Biso   1.000  H
  C211     1.0000 0.55416  0.69752  0.48167  Biso   1.000  C
  H140     1.0000 0.55493  0.71737  0.51277  Biso   1.000  H
  C212     1.0000 0.56740  0.71203  0.42117  Biso   1.000  C
  C213     1.0000 0.56520  0.68185  0.37487  Biso   1.000  C
  H141     1.0000 0.57343  0.69097  0.33237  Biso   1.000  H
  C214     1.0000 0.55081  0.63858  0.39219  Biso   1.000  C
  H142     1.0000 0.54963  0.61847  0.36127  Biso   1.000  H
  C215     1.0000 0.58698  0.75924  0.40367  Biso   1.000  C
  C216     1.0000 0.62526  0.77898  0.36937  Biso   1.000  C
  H143     1.0000 0.63823  0.76197  0.35787  Biso   1.000  H
  H144     1.0000 0.49053  0.76797  0.39047  Biso   1.000  H
  O49      1.0000 0.11314  0.30403  0.76018  Biso   1.000  O
  O50      1.0000 0.09972  0.27808  0.86063  Biso   1.000  O
  C217     1.0000 0.08907  0.27891  0.80441  Biso   1.000  C
  C218     1.0000 0.04202  0.24712  0.78552  Biso   1.000  C
  C219     1.0000 0.01272  0.21893  0.83190  Biso   1.000  C
  H145     1.0000 0.02240  0.21960  0.87400  Biso   1.000  H
  C220     1.0000 0.96915  0.18998  0.81500  Biso   1.000  C
  H146     1.0000 0.94930  0.17090  0.84610  Biso   1.000  H
  C221     1.0000 0.95464  0.18871  0.75450  Biso   1.000  C
  C222     1.0000 0.98482  0.21669  0.70820  Biso   1.000  C
  H147     1.0000 0.97570  0.21580  0.66570  Biso   1.000  H
  C223     1.0000 0.02809  0.24557  0.72552  Biso   1.000  C
  H148     1.0000 0.04820  0.26450  0.69460  Biso   1.000  H
  C224     1.0000 0.90743  0.16108  0.73700  Biso   1.000  C
  C225     1.0000 0.88769  0.17962  0.70270  Biso   1.000  C
  H149     1.0000 0.90470  0.20960  0.69120  Biso   1.000  H
  H150     1.0000 0.89870  0.05590  0.72380  Biso   1.000  H
  O51      1.0000 0.77981  0.63736  0.09351  Biso   1.000  O
  O52      1.0000 0.76639  0.61141  0.19396  Biso   1.000  O
  C226     1.0000 0.75574  0.61224  0.13774  Biso   1.000  C
  C227     1.0000 0.70869  0.58045  0.11885  Biso   1.000  C
  C228     1.0000 0.67939  0.55226  0.16523  Biso   1.000  C
  H151     1.0000 0.68907  0.55293  0.20733  Biso   1.000  H
  C229     1.0000 0.63582  0.52331  0.14833  Biso   1.000  C
  H152     1.0000 0.61597  0.50423  0.17943  Biso   1.000  H
  C230     1.0000 0.62131  0.52204  0.08783  Biso   1.000  C
  C231     1.0000 0.65149  0.55002  0.04153  Biso   1.000  C
  H153     1.0000 0.64237  0.54913  0.99903  Biso   1.000  H
  C232     1.0000 0.69476  0.57890  0.05885  Biso   1.000  C
  H154     1.0000 0.71487  0.59783  0.02793  Biso   1.000  H
  C233     1.0000 0.57410  0.49441  0.07033  Biso   1.000  C
  C234     1.0000 0.55436  0.51295  0.03603  Biso   1.000  C
  H155     1.0000 0.57137  0.54293  0.02453  Biso   1.000  H
  H156     1.0000 0.56537  0.38923  0.05713  Biso   1.000  H
  O53      1.0000 0.44647  0.97070  0.42685  Biso   1.000  O
  O54      1.0000 0.43305  0.94475  0.52730  Biso   1.000  O
  C235     1.0000 0.42240  0.94558  0.47108  Biso   1.000  C
  C236     1.0000 0.37535  0.91379  0.45219  Biso   1.000  C
  C237     1.0000 0.34605  0.88560  0.49857  Biso   1.000  C
  H157     1.0000 0.35573  0.88627  0.54067  Biso   1.000  H
  C238     1.0000 0.30248  0.85665  0.48167  Biso   1.000  C
  H158     1.0000 0.28263  0.83757  0.51277  Biso   1.000  H
  C239     1.0000 0.28797  0.85538  0.42117  Biso   1.000  C
  C240     1.0000 0.31815  0.88336  0.37487  Biso   1.000  C
  H159     1.0000 0.30903  0.88247  0.33237  Biso   1.000  H
  C241     1.0000 0.36142  0.91224  0.39219  Biso   1.000  C
  H160     1.0000 0.38153  0.93117  0.36127  Biso   1.000  H
  C242     1.0000 0.24076  0.82775  0.40367  Biso   1.000  C
  C243     1.0000 0.22102  0.84629  0.36937  Biso   1.000  C
  H161     1.0000 0.23803  0.87627  0.35787  Biso   1.000  H
  H162     1.0000 0.23203  0.72257  0.39047  Biso   1.000  H
  O55      1.0000 0.80911  0.69597  0.23982  Biso   1.000  O
  O56      1.0000 0.82164  0.72192  0.13937  Biso   1.000  O
  C244     1.0000 0.81016  0.72109  0.19559  Biso   1.000  C
  C245     1.0000 0.79490  0.75288  0.21448  Biso   1.000  C
  C246     1.0000 0.79379  0.78107  0.16810  Biso   1.000  C
  H163     1.0000 0.80280  0.78040  0.12600  Biso   1.000  H
  C247     1.0000 0.77917  0.81002  0.18500  Biso   1.000  C
  H164     1.0000 0.77840  0.82910  0.15390  Biso   1.000  H
  C248     1.0000 0.76593  0.81129  0.24550  Biso   1.000  C
  C249     1.0000 0.76813  0.78331  0.29180  Biso   1.000  C
  H165     1.0000 0.75990  0.78420  0.33430  Biso   1.000  H
  C250     1.0000 0.78252  0.75443  0.27448  Biso   1.000  C
  H166     1.0000 0.78370  0.73550  0.30540  Biso   1.000  H
  C251     1.0000 0.74635  0.83892  0.26300  Biso   1.000  C
  C252     1.0000 0.70807  0.82038  0.29730  Biso   1.000  C
  H167     1.0000 0.69510  0.79040  0.30880  Biso   1.000  H
  H168     1.0000 0.84280  0.94410  0.27620  Biso   1.000  H
  O57      1.0000 0.47578  0.02930  0.57315  Biso   1.000  O
  O58      1.0000 0.48831  0.05525  0.47270  Biso   1.000  O
  C253     1.0000 0.47683  0.05442  0.52892  Biso   1.000  C
  C254     1.0000 0.46157  0.08621  0.54781  Biso   1.000  C
  C255     1.0000 0.46046  0.11440  0.50143  Biso   1.000  C
  H169     1.0000 0.46947  0.11373  0.45933  Biso   1.000  H
  C256     1.0000 0.44584  0.14335  0.51833  Biso   1.000  C
  H170     1.0000 0.44507  0.16243  0.48723  Biso   1.000  H
  C257     1.0000 0.43260  0.14462  0.57883  Biso   1.000  C
  C258     1.0000 0.43480  0.11664  0.62513  Biso   1.000  C
  H171     1.0000 0.42657  0.11753  0.66763  Biso   1.000  H
  C259     1.0000 0.44919  0.08776  0.60781  Biso   1.000  C
  H172     1.0000 0.45037  0.06883  0.63873  Biso   1.000  H
  C260     1.0000 0.41302  0.17225  0.59633  Biso   1.000  C
  C261     1.0000 0.37474  0.15371  0.63063  Biso   1.000  C
  H173     1.0000 0.36177  0.12373  0.64213  Biso   1.000  H
  H174     1.0000 0.50947  0.27743  0.60953  Biso   1.000  H
  O59      1.0000 0.14244  0.36264  0.90649  Biso   1.000  O
  O60      1.0000 0.15497  0.38859  0.80604  Biso   1.000  O
  C262     1.0000 0.14349  0.38776  0.86226  Biso   1.000  C
  C263     1.0000 0.12823  0.41955  0.88115  Biso   1.000  C
  C264     1.0000 0.12712  0.44774  0.83477  Biso   1.000  C
  H175     1.0000 0.13613  0.44707  0.79267  Biso   1.000  H
  C265     1.0000 0.11250  0.47669  0.85167  Biso   1.000  C
  H176     1.0000 0.11173  0.49577  0.82057  Biso   1.000  H
  C266     1.0000 0.09926  0.47796  0.91217  Biso   1.000  C
  C267     1.0000 0.10146  0.44998  0.95847  Biso   1.000  C
  H177     1.0000 0.09323  0.45087  0.00097  Biso   1.000  H
  C268     1.0000 0.11585  0.42110  0.94115  Biso   1.000  C
  H178     1.0000 0.11703  0.40217  0.97207  Biso   1.000  H
  C269     1.0000 0.07968  0.50559  0.92967  Biso   1.000  C
  C270     1.0000 0.04140  0.48705  0.96397  Biso   1.000  C
  H179     1.0000 0.02843  0.45707  0.97547  Biso   1.000  H
  H180     1.0000 0.17613  0.61077  0.94287  Biso   1.000  H
  O61      1.0000 0.88686  0.19089  0.23982  Biso   1.000  O
  O62      1.0000 0.90028  0.17836  0.13937  Biso   1.000  O
  C271     1.0000 0.91093  0.18984  0.19559  Biso   1.000  C
  C272     1.0000 0.95798  0.20510  0.21448  Biso   1.000  C
  C273     1.0000 0.98728  0.20621  0.16810  Biso   1.000  C
  H181     1.0000 0.97760  0.19720  0.12600  Biso   1.000  H
  C274     1.0000 0.03085  0.22083  0.18500  Biso   1.000  C
  H182     1.0000 0.05070  0.22160  0.15390  Biso   1.000  H
  C275     1.0000 0.04536  0.23407  0.24550  Biso   1.000  C
  C276     1.0000 0.01518  0.23187  0.29180  Biso   1.000  C
  H183     1.0000 0.02430  0.24010  0.33430  Biso   1.000  H
  C277     1.0000 0.97191  0.21748  0.27448  Biso   1.000  C
  H184     1.0000 0.95180  0.21630  0.30540  Biso   1.000  H
  C278     1.0000 0.09257  0.25365  0.26300  Biso   1.000  C
  C279     1.0000 0.11231  0.29193  0.29730  Biso   1.000  C
  H185     1.0000 0.09530  0.30490  0.30880  Biso   1.000  H
  H186     1.0000 0.10130  0.15720  0.27620  Biso   1.000  H
  O63      1.0000 0.55353  0.52422  0.57315  Biso   1.000  O
  O64      1.0000 0.56695  0.51169  0.47270  Biso   1.000  O
  C280     1.0000 0.57760  0.52317  0.52892  Biso   1.000  C
  C281     1.0000 0.62465  0.53843  0.54781  Biso   1.000  C
  C282     1.0000 0.65395  0.53954  0.50143  Biso   1.000  C
  H187     1.0000 0.64427  0.53053  0.45933  Biso   1.000  H
  C283     1.0000 0.69752  0.55416  0.51833  Biso   1.000  C
  H188     1.0000 0.71737  0.55493  0.48723  Biso   1.000  H
  C284     1.0000 0.71203  0.56740  0.57883  Biso   1.000  C
  C285     1.0000 0.68185  0.56520  0.62513  Biso   1.000  C
  H189     1.0000 0.69097  0.57343  0.66763  Biso   1.000  H
  C286     1.0000 0.63858  0.55081  0.60781  Biso   1.000  C
  H190     1.0000 0.61847  0.54963  0.63873  Biso   1.000  H
  C287     1.0000 0.75924  0.58698  0.59633  Biso   1.000  C
  C288     1.0000 0.77898  0.62526  0.63063  Biso   1.000  C
  H191     1.0000 0.76197  0.63823  0.64213  Biso   1.000  H
  H192     1.0000 0.76797  0.49053  0.60953  Biso   1.000  H
  O65      1.0000 0.22019  0.85756  0.90649  Biso   1.000  O
  O66      1.0000 0.23361  0.84503  0.80604  Biso   1.000  O
  C289     1.0000 0.24426  0.85651  0.86226  Biso   1.000  C
  C290     1.0000 0.29131  0.87177  0.88115  Biso   1.000  C
  C291     1.0000 0.32061  0.87288  0.83477  Biso   1.000  C
  H193     1.0000 0.31093  0.86387  0.79267  Biso   1.000  H
  C292     1.0000 0.36418  0.88750  0.85167  Biso   1.000  C
  H194     1.0000 0.38403  0.88827  0.82057  Biso   1.000  H
  C293     1.0000 0.37869  0.90074  0.91217  Biso   1.000  C
  C294     1.0000 0.34851  0.89854  0.95847  Biso   1.000  C
  H195     1.0000 0.35763  0.90677  0.00097  Biso   1.000  H
  C295     1.0000 0.30524  0.88415  0.94115  Biso   1.000  C
  H196     1.0000 0.28513  0.88297  0.97207  Biso   1.000  H
  C296     1.0000 0.42590  0.92032  0.92967  Biso   1.000  C
  C297     1.0000 0.44564  0.95860  0.96397  Biso   1.000  C
  H197     1.0000 0.42863  0.97157  0.97547  Biso   1.000  H
  H198     1.0000 0.43463  0.82387  0.94287  Biso   1.000  H
  O67      1.0000 0.30403  0.11314  0.23982  Biso   1.000  O
  O68      1.0000 0.27808  0.09972  0.13937  Biso   1.000  O
  C298     1.0000 0.27891  0.08907  0.19559  Biso   1.000  C
  C299     1.0000 0.24712  0.04202  0.21448  Biso   1.000  C
  C300     1.0000 0.21893  0.01272  0.16810  Biso   1.000  C
  H199     1.0000 0.21960  0.02240  0.12600  Biso   1.000  H
  C301     1.0000 0.18998  0.96915  0.18500  Biso   1.000  C
  H200     1.0000 0.17090  0.94930  0.15390  Biso   1.000  H
  C302     1.0000 0.18871  0.95464  0.24550  Biso   1.000  C
  C303     1.0000 0.21669  0.98482  0.29180  Biso   1.000  C
  H201     1.0000 0.21580  0.97570  0.33430  Biso   1.000  H
  C304     1.0000 0.24557  0.02809  0.27448  Biso   1.000  C
  H202     1.0000 0.26450  0.04820  0.30540  Biso   1.000  H
  C305     1.0000 0.16108  0.90743  0.26300  Biso   1.000  C
  C306     1.0000 0.17962  0.88769  0.29730  Biso   1.000  C
  H203     1.0000 0.20960  0.90470  0.30880  Biso   1.000  H
  H204     1.0000 0.05590  0.89870  0.27620  Biso   1.000  H
  O69      1.0000 0.97070  0.44647  0.57315  Biso   1.000  O
  O70      1.0000 0.94475  0.43305  0.47270  Biso   1.000  O
  C307     1.0000 0.94558  0.42240  0.52892  Biso   1.000  C
  C308     1.0000 0.91379  0.37535  0.54781  Biso   1.000  C
  C309     1.0000 0.88560  0.34605  0.50143  Biso   1.000  C
  H205     1.0000 0.88627  0.35573  0.45933  Biso   1.000  H
  C310     1.0000 0.85665  0.30248  0.51833  Biso   1.000  C
  H206     1.0000 0.83757  0.28263  0.48723  Biso   1.000  H
  C311     1.0000 0.85538  0.28797  0.57883  Biso   1.000  C
  C312     1.0000 0.88336  0.31815  0.62513  Biso   1.000  C
  H207     1.0000 0.88247  0.30903  0.66763  Biso   1.000  H
  C313     1.0000 0.91224  0.36142  0.60781  Biso   1.000  C
  H208     1.0000 0.93117  0.38153  0.63873  Biso   1.000  H
  C314     1.0000 0.82775  0.24076  0.59633  Biso   1.000  C
  C315     1.0000 0.84629  0.22102  0.63063  Biso   1.000  C
  H209     1.0000 0.87627  0.23803  0.64213  Biso   1.000  H
  H210     1.0000 0.72257  0.23203  0.60953  Biso   1.000  H
  O71      1.0000 0.63736  0.77981  0.90649  Biso   1.000  O
  O72      1.0000 0.61141  0.76639  0.80604  Biso   1.000  O
  C316     1.0000 0.61224  0.75574  0.86226  Biso   1.000  C
  C317     1.0000 0.58045  0.70869  0.88115  Biso   1.000  C
  C318     1.0000 0.55226  0.67939  0.83477  Biso   1.000  C
  H211     1.0000 0.55293  0.68907  0.79267  Biso   1.000  H
  C319     1.0000 0.52331  0.63582  0.85167  Biso   1.000  C
  H212     1.0000 0.50423  0.61597  0.82057  Biso   1.000  H
  C320     1.0000 0.52204  0.62131  0.91217  Biso   1.000  C
  C321     1.0000 0.55002  0.65149  0.95847  Biso   1.000  C
  H213     1.0000 0.54913  0.64237  0.00097  Biso   1.000  H
  C322     1.0000 0.57890  0.69476  0.94115  Biso   1.000  C
  H214     1.0000 0.59783  0.71487  0.97207  Biso   1.000  H
  C323     1.0000 0.49441  0.57410  0.92967  Biso   1.000  C
  C324     1.0000 0.51295  0.55436  0.96397  Biso   1.000  C
  H215     1.0000 0.54293  0.57137  0.97547  Biso   1.000  H
  H216     1.0000 0.38923  0.56537  0.94287  Biso   1.000  H
  Cu1      1.0000 0.31804  0.15902  0.10835  Biso   1.000  Cu
  Cu2      1.0000 0.98471  0.49235  0.44168  Biso   1.000  Cu
  Cu3      1.0000 0.65137  0.82569  0.77502  Biso   1.000  Cu
  Cu4      1.0000 0.84098  0.15902  0.10835  Biso   1.000  Cu
  Cu5      1.0000 0.50765  0.49235  0.44168  Biso   1.000  Cu
  Cu6      1.0000 0.17431  0.82569  0.77502  Biso   1.000  Cu
  Cu7      1.0000 0.84098  0.68196  0.10835  Biso   1.000  Cu
  Cu8      1.0000 0.50765  0.01529  0.44168  Biso   1.000  Cu
  Cu9      1.0000 0.17431  0.34863  0.77502  Biso   1.000  Cu
  Cu10     1.0000 0.15902  0.31804  0.89165  Biso   1.000  Cu
  Cu11     1.0000 0.82569  0.65137  0.22498  Biso   1.000  Cu
  Cu12     1.0000 0.49235  0.98471  0.55832  Biso   1.000  Cu
  Cu13     1.0000 0.15902  0.84098  0.89165  Biso   1.000  Cu
  Cu14     1.0000 0.82569  0.17431  0.22498  Biso   1.000  Cu
  Cu15     1.0000 0.49235  0.50765  0.55832  Biso   1.000  Cu
  Cu16     1.0000 0.68196  0.84098  0.89165  Biso   1.000  Cu
  Cu17     1.0000 0.34863  0.17431  0.22498  Biso   1.000  Cu
  Cu18     1.0000 0.01529  0.50765  0.55832  Biso   1.000  Cu
  O73      1.0000 0.09784  0.19567  0.21070  Biso   1.000  O
  C325     1.0000 0.15634  0.31267  0.31620  Biso   1.000  C
  C326     1.0000 0.11716  0.23432  0.24550  Biso   1.000  C
  C327     1.0000 0.07865  0.15730  0.24950  Biso   1.000  C
  H217     1.0000 0.06555  0.13110  0.22250  Biso   1.000  H
  O74      1.0000 0.76450  0.52900  0.54403  Biso   1.000  O
  C328     1.0000 0.82300  0.64600  0.64953  Biso   1.000  C
  C329     1.0000 0.78383  0.56765  0.57883  Biso   1.000  C
  C330     1.0000 0.74532  0.49063  0.58283  Biso   1.000  C
  H218     1.0000 0.73222  0.46443  0.55583  Biso   1.000  H
  O75      1.0000 0.43117  0.86234  0.87737  Biso   1.000  O
  C331     1.0000 0.48967  0.97934  0.98287  Biso   1.000  C
  C332     1.0000 0.45049  0.90099  0.91217  Biso   1.000  C
  C333     1.0000 0.41198  0.82397  0.91617  Biso   1.000  C
  H219     1.0000 0.39888  0.79777  0.88917  Biso   1.000  H
  O76      1.0000 0.80433  0.90216  0.21070  Biso   1.000  O
  C334     1.0000 0.68733  0.84366  0.31620  Biso   1.000  C
  C335     1.0000 0.76568  0.88284  0.24550  Biso   1.000  C
  C336     1.0000 0.84270  0.92135  0.24950  Biso   1.000  C
  H220     1.0000 0.86890  0.93445  0.22250  Biso   1.000  H
  O77      1.0000 0.47100  0.23550  0.54403  Biso   1.000  O
  C337     1.0000 0.35400  0.17700  0.64953  Biso   1.000  C
  C338     1.0000 0.43235  0.21617  0.57883  Biso   1.000  C
  C339     1.0000 0.50937  0.25468  0.58283  Biso   1.000  C
  H221     1.0000 0.53557  0.26778  0.55583  Biso   1.000  H
  O78      1.0000 0.13766  0.56883  0.87737  Biso   1.000  O
  C340     1.0000 0.02066  0.51033  0.98287  Biso   1.000  C
  C341     1.0000 0.09901  0.54951  0.91217  Biso   1.000  C
  C342     1.0000 0.17603  0.58802  0.91617  Biso   1.000  C
  H222     1.0000 0.20223  0.60112  0.88917  Biso   1.000  H
  O79      1.0000 0.09784  0.90216  0.21070  Biso   1.000  O
  C343     1.0000 0.15634  0.84366  0.31620  Biso   1.000  C
  C344     1.0000 0.11716  0.88284  0.24550  Biso   1.000  C
  C345     1.0000 0.07865  0.92135  0.24950  Biso   1.000  C
  H223     1.0000 0.06555  0.93445  0.22250  Biso   1.000  H
  O80      1.0000 0.76450  0.23550  0.54403  Biso   1.000  O
  C346     1.0000 0.82300  0.17700  0.64953  Biso   1.000  C
  C347     1.0000 0.78383  0.21617  0.57883  Biso   1.000  C
  C348     1.0000 0.74532  0.25468  0.58283  Biso   1.000  C
  H224     1.0000 0.73222  0.26778  0.55583  Biso   1.000  H
  O81      1.0000 0.43117  0.56883  0.87737  Biso   1.000  O
  C349     1.0000 0.48967  0.51033  0.98287  Biso   1.000  C
  C350     1.0000 0.45049  0.54951  0.91217  Biso   1.000  C
  C351     1.0000 0.41198  0.58802  0.91617  Biso   1.000  C
  H225     1.0000 0.39888  0.60112  0.88917  Biso   1.000  H
  O82      1.0000 0.19567  0.09784  0.78930  Biso   1.000  O
  C352     1.0000 0.31267  0.15634  0.68380  Biso   1.000  C
  C353     1.0000 0.23432  0.11716  0.75450  Biso   1.000  C
  C354     1.0000 0.15730  0.07865  0.75050  Biso   1.000  C
  H226     1.0000 0.13110  0.06555  0.77750  Biso   1.000  H
  O83      1.0000 0.86234  0.43117  0.12263  Biso   1.000  O
  C355     1.0000 0.97934  0.48967  0.01713  Biso   1.000  C
  C356     1.0000 0.90099  0.45049  0.08783  Biso   1.000  C
  C357     1.0000 0.82397  0.41198  0.08383  Biso   1.000  C
  H227     1.0000 0.79777  0.39888  0.11083  Biso   1.000  H
  O84      1.0000 0.52900  0.76450  0.45597  Biso   1.000  O
  C358     1.0000 0.64600  0.82300  0.35047  Biso   1.000  C
  C359     1.0000 0.56765  0.78383  0.42117  Biso   1.000  C
  C360     1.0000 0.49063  0.74532  0.41717  Biso   1.000  C
  H228     1.0000 0.46443  0.73222  0.44417  Biso   1.000  H
  O85      1.0000 0.90216  0.80433  0.78930  Biso   1.000  O
  C361     1.0000 0.84366  0.68733  0.68380  Biso   1.000  C
  C362     1.0000 0.88284  0.76568  0.75450  Biso   1.000  C
  C363     1.0000 0.92135  0.84270  0.75050  Biso   1.000  C
  H229     1.0000 0.93445  0.86890  0.77750  Biso   1.000  H
  O86      1.0000 0.56883  0.13766  0.12263  Biso   1.000  O
  C364     1.0000 0.51033  0.02066  0.01713  Biso   1.000  C
  C365     1.0000 0.54951  0.09901  0.08783  Biso   1.000  C
  C366     1.0000 0.58802  0.17603  0.08383  Biso   1.000  C
  H230     1.0000 0.60112  0.20223  0.11083  Biso   1.000  H
  O87      1.0000 0.23550  0.47100  0.45597  Biso   1.000  O
  C367     1.0000 0.17700  0.35400  0.35047  Biso   1.000  C
  C368     1.0000 0.21617  0.43235  0.42117  Biso   1.000  C
  C369     1.0000 0.25468  0.50937  0.41717  Biso   1.000  C
  H231     1.0000 0.26778  0.53557  0.44417  Biso   1.000  H
  O88      1.0000 0.90216  0.09784  0.78930  Biso   1.000  O
  C370     1.0000 0.84366  0.15634  0.68380  Biso   1.000  C
  C371     1.0000 0.88284  0.11716  0.75450  Biso   1.000  C
  C372     1.0000 0.92135  0.07865  0.75050  Biso   1.000  C
  H232     1.0000 0.93445  0.06555  0.77750  Biso   1.000  H
  O89      1.0000 0.56883  0.43117  0.12263  Biso   1.000  O
  C373     1.0000 0.51033  0.48967  0.01713  Biso   1.000  C
  C374     1.0000 0.54951  0.45049  0.08783  Biso   1.000  C
  C375     1.0000 0.58802  0.41198  0.08383  Biso   1.000  C
  H233     1.0000 0.60112  0.39888  0.11083  Biso   1.000  H
  O90      1.0000 0.23550  0.76450  0.45597  Biso   1.000  O
  C376     1.0000 0.17700  0.82300  0.35047  Biso   1.000  C
  C377     1.0000 0.21617  0.78383  0.42117  Biso   1.000  C
  C378     1.0000 0.25468  0.74532  0.41717  Biso   1.000  C
  H234     1.0000 0.26778  0.73222  0.44417  Biso   1.000  H
