data_image0
_cell_length_a       35.063
_cell_length_b       35.063
_cell_length_c       22.593
_cell_angle_alpha    90
_cell_angle_beta     90
_cell_angle_gamma    120

_symmetry_space_group_name_H-M    "P 1"
_symmetry_int_tables_number       1

loop_
  _symmetry_equiv_pos_as_xyz
  'x, y, z'

loop_
  _atom_site_label
  _atom_site_occupancy
  _atom_site_fract_x
  _atom_site_fract_y
  _atom_site_fract_z
  _atom_site_thermal_displace_type
  _atom_site_B_iso_or_equiv
  _atom_site_type_symbol
  O1       1.0000 0.55336  0.02788  0.06720  Biso   1.000  O
  O2       1.0000 0.56734  0.05638  0.97730  Biso   1.000  O
  C1       1.0000 0.57827  0.05370  0.02810  Biso   1.000  C
  C2       1.0000 0.62500  0.08464  0.04570  Biso   1.000  C
  C3       1.0000 0.65571  0.11309  0.00510  Biso   1.000  C
  H1       1.0000 0.64800  0.11290  0.96570  Biso   1.000  H
  C4       1.0000 0.69862  0.14211  0.02460  Biso   1.000  C
  H2       1.0000 0.71830  0.16260  0.99770  Biso   1.000  H
  C5       1.0000 0.71283  0.14227  0.07790  Biso   1.000  C
  C6       1.0000 0.68153  0.11378  0.12000  Biso   1.000  C
  H3       1.0000 0.68920  0.11400  0.15950  Biso   1.000  H
  C7       1.0000 0.63843  0.08515  0.10000  Biso   1.000  C
  H4       1.0000 0.61820  0.06530  0.12700  Biso   1.000  H
  C8       1.0000 0.75972  0.17055  0.09630  Biso   1.000  C
  C9       1.0000 0.77947  0.15251  0.13100  Biso   1.000  C
  H5       1.0000 0.76310  0.12300  0.14170  Biso   1.000  H
  H6       1.0000 0.74170  0.30300  0.02910  Biso   1.000  H
  H7       1.0000 0.70980  0.24550  0.12880  Biso   1.000  H
  O3       1.0000 0.22003  0.36121  0.40053  Biso   1.000  O
  O4       1.0000 0.23401  0.38971  0.31063  Biso   1.000  O
  C10      1.0000 0.24494  0.38703  0.36143  Biso   1.000  C
  C11      1.0000 0.29167  0.41797  0.37903  Biso   1.000  C
  C12      1.0000 0.32238  0.44642  0.33843  Biso   1.000  C
  H8       1.0000 0.31467  0.44623  0.29903  Biso   1.000  H
  C13      1.0000 0.36529  0.47544  0.35793  Biso   1.000  C
  H9       1.0000 0.38497  0.49593  0.33103  Biso   1.000  H
  C14      1.0000 0.37950  0.47560  0.41123  Biso   1.000  C
  C15      1.0000 0.34820  0.44711  0.45333  Biso   1.000  C
  H10      1.0000 0.35587  0.44733  0.49283  Biso   1.000  H
  C16      1.0000 0.30510  0.41848  0.43333  Biso   1.000  C
  H11      1.0000 0.28487  0.39863  0.46033  Biso   1.000  H
  C17      1.0000 0.42639  0.50388  0.42963  Biso   1.000  C
  C18      1.0000 0.44614  0.48584  0.46433  Biso   1.000  C
  H12      1.0000 0.42977  0.45633  0.47503  Biso   1.000  H
  H13      1.0000 0.40837  0.63633  0.36243  Biso   1.000  H
  H14      1.0000 0.37647  0.57883  0.46213  Biso   1.000  H
  O5       1.0000 0.88669  0.69455  0.73387  Biso   1.000  O
  O6       1.0000 0.90067  0.72305  0.64397  Biso   1.000  O
  C19      1.0000 0.91160  0.72037  0.69477  Biso   1.000  C
  C20      1.0000 0.95833  0.75131  0.71237  Biso   1.000  C
  C21      1.0000 0.98904  0.77976  0.67177  Biso   1.000  C
  H15      1.0000 0.98133  0.77957  0.63237  Biso   1.000  H
  C22      1.0000 0.03195  0.80878  0.69127  Biso   1.000  C
  H16      1.0000 0.05163  0.82927  0.66437  Biso   1.000  H
  C23      1.0000 0.04616  0.80894  0.74457  Biso   1.000  C
  C24      1.0000 0.01486  0.78045  0.78667  Biso   1.000  C
  H17      1.0000 0.02253  0.78067  0.82617  Biso   1.000  H
  C25      1.0000 0.97176  0.75182  0.76667  Biso   1.000  C
  H18      1.0000 0.95153  0.73197  0.79367  Biso   1.000  H
  C26      1.0000 0.09305  0.83722  0.76297  Biso   1.000  C
  C27      1.0000 0.11280  0.81918  0.79767  Biso   1.000  C
  H19      1.0000 0.09643  0.78967  0.80837  Biso   1.000  H
  H20      1.0000 0.07503  0.96967  0.69577  Biso   1.000  H
  H21      1.0000 0.04313  0.91217  0.79547  Biso   1.000  H
  O7       1.0000 0.97212  0.52548  0.06720  Biso   1.000  O
  O8       1.0000 0.94362  0.51096  0.97730  Biso   1.000  O
  C28      1.0000 0.94630  0.52457  0.02810  Biso   1.000  C
  C29      1.0000 0.91536  0.54036  0.04570  Biso   1.000  C
  C30      1.0000 0.88691  0.54262  0.00510  Biso   1.000  C
  H22      1.0000 0.88710  0.53510  0.96570  Biso   1.000  H
  C31      1.0000 0.85789  0.55651  0.02460  Biso   1.000  C
  H23      1.0000 0.83740  0.55570  0.99770  Biso   1.000  H
  C32      1.0000 0.85773  0.57056  0.07790  Biso   1.000  C
  C33      1.0000 0.88622  0.56775  0.12000  Biso   1.000  C
  H24      1.0000 0.88600  0.57520  0.15950  Biso   1.000  H
  C34      1.0000 0.91485  0.55328  0.10000  Biso   1.000  C
  H25      1.0000 0.93470  0.55290  0.12700  Biso   1.000  H
  C35      1.0000 0.82945  0.58917  0.09630  Biso   1.000  C
  C36      1.0000 0.84749  0.62696  0.13100  Biso   1.000  C
  H26      1.0000 0.87700  0.64010  0.14170  Biso   1.000  H
  H27      1.0000 0.69700  0.43870  0.02910  Biso   1.000  H
  H28      1.0000 0.75450  0.46430  0.12880  Biso   1.000  H
  O9       1.0000 0.63879  0.85881  0.40053  Biso   1.000  O
  O10      1.0000 0.61029  0.84429  0.31063  Biso   1.000  O
  C37      1.0000 0.61297  0.85790  0.36143  Biso   1.000  C
  C38      1.0000 0.58203  0.87369  0.37903  Biso   1.000  C
  C39      1.0000 0.55358  0.87595  0.33843  Biso   1.000  C
  H29      1.0000 0.55377  0.86843  0.29903  Biso   1.000  H
  C40      1.0000 0.52456  0.88984  0.35793  Biso   1.000  C
  H30      1.0000 0.50407  0.88903  0.33103  Biso   1.000  H
  C41      1.0000 0.52440  0.90389  0.41123  Biso   1.000  C
  C42      1.0000 0.55289  0.90108  0.45333  Biso   1.000  C
  H31      1.0000 0.55267  0.90853  0.49283  Biso   1.000  H
  C43      1.0000 0.58152  0.88661  0.43333  Biso   1.000  C
  H32      1.0000 0.60137  0.88623  0.46033  Biso   1.000  H
  C44      1.0000 0.49612  0.92250  0.42963  Biso   1.000  C
  C45      1.0000 0.51416  0.96029  0.46433  Biso   1.000  C
  H33      1.0000 0.54367  0.97343  0.47503  Biso   1.000  H
  H34      1.0000 0.36367  0.77203  0.36243  Biso   1.000  H
  H35      1.0000 0.42117  0.79763  0.46213  Biso   1.000  H
  O11      1.0000 0.30545  0.19215  0.73387  Biso   1.000  O
  O12      1.0000 0.27695  0.17763  0.64397  Biso   1.000  O
  C46      1.0000 0.27963  0.19124  0.69477  Biso   1.000  C
  C47      1.0000 0.24869  0.20703  0.71237  Biso   1.000  C
  C48      1.0000 0.22024  0.20929  0.67177  Biso   1.000  C
  H36      1.0000 0.22043  0.20177  0.63237  Biso   1.000  H
  C49      1.0000 0.19122  0.22318  0.69127  Biso   1.000  C
  H37      1.0000 0.17073  0.22237  0.66437  Biso   1.000  H
  C50      1.0000 0.19106  0.23723  0.74457  Biso   1.000  C
  C51      1.0000 0.21955  0.23442  0.78667  Biso   1.000  C
  H38      1.0000 0.21933  0.24187  0.82617  Biso   1.000  H
  C52      1.0000 0.24818  0.21995  0.76667  Biso   1.000  C
  H39      1.0000 0.26803  0.21957  0.79367  Biso   1.000  H
  C53      1.0000 0.16278  0.25584  0.76297  Biso   1.000  C
  C54      1.0000 0.18082  0.29363  0.79767  Biso   1.000  C
  H40      1.0000 0.21033  0.30677  0.80837  Biso   1.000  H
  H41      1.0000 0.03033  0.10537  0.69577  Biso   1.000  H
  H42      1.0000 0.08783  0.13097  0.79547  Biso   1.000  H
  O13      1.0000 0.47452  0.44664  0.06720  Biso   1.000  O
  O14      1.0000 0.48904  0.43266  0.97730  Biso   1.000  O
  C55      1.0000 0.47543  0.42173  0.02810  Biso   1.000  C
  C56      1.0000 0.45964  0.37500  0.04570  Biso   1.000  C
  C57      1.0000 0.45738  0.34429  0.00510  Biso   1.000  C
  H43      1.0000 0.46490  0.35200  0.96570  Biso   1.000  H
  C58      1.0000 0.44349  0.30138  0.02460  Biso   1.000  C
  H44      1.0000 0.44430  0.28170  0.99770  Biso   1.000  H
  C59      1.0000 0.42944  0.28717  0.07790  Biso   1.000  C
  C60      1.0000 0.43225  0.31847  0.12000  Biso   1.000  C
  H45      1.0000 0.42480  0.31080  0.15950  Biso   1.000  H
  C61      1.0000 0.44672  0.36157  0.10000  Biso   1.000  C
  H46      1.0000 0.44710  0.38180  0.12700  Biso   1.000  H
  C62      1.0000 0.41083  0.24028  0.09630  Biso   1.000  C
  C63      1.0000 0.37304  0.22053  0.13100  Biso   1.000  C
  H47      1.0000 0.35990  0.23690  0.14170  Biso   1.000  H
  H48      1.0000 0.56130  0.25830  0.02910  Biso   1.000  H
  H49      1.0000 0.53570  0.29020  0.12880  Biso   1.000  H
  O15      1.0000 0.14119  0.77997  0.40053  Biso   1.000  O
  O16      1.0000 0.15571  0.76599  0.31063  Biso   1.000  O
  C64      1.0000 0.14210  0.75506  0.36143  Biso   1.000  C
  C65      1.0000 0.12631  0.70833  0.37903  Biso   1.000  C
  C66      1.0000 0.12405  0.67762  0.33843  Biso   1.000  C
  H50      1.0000 0.13157  0.68533  0.29903  Biso   1.000  H
  C67      1.0000 0.11016  0.63471  0.35793  Biso   1.000  C
  H51      1.0000 0.11097  0.61503  0.33103  Biso   1.000  H
  C68      1.0000 0.09611  0.62050  0.41123  Biso   1.000  C
  C69      1.0000 0.09892  0.65180  0.45333  Biso   1.000  C
  H52      1.0000 0.09147  0.64413  0.49283  Biso   1.000  H
  C70      1.0000 0.11339  0.69490  0.43333  Biso   1.000  C
  H53      1.0000 0.11377  0.71513  0.46033  Biso   1.000  H
  C71      1.0000 0.07750  0.57361  0.42963  Biso   1.000  C
  C72      1.0000 0.03971  0.55386  0.46433  Biso   1.000  C
  H54      1.0000 0.02657  0.57023  0.47503  Biso   1.000  H
  H55      1.0000 0.22797  0.59163  0.36243  Biso   1.000  H
  H56      1.0000 0.20237  0.62353  0.46213  Biso   1.000  H
  O17      1.0000 0.80785  0.11331  0.73387  Biso   1.000  O
  O18      1.0000 0.82237  0.09933  0.64397  Biso   1.000  O
  C73      1.0000 0.80876  0.08840  0.69477  Biso   1.000  C
  C74      1.0000 0.79297  0.04167  0.71237  Biso   1.000  C
  C75      1.0000 0.79071  0.01096  0.67177  Biso   1.000  C
  H57      1.0000 0.79823  0.01867  0.63237  Biso   1.000  H
  C76      1.0000 0.77682  0.96805  0.69127  Biso   1.000  C
  H58      1.0000 0.77763  0.94837  0.66437  Biso   1.000  H
  C77      1.0000 0.76277  0.95384  0.74457  Biso   1.000  C
  C78      1.0000 0.76558  0.98514  0.78667  Biso   1.000  C
  H59      1.0000 0.75813  0.97747  0.82617  Biso   1.000  H
  C79      1.0000 0.78005  0.02824  0.76667  Biso   1.000  C
  H60      1.0000 0.78043  0.04847  0.79367  Biso   1.000  H
  C80      1.0000 0.74416  0.90695  0.76297  Biso   1.000  C
  C81      1.0000 0.70637  0.88720  0.79767  Biso   1.000  C
  H61      1.0000 0.69323  0.90357  0.80837  Biso   1.000  H
  H62      1.0000 0.89463  0.92497  0.69577  Biso   1.000  H
  H63      1.0000 0.86903  0.95687  0.79547  Biso   1.000  H
  O19      1.0000 0.02788  0.55336  0.93280  Biso   1.000  O
  O20      1.0000 0.05638  0.56734  0.02270  Biso   1.000  O
  C82      1.0000 0.05370  0.57827  0.97190  Biso   1.000  C
  C83      1.0000 0.08464  0.62500  0.95430  Biso   1.000  C
  C84      1.0000 0.11309  0.65571  0.99490  Biso   1.000  C
  H64      1.0000 0.11290  0.64800  0.03430  Biso   1.000  H
  C85      1.0000 0.14211  0.69862  0.97540  Biso   1.000  C
  H65      1.0000 0.16260  0.71830  0.00230  Biso   1.000  H
  C86      1.0000 0.14227  0.71283  0.92210  Biso   1.000  C
  C87      1.0000 0.11378  0.68153  0.88000  Biso   1.000  C
  H66      1.0000 0.11400  0.68920  0.84050  Biso   1.000  H
  C88      1.0000 0.08515  0.63843  0.90000  Biso   1.000  C
  H67      1.0000 0.06530  0.61820  0.87300  Biso   1.000  H
  C89      1.0000 0.17055  0.75972  0.90370  Biso   1.000  C
  C90      1.0000 0.15251  0.77947  0.86900  Biso   1.000  C
  H68      1.0000 0.12300  0.76310  0.85830  Biso   1.000  H
  H69      1.0000 0.30300  0.74170  0.97090  Biso   1.000  H
  H70      1.0000 0.24550  0.70980  0.87120  Biso   1.000  H
  O21      1.0000 0.69455  0.88669  0.26613  Biso   1.000  O
  O22      1.0000 0.72305  0.90067  0.35603  Biso   1.000  O
  C91      1.0000 0.72037  0.91160  0.30523  Biso   1.000  C
  C92      1.0000 0.75131  0.95833  0.28763  Biso   1.000  C
  C93      1.0000 0.77976  0.98904  0.32823  Biso   1.000  C
  H71      1.0000 0.77957  0.98133  0.36763  Biso   1.000  H
  C94      1.0000 0.80878  0.03195  0.30873  Biso   1.000  C
  H72      1.0000 0.82927  0.05163  0.33563  Biso   1.000  H
  C95      1.0000 0.80894  0.04616  0.25543  Biso   1.000  C
  C96      1.0000 0.78045  0.01486  0.21333  Biso   1.000  C
  H73      1.0000 0.78067  0.02253  0.17383  Biso   1.000  H
  C97      1.0000 0.75182  0.97176  0.23333  Biso   1.000  C
  H74      1.0000 0.73197  0.95153  0.20633  Biso   1.000  H
  C98      1.0000 0.83722  0.09305  0.23703  Biso   1.000  C
  C99      1.0000 0.81918  0.11280  0.20233  Biso   1.000  C
  H75      1.0000 0.78967  0.09643  0.19163  Biso   1.000  H
  H76      1.0000 0.96967  0.07503  0.30423  Biso   1.000  H
  H77      1.0000 0.91217  0.04313  0.20453  Biso   1.000  H
  O23      1.0000 0.36121  0.22003  0.59947  Biso   1.000  O
  O24      1.0000 0.38971  0.23401  0.68937  Biso   1.000  O
  C100     1.0000 0.38703  0.24494  0.63857  Biso   1.000  C
  C101     1.0000 0.41797  0.29167  0.62097  Biso   1.000  C
  C102     1.0000 0.44642  0.32238  0.66157  Biso   1.000  C
  H78      1.0000 0.44623  0.31467  0.70097  Biso   1.000  H
  C103     1.0000 0.47544  0.36529  0.64207  Biso   1.000  C
  H79      1.0000 0.49593  0.38497  0.66897  Biso   1.000  H
  C104     1.0000 0.47560  0.37950  0.58877  Biso   1.000  C
  C105     1.0000 0.44711  0.34820  0.54667  Biso   1.000  C
  H80      1.0000 0.44733  0.35587  0.50717  Biso   1.000  H
  C106     1.0000 0.41848  0.30510  0.56667  Biso   1.000  C
  H81      1.0000 0.39863  0.28487  0.53967  Biso   1.000  H
  C107     1.0000 0.50388  0.42639  0.57037  Biso   1.000  C
  C108     1.0000 0.48584  0.44614  0.53567  Biso   1.000  C
  H82      1.0000 0.45633  0.42977  0.52497  Biso   1.000  H
  H83      1.0000 0.63633  0.40837  0.63757  Biso   1.000  H
  H84      1.0000 0.57883  0.37647  0.53787  Biso   1.000  H
  O25      1.0000 0.52548  0.97212  0.93280  Biso   1.000  O
  O26      1.0000 0.51096  0.94362  0.02270  Biso   1.000  O
  C109     1.0000 0.52457  0.94630  0.97190  Biso   1.000  C
  C110     1.0000 0.54036  0.91536  0.95430  Biso   1.000  C
  C111     1.0000 0.54262  0.88691  0.99490  Biso   1.000  C
  H85      1.0000 0.53510  0.88710  0.03430  Biso   1.000  H
  C112     1.0000 0.55651  0.85789  0.97540  Biso   1.000  C
  H86      1.0000 0.55570  0.83740  0.00230  Biso   1.000  H
  C113     1.0000 0.57056  0.85773  0.92210  Biso   1.000  C
  C114     1.0000 0.56775  0.88622  0.88000  Biso   1.000  C
  H87      1.0000 0.57520  0.88600  0.84050  Biso   1.000  H
  C115     1.0000 0.55328  0.91485  0.90000  Biso   1.000  C
  H88      1.0000 0.55290  0.93470  0.87300  Biso   1.000  H
  C116     1.0000 0.58917  0.82945  0.90370  Biso   1.000  C
  C117     1.0000 0.62696  0.84749  0.86900  Biso   1.000  C
  H89      1.0000 0.64010  0.87700  0.85830  Biso   1.000  H
  H90      1.0000 0.43870  0.69700  0.97090  Biso   1.000  H
  H91      1.0000 0.46430  0.75450  0.87120  Biso   1.000  H
  O27      1.0000 0.19215  0.30545  0.26613  Biso   1.000  O
  O28      1.0000 0.17763  0.27695  0.35603  Biso   1.000  O
  C118     1.0000 0.19124  0.27963  0.30523  Biso   1.000  C
  C119     1.0000 0.20703  0.24869  0.28763  Biso   1.000  C
  C120     1.0000 0.20929  0.22024  0.32823  Biso   1.000  C
  H92      1.0000 0.20177  0.22043  0.36763  Biso   1.000  H
  C121     1.0000 0.22318  0.19122  0.30873  Biso   1.000  C
  H93      1.0000 0.22237  0.17073  0.33563  Biso   1.000  H
  C122     1.0000 0.23723  0.19106  0.25543  Biso   1.000  C
  C123     1.0000 0.23442  0.21955  0.21333  Biso   1.000  C
  H94      1.0000 0.24187  0.21933  0.17383  Biso   1.000  H
  C124     1.0000 0.21995  0.24818  0.23333  Biso   1.000  C
  H95      1.0000 0.21957  0.26803  0.20633  Biso   1.000  H
  C125     1.0000 0.25584  0.16278  0.23703  Biso   1.000  C
  C126     1.0000 0.29363  0.18082  0.20233  Biso   1.000  C
  H96      1.0000 0.30677  0.21033  0.19163  Biso   1.000  H
  H97      1.0000 0.10537  0.03033  0.30423  Biso   1.000  H
  H98      1.0000 0.13097  0.08783  0.20453  Biso   1.000  H
  O29      1.0000 0.85881  0.63879  0.59947  Biso   1.000  O
  O30      1.0000 0.84429  0.61029  0.68937  Biso   1.000  O
  C127     1.0000 0.85790  0.61297  0.63857  Biso   1.000  C
  C128     1.0000 0.87369  0.58203  0.62097  Biso   1.000  C
  C129     1.0000 0.87595  0.55358  0.66157  Biso   1.000  C
  H99      1.0000 0.86843  0.55377  0.70097  Biso   1.000  H
  C130     1.0000 0.88984  0.52456  0.64207  Biso   1.000  C
  H100     1.0000 0.88903  0.50407  0.66897  Biso   1.000  H
  C131     1.0000 0.90389  0.52440  0.58877  Biso   1.000  C
  C132     1.0000 0.90108  0.55289  0.54667  Biso   1.000  C
  H101     1.0000 0.90853  0.55267  0.50717  Biso   1.000  H
  C133     1.0000 0.88661  0.58152  0.56667  Biso   1.000  C
  H102     1.0000 0.88623  0.60137  0.53967  Biso   1.000  H
  C134     1.0000 0.92250  0.49612  0.57037  Biso   1.000  C
  C135     1.0000 0.96029  0.51416  0.53567  Biso   1.000  C
  H103     1.0000 0.97343  0.54367  0.52497  Biso   1.000  H
  H104     1.0000 0.77203  0.36367  0.63757  Biso   1.000  H
  H105     1.0000 0.79763  0.42117  0.53787  Biso   1.000  H
  O31      1.0000 0.44664  0.47452  0.93280  Biso   1.000  O
  O32      1.0000 0.43266  0.48904  0.02270  Biso   1.000  O
  C136     1.0000 0.42173  0.47543  0.97190  Biso   1.000  C
  C137     1.0000 0.37500  0.45964  0.95430  Biso   1.000  C
  C138     1.0000 0.34429  0.45738  0.99490  Biso   1.000  C
  H106     1.0000 0.35200  0.46490  0.03430  Biso   1.000  H
  C139     1.0000 0.30138  0.44349  0.97540  Biso   1.000  C
  H107     1.0000 0.28170  0.44430  0.00230  Biso   1.000  H
  C140     1.0000 0.28717  0.42944  0.92210  Biso   1.000  C
  C141     1.0000 0.31847  0.43225  0.88000  Biso   1.000  C
  H108     1.0000 0.31080  0.42480  0.84050  Biso   1.000  H
  C142     1.0000 0.36157  0.44672  0.90000  Biso   1.000  C
  H109     1.0000 0.38180  0.44710  0.87300  Biso   1.000  H
  C143     1.0000 0.24028  0.41083  0.90370  Biso   1.000  C
  C144     1.0000 0.22053  0.37304  0.86900  Biso   1.000  C
  H110     1.0000 0.23690  0.35990  0.85830  Biso   1.000  H
  H111     1.0000 0.25830  0.56130  0.97090  Biso   1.000  H
  H112     1.0000 0.29020  0.53570  0.87120  Biso   1.000  H
  O33      1.0000 0.11331  0.80785  0.26613  Biso   1.000  O
  O34      1.0000 0.09933  0.82237  0.35603  Biso   1.000  O
  C145     1.0000 0.08840  0.80876  0.30523  Biso   1.000  C
  C146     1.0000 0.04167  0.79297  0.28763  Biso   1.000  C
  C147     1.0000 0.01096  0.79071  0.32823  Biso   1.000  C
  H113     1.0000 0.01867  0.79823  0.36763  Biso   1.000  H
  C148     1.0000 0.96805  0.77682  0.30873  Biso   1.000  C
  H114     1.0000 0.94837  0.77763  0.33563  Biso   1.000  H
  C149     1.0000 0.95384  0.76277  0.25543  Biso   1.000  C
  C150     1.0000 0.98514  0.76558  0.21333  Biso   1.000  C
  H115     1.0000 0.97747  0.75813  0.17383  Biso   1.000  H
  C151     1.0000 0.02824  0.78005  0.23333  Biso   1.000  C
  H116     1.0000 0.04847  0.78043  0.20633  Biso   1.000  H
  C152     1.0000 0.90695  0.74416  0.23703  Biso   1.000  C
  C153     1.0000 0.88720  0.70637  0.20233  Biso   1.000  C
  H117     1.0000 0.90357  0.69323  0.19163  Biso   1.000  H
  H118     1.0000 0.92497  0.89463  0.30423  Biso   1.000  H
  H119     1.0000 0.95687  0.86903  0.20453  Biso   1.000  H
  O35      1.0000 0.77997  0.14119  0.59947  Biso   1.000  O
  O36      1.0000 0.76599  0.15571  0.68937  Biso   1.000  O
  C154     1.0000 0.75506  0.14210  0.63857  Biso   1.000  C
  C155     1.0000 0.70833  0.12631  0.62097  Biso   1.000  C
  C156     1.0000 0.67762  0.12405  0.66157  Biso   1.000  C
  H120     1.0000 0.68533  0.13157  0.70097  Biso   1.000  H
  C157     1.0000 0.63471  0.11016  0.64207  Biso   1.000  C
  H121     1.0000 0.61503  0.11097  0.66897  Biso   1.000  H
  C158     1.0000 0.62050  0.09611  0.58877  Biso   1.000  C
  C159     1.0000 0.65180  0.09892  0.54667  Biso   1.000  C
  H122     1.0000 0.64413  0.09147  0.50717  Biso   1.000  H
  C160     1.0000 0.69490  0.11339  0.56667  Biso   1.000  C
  H123     1.0000 0.71513  0.11377  0.53967  Biso   1.000  H
  C161     1.0000 0.57361  0.07750  0.57037  Biso   1.000  C
  C162     1.0000 0.55386  0.03971  0.53567  Biso   1.000  C
  H124     1.0000 0.57023  0.02657  0.52497  Biso   1.000  H
  H125     1.0000 0.59163  0.22797  0.63757  Biso   1.000  H
  H126     1.0000 0.62353  0.20237  0.53787  Biso   1.000  H
  O37      1.0000 0.44664  0.97212  0.93280  Biso   1.000  O
  O38      1.0000 0.43266  0.94362  0.02270  Biso   1.000  O
  C163     1.0000 0.42173  0.94630  0.97190  Biso   1.000  C
  C164     1.0000 0.37500  0.91536  0.95430  Biso   1.000  C
  C165     1.0000 0.34429  0.88691  0.99490  Biso   1.000  C
  H127     1.0000 0.35200  0.88710  0.03430  Biso   1.000  H
  C166     1.0000 0.30138  0.85789  0.97540  Biso   1.000  C
  H128     1.0000 0.28170  0.83740  0.00230  Biso   1.000  H
  C167     1.0000 0.28717  0.85773  0.92210  Biso   1.000  C
  C168     1.0000 0.31847  0.88622  0.88000  Biso   1.000  C
  H129     1.0000 0.31080  0.88600  0.84050  Biso   1.000  H
  C169     1.0000 0.36157  0.91485  0.90000  Biso   1.000  C
  H130     1.0000 0.38180  0.93470  0.87300  Biso   1.000  H
  C170     1.0000 0.24028  0.82945  0.90370  Biso   1.000  C
  C171     1.0000 0.22053  0.84749  0.86900  Biso   1.000  C
  H131     1.0000 0.23690  0.87700  0.85830  Biso   1.000  H
  H132     1.0000 0.25830  0.69700  0.97090  Biso   1.000  H
  H133     1.0000 0.29020  0.75450  0.87120  Biso   1.000  H
  O39      1.0000 0.11331  0.30545  0.26613  Biso   1.000  O
  O40      1.0000 0.09933  0.27695  0.35603  Biso   1.000  O
  C172     1.0000 0.08840  0.27963  0.30523  Biso   1.000  C
  C173     1.0000 0.04167  0.24869  0.28763  Biso   1.000  C
  C174     1.0000 0.01096  0.22024  0.32823  Biso   1.000  C
  H134     1.0000 0.01867  0.22043  0.36763  Biso   1.000  H
  C175     1.0000 0.96805  0.19122  0.30873  Biso   1.000  C
  H135     1.0000 0.94837  0.17073  0.33563  Biso   1.000  H
  C176     1.0000 0.95384  0.19106  0.25543  Biso   1.000  C
  C177     1.0000 0.98514  0.21955  0.21333  Biso   1.000  C
  H136     1.0000 0.97747  0.21933  0.17383  Biso   1.000  H
  C178     1.0000 0.02824  0.24818  0.23333  Biso   1.000  C
  H137     1.0000 0.04847  0.26803  0.20633  Biso   1.000  H
  C179     1.0000 0.90695  0.16278  0.23703  Biso   1.000  C
  C180     1.0000 0.88720  0.18082  0.20233  Biso   1.000  C
  H138     1.0000 0.90357  0.21033  0.19163  Biso   1.000  H
  H139     1.0000 0.92497  0.03033  0.30423  Biso   1.000  H
  H140     1.0000 0.95687  0.08783  0.20453  Biso   1.000  H
  O41      1.0000 0.77997  0.63879  0.59947  Biso   1.000  O
  O42      1.0000 0.76599  0.61029  0.68937  Biso   1.000  O
  C181     1.0000 0.75506  0.61297  0.63857  Biso   1.000  C
  C182     1.0000 0.70833  0.58203  0.62097  Biso   1.000  C
  C183     1.0000 0.67762  0.55358  0.66157  Biso   1.000  C
  H141     1.0000 0.68533  0.55377  0.70097  Biso   1.000  H
  C184     1.0000 0.63471  0.52456  0.64207  Biso   1.000  C
  H142     1.0000 0.61503  0.50407  0.66897  Biso   1.000  H
  C185     1.0000 0.62050  0.52440  0.58877  Biso   1.000  C
  C186     1.0000 0.65180  0.55289  0.54667  Biso   1.000  C
  H143     1.0000 0.64413  0.55267  0.50717  Biso   1.000  H
  C187     1.0000 0.69490  0.58152  0.56667  Biso   1.000  C
  H144     1.0000 0.71513  0.60137  0.53967  Biso   1.000  H
  C188     1.0000 0.57361  0.49612  0.57037  Biso   1.000  C
  C189     1.0000 0.55386  0.51416  0.53567  Biso   1.000  C
  H145     1.0000 0.57023  0.54367  0.52497  Biso   1.000  H
  H146     1.0000 0.59163  0.36367  0.63757  Biso   1.000  H
  H147     1.0000 0.62353  0.42117  0.53787  Biso   1.000  H
  O43      1.0000 0.02788  0.47452  0.93280  Biso   1.000  O
  O44      1.0000 0.05638  0.48904  0.02270  Biso   1.000  O
  C190     1.0000 0.05370  0.47543  0.97190  Biso   1.000  C
  C191     1.0000 0.08464  0.45964  0.95430  Biso   1.000  C
  C192     1.0000 0.11309  0.45738  0.99490  Biso   1.000  C
  H148     1.0000 0.11290  0.46490  0.03430  Biso   1.000  H
  C193     1.0000 0.14211  0.44349  0.97540  Biso   1.000  C
  H149     1.0000 0.16260  0.44430  0.00230  Biso   1.000  H
  C194     1.0000 0.14227  0.42944  0.92210  Biso   1.000  C
  C195     1.0000 0.11378  0.43225  0.88000  Biso   1.000  C
  H150     1.0000 0.11400  0.42480  0.84050  Biso   1.000  H
  C196     1.0000 0.08515  0.44672  0.90000  Biso   1.000  C
  H151     1.0000 0.06530  0.44710  0.87300  Biso   1.000  H
  C197     1.0000 0.17055  0.41083  0.90370  Biso   1.000  C
  C198     1.0000 0.15251  0.37304  0.86900  Biso   1.000  C
  H152     1.0000 0.12300  0.35990  0.85830  Biso   1.000  H
  H153     1.0000 0.30300  0.56130  0.97090  Biso   1.000  H
  H154     1.0000 0.24550  0.53570  0.87120  Biso   1.000  H
  O45      1.0000 0.69455  0.80785  0.26613  Biso   1.000  O
  O46      1.0000 0.72305  0.82237  0.35603  Biso   1.000  O
  C199     1.0000 0.72037  0.80876  0.30523  Biso   1.000  C
  C200     1.0000 0.75131  0.79297  0.28763  Biso   1.000  C
  C201     1.0000 0.77976  0.79071  0.32823  Biso   1.000  C
  H155     1.0000 0.77957  0.79823  0.36763  Biso   1.000  H
  C202     1.0000 0.80878  0.77682  0.30873  Biso   1.000  C
  H156     1.0000 0.82927  0.77763  0.33563  Biso   1.000  H
  C203     1.0000 0.80894  0.76277  0.25543  Biso   1.000  C
  C204     1.0000 0.78045  0.76558  0.21333  Biso   1.000  C
  H157     1.0000 0.78067  0.75813  0.17383  Biso   1.000  H
  C205     1.0000 0.75182  0.78005  0.23333  Biso   1.000  C
  H158     1.0000 0.73197  0.78043  0.20633  Biso   1.000  H
  C206     1.0000 0.83722  0.74416  0.23703  Biso   1.000  C
  C207     1.0000 0.81918  0.70637  0.20233  Biso   1.000  C
  H159     1.0000 0.78967  0.69323  0.19163  Biso   1.000  H
  H160     1.0000 0.96967  0.89463  0.30423  Biso   1.000  H
  H161     1.0000 0.91217  0.86903  0.20453  Biso   1.000  H
  O47      1.0000 0.36121  0.14119  0.59947  Biso   1.000  O
  O48      1.0000 0.38971  0.15571  0.68937  Biso   1.000  O
  C208     1.0000 0.38703  0.14210  0.63857  Biso   1.000  C
  C209     1.0000 0.41797  0.12631  0.62097  Biso   1.000  C
  C210     1.0000 0.44642  0.12405  0.66157  Biso   1.000  C
  H162     1.0000 0.44623  0.13157  0.70097  Biso   1.000  H
  C211     1.0000 0.47544  0.11016  0.64207  Biso   1.000  C
  H163     1.0000 0.49593  0.11097  0.66897  Biso   1.000  H
  C212     1.0000 0.47560  0.09611  0.58877  Biso   1.000  C
  C213     1.0000 0.44711  0.09892  0.54667  Biso   1.000  C
  H164     1.0000 0.44733  0.09147  0.50717  Biso   1.000  H
  C214     1.0000 0.41848  0.11339  0.56667  Biso   1.000  C
  H165     1.0000 0.39863  0.11377  0.53967  Biso   1.000  H
  C215     1.0000 0.50388  0.07750  0.57037  Biso   1.000  C
  C216     1.0000 0.48584  0.03971  0.53567  Biso   1.000  C
  H166     1.0000 0.45633  0.02657  0.52497  Biso   1.000  H
  H167     1.0000 0.63633  0.22797  0.63757  Biso   1.000  H
  H168     1.0000 0.57883  0.20237  0.53787  Biso   1.000  H
  O49      1.0000 0.52548  0.55336  0.93280  Biso   1.000  O
  O50      1.0000 0.51096  0.56734  0.02270  Biso   1.000  O
  C217     1.0000 0.52457  0.57827  0.97190  Biso   1.000  C
  C218     1.0000 0.54036  0.62500  0.95430  Biso   1.000  C
  C219     1.0000 0.54262  0.65571  0.99490  Biso   1.000  C
  H169     1.0000 0.53510  0.64800  0.03430  Biso   1.000  H
  C220     1.0000 0.55651  0.69862  0.97540  Biso   1.000  C
  H170     1.0000 0.55570  0.71830  0.00230  Biso   1.000  H
  C221     1.0000 0.57056  0.71283  0.92210  Biso   1.000  C
  C222     1.0000 0.56775  0.68153  0.88000  Biso   1.000  C
  H171     1.0000 0.57520  0.68920  0.84050  Biso   1.000  H
  C223     1.0000 0.55328  0.63843  0.90000  Biso   1.000  C
  H172     1.0000 0.55290  0.61820  0.87300  Biso   1.000  H
  C224     1.0000 0.58917  0.75972  0.90370  Biso   1.000  C
  C225     1.0000 0.62696  0.77947  0.86900  Biso   1.000  C
  H173     1.0000 0.64010  0.76310  0.85830  Biso   1.000  H
  H174     1.0000 0.43870  0.74170  0.97090  Biso   1.000  H
  H175     1.0000 0.46430  0.70980  0.87120  Biso   1.000  H
  O51      1.0000 0.19215  0.88669  0.26613  Biso   1.000  O
  O52      1.0000 0.17763  0.90067  0.35603  Biso   1.000  O
  C226     1.0000 0.19124  0.91160  0.30523  Biso   1.000  C
  C227     1.0000 0.20703  0.95833  0.28763  Biso   1.000  C
  C228     1.0000 0.20929  0.98904  0.32823  Biso   1.000  C
  H176     1.0000 0.20177  0.98133  0.36763  Biso   1.000  H
  C229     1.0000 0.22318  0.03195  0.30873  Biso   1.000  C
  H177     1.0000 0.22237  0.05163  0.33563  Biso   1.000  H
  C230     1.0000 0.23723  0.04616  0.25543  Biso   1.000  C
  C231     1.0000 0.23442  0.01486  0.21333  Biso   1.000  C
  H178     1.0000 0.24187  0.02253  0.17383  Biso   1.000  H
  C232     1.0000 0.21995  0.97176  0.23333  Biso   1.000  C
  H179     1.0000 0.21957  0.95153  0.20633  Biso   1.000  H
  C233     1.0000 0.25584  0.09305  0.23703  Biso   1.000  C
  C234     1.0000 0.29363  0.11280  0.20233  Biso   1.000  C
  H180     1.0000 0.30677  0.09643  0.19163  Biso   1.000  H
  H181     1.0000 0.10537  0.07503  0.30423  Biso   1.000  H
  H182     1.0000 0.13097  0.04313  0.20453  Biso   1.000  H
  O53      1.0000 0.85881  0.22003  0.59947  Biso   1.000  O
  O54      1.0000 0.84429  0.23401  0.68937  Biso   1.000  O
  C235     1.0000 0.85790  0.24494  0.63857  Biso   1.000  C
  C236     1.0000 0.87369  0.29167  0.62097  Biso   1.000  C
  C237     1.0000 0.87595  0.32238  0.66157  Biso   1.000  C
  H183     1.0000 0.86843  0.31467  0.70097  Biso   1.000  H
  C238     1.0000 0.88984  0.36529  0.64207  Biso   1.000  C
  H184     1.0000 0.88903  0.38497  0.66897  Biso   1.000  H
  C239     1.0000 0.90389  0.37950  0.58877  Biso   1.000  C
  C240     1.0000 0.90108  0.34820  0.54667  Biso   1.000  C
  H185     1.0000 0.90853  0.35587  0.50717  Biso   1.000  H
  C241     1.0000 0.88661  0.30510  0.56667  Biso   1.000  C
  H186     1.0000 0.88623  0.28487  0.53967  Biso   1.000  H
  C242     1.0000 0.92250  0.42639  0.57037  Biso   1.000  C
  C243     1.0000 0.96029  0.44614  0.53567  Biso   1.000  C
  H187     1.0000 0.97343  0.42977  0.52497  Biso   1.000  H
  H188     1.0000 0.77203  0.40837  0.63757  Biso   1.000  H
  H189     1.0000 0.79763  0.37647  0.53787  Biso   1.000  H
  O55      1.0000 0.97212  0.44664  0.06720  Biso   1.000  O
  O56      1.0000 0.94362  0.43266  0.97730  Biso   1.000  O
  C244     1.0000 0.94630  0.42173  0.02810  Biso   1.000  C
  C245     1.0000 0.91536  0.37500  0.04570  Biso   1.000  C
  C246     1.0000 0.88691  0.34429  0.00510  Biso   1.000  C
  H190     1.0000 0.88710  0.35200  0.96570  Biso   1.000  H
  C247     1.0000 0.85789  0.30138  0.02460  Biso   1.000  C
  H191     1.0000 0.83740  0.28170  0.99770  Biso   1.000  H
  C248     1.0000 0.85773  0.28717  0.07790  Biso   1.000  C
  C249     1.0000 0.88622  0.31847  0.12000  Biso   1.000  C
  H192     1.0000 0.88600  0.31080  0.15950  Biso   1.000  H
  C250     1.0000 0.91485  0.36157  0.10000  Biso   1.000  C
  H193     1.0000 0.93470  0.38180  0.12700  Biso   1.000  H
  C251     1.0000 0.82945  0.24028  0.09630  Biso   1.000  C
  C252     1.0000 0.84749  0.22053  0.13100  Biso   1.000  C
  H194     1.0000 0.87700  0.23690  0.14170  Biso   1.000  H
  H195     1.0000 0.69700  0.25830  0.02910  Biso   1.000  H
  H196     1.0000 0.75450  0.29020  0.12880  Biso   1.000  H
  O57      1.0000 0.63879  0.77997  0.40053  Biso   1.000  O
  O58      1.0000 0.61029  0.76599  0.31063  Biso   1.000  O
  C253     1.0000 0.61297  0.75506  0.36143  Biso   1.000  C
  C254     1.0000 0.58203  0.70833  0.37903  Biso   1.000  C
  C255     1.0000 0.55358  0.67762  0.33843  Biso   1.000  C
  H197     1.0000 0.55377  0.68533  0.29903  Biso   1.000  H
  C256     1.0000 0.52456  0.63471  0.35793  Biso   1.000  C
  H198     1.0000 0.50407  0.61503  0.33103  Biso   1.000  H
  C257     1.0000 0.52440  0.62050  0.41123  Biso   1.000  C
  C258     1.0000 0.55289  0.65180  0.45333  Biso   1.000  C
  H199     1.0000 0.55267  0.64413  0.49283  Biso   1.000  H
  C259     1.0000 0.58152  0.69490  0.43333  Biso   1.000  C
  H200     1.0000 0.60137  0.71513  0.46033  Biso   1.000  H
  C260     1.0000 0.49612  0.57361  0.42963  Biso   1.000  C
  C261     1.0000 0.51416  0.55386  0.46433  Biso   1.000  C
  H201     1.0000 0.54367  0.57023  0.47503  Biso   1.000  H
  H202     1.0000 0.36367  0.59163  0.36243  Biso   1.000  H
  H203     1.0000 0.42117  0.62353  0.46213  Biso   1.000  H
  O59      1.0000 0.30545  0.11331  0.73387  Biso   1.000  O
  O60      1.0000 0.27695  0.09933  0.64397  Biso   1.000  O
  C262     1.0000 0.27963  0.08840  0.69477  Biso   1.000  C
  C263     1.0000 0.24869  0.04167  0.71237  Biso   1.000  C
  C264     1.0000 0.22024  0.01096  0.67177  Biso   1.000  C
  H204     1.0000 0.22043  0.01867  0.63237  Biso   1.000  H
  C265     1.0000 0.19122  0.96805  0.69127  Biso   1.000  C
  H205     1.0000 0.17073  0.94837  0.66437  Biso   1.000  H
  C266     1.0000 0.19106  0.95384  0.74457  Biso   1.000  C
  C267     1.0000 0.21955  0.98514  0.78667  Biso   1.000  C
  H206     1.0000 0.21933  0.97747  0.82617  Biso   1.000  H
  C268     1.0000 0.24818  0.02824  0.76667  Biso   1.000  C
  H207     1.0000 0.26803  0.04847  0.79367  Biso   1.000  H
  C269     1.0000 0.16278  0.90695  0.76297  Biso   1.000  C
  C270     1.0000 0.18082  0.88720  0.79767  Biso   1.000  C
  H208     1.0000 0.21033  0.90357  0.80837  Biso   1.000  H
  H209     1.0000 0.03033  0.92497  0.69577  Biso   1.000  H
  H210     1.0000 0.08783  0.95687  0.79547  Biso   1.000  H
  O61      1.0000 0.47452  0.02788  0.06720  Biso   1.000  O
  O62      1.0000 0.48904  0.05638  0.97730  Biso   1.000  O
  C271     1.0000 0.47543  0.05370  0.02810  Biso   1.000  C
  C272     1.0000 0.45964  0.08464  0.04570  Biso   1.000  C
  C273     1.0000 0.45738  0.11309  0.00510  Biso   1.000  C
  H211     1.0000 0.46490  0.11290  0.96570  Biso   1.000  H
  C274     1.0000 0.44349  0.14211  0.02460  Biso   1.000  C
  H212     1.0000 0.44430  0.16260  0.99770  Biso   1.000  H
  C275     1.0000 0.42944  0.14227  0.07790  Biso   1.000  C
  C276     1.0000 0.43225  0.11378  0.12000  Biso   1.000  C
  H213     1.0000 0.42480  0.11400  0.15950  Biso   1.000  H
  C277     1.0000 0.44672  0.08515  0.10000  Biso   1.000  C
  H214     1.0000 0.44710  0.06530  0.12700  Biso   1.000  H
  C278     1.0000 0.41083  0.17055  0.09630  Biso   1.000  C
  C279     1.0000 0.37304  0.15251  0.13100  Biso   1.000  C
  H215     1.0000 0.35990  0.12300  0.14170  Biso   1.000  H
  H216     1.0000 0.56130  0.30300  0.02910  Biso   1.000  H
  H217     1.0000 0.53570  0.24550  0.12880  Biso   1.000  H
  O63      1.0000 0.14119  0.36121  0.40053  Biso   1.000  O
  O64      1.0000 0.15571  0.38971  0.31063  Biso   1.000  O
  C280     1.0000 0.14210  0.38703  0.36143  Biso   1.000  C
  C281     1.0000 0.12631  0.41797  0.37903  Biso   1.000  C
  C282     1.0000 0.12405  0.44642  0.33843  Biso   1.000  C
  H218     1.0000 0.13157  0.44623  0.29903  Biso   1.000  H
  C283     1.0000 0.11016  0.47544  0.35793  Biso   1.000  C
  H219     1.0000 0.11097  0.49593  0.33103  Biso   1.000  H
  C284     1.0000 0.09611  0.47560  0.41123  Biso   1.000  C
  C285     1.0000 0.09892  0.44711  0.45333  Biso   1.000  C
  H220     1.0000 0.09147  0.44733  0.49283  Biso   1.000  H
  C286     1.0000 0.11339  0.41848  0.43333  Biso   1.000  C
  H221     1.0000 0.11377  0.39863  0.46033  Biso   1.000  H
  C287     1.0000 0.07750  0.50388  0.42963  Biso   1.000  C
  C288     1.0000 0.03971  0.48584  0.46433  Biso   1.000  C
  H222     1.0000 0.02657  0.45633  0.47503  Biso   1.000  H
  H223     1.0000 0.22797  0.63633  0.36243  Biso   1.000  H
  H224     1.0000 0.20237  0.57883  0.46213  Biso   1.000  H
  O65      1.0000 0.80785  0.69455  0.73387  Biso   1.000  O
  O66      1.0000 0.82237  0.72305  0.64397  Biso   1.000  O
  C289     1.0000 0.80876  0.72037  0.69477  Biso   1.000  C
  C290     1.0000 0.79297  0.75131  0.71237  Biso   1.000  C
  C291     1.0000 0.79071  0.77976  0.67177  Biso   1.000  C
  H225     1.0000 0.79823  0.77957  0.63237  Biso   1.000  H
  C292     1.0000 0.77682  0.80878  0.69127  Biso   1.000  C
  H226     1.0000 0.77763  0.82927  0.66437  Biso   1.000  H
  C293     1.0000 0.76277  0.80894  0.74457  Biso   1.000  C
  C294     1.0000 0.76558  0.78045  0.78667  Biso   1.000  C
  H227     1.0000 0.75813  0.78067  0.82617  Biso   1.000  H
  C295     1.0000 0.78005  0.75182  0.76667  Biso   1.000  C
  H228     1.0000 0.78043  0.73197  0.79367  Biso   1.000  H
  C296     1.0000 0.74416  0.83722  0.76297  Biso   1.000  C
  C297     1.0000 0.70637  0.81918  0.79767  Biso   1.000  C
  H229     1.0000 0.69323  0.78967  0.80837  Biso   1.000  H
  H230     1.0000 0.89463  0.96967  0.69577  Biso   1.000  H
  H231     1.0000 0.86903  0.91217  0.79547  Biso   1.000  H
  O67      1.0000 0.55336  0.52548  0.06720  Biso   1.000  O
  O68      1.0000 0.56734  0.51096  0.97730  Biso   1.000  O
  C298     1.0000 0.57827  0.52457  0.02810  Biso   1.000  C
  C299     1.0000 0.62500  0.54036  0.04570  Biso   1.000  C
  C300     1.0000 0.65571  0.54262  0.00510  Biso   1.000  C
  H232     1.0000 0.64800  0.53510  0.96570  Biso   1.000  H
  C301     1.0000 0.69862  0.55651  0.02460  Biso   1.000  C
  H233     1.0000 0.71830  0.55570  0.99770  Biso   1.000  H
  C302     1.0000 0.71283  0.57056  0.07790  Biso   1.000  C
  C303     1.0000 0.68153  0.56775  0.12000  Biso   1.000  C
  H234     1.0000 0.68920  0.57520  0.15950  Biso   1.000  H
  C304     1.0000 0.63843  0.55328  0.10000  Biso   1.000  C
  H235     1.0000 0.61820  0.55290  0.12700  Biso   1.000  H
  C305     1.0000 0.75972  0.58917  0.09630  Biso   1.000  C
  C306     1.0000 0.77947  0.62696  0.13100  Biso   1.000  C
  H236     1.0000 0.76310  0.64010  0.14170  Biso   1.000  H
  H237     1.0000 0.74170  0.43870  0.02910  Biso   1.000  H
  H238     1.0000 0.70980  0.46430  0.12880  Biso   1.000  H
  O69      1.0000 0.22003  0.85881  0.40053  Biso   1.000  O
  O70      1.0000 0.23401  0.84429  0.31063  Biso   1.000  O
  C307     1.0000 0.24494  0.85790  0.36143  Biso   1.000  C
  C308     1.0000 0.29167  0.87369  0.37903  Biso   1.000  C
  C309     1.0000 0.32238  0.87595  0.33843  Biso   1.000  C
  H239     1.0000 0.31467  0.86843  0.29903  Biso   1.000  H
  C310     1.0000 0.36529  0.88984  0.35793  Biso   1.000  C
  H240     1.0000 0.38497  0.88903  0.33103  Biso   1.000  H
  C311     1.0000 0.37950  0.90389  0.41123  Biso   1.000  C
  C312     1.0000 0.34820  0.90108  0.45333  Biso   1.000  C
  H241     1.0000 0.35587  0.90853  0.49283  Biso   1.000  H
  C313     1.0000 0.30510  0.88661  0.43333  Biso   1.000  C
  H242     1.0000 0.28487  0.88623  0.46033  Biso   1.000  H
  C314     1.0000 0.42639  0.92250  0.42963  Biso   1.000  C
  C315     1.0000 0.44614  0.96029  0.46433  Biso   1.000  C
  H243     1.0000 0.42977  0.97343  0.47503  Biso   1.000  H
  H244     1.0000 0.40837  0.77203  0.36243  Biso   1.000  H
  H245     1.0000 0.37647  0.79763  0.46213  Biso   1.000  H
  O71      1.0000 0.88669  0.19215  0.73387  Biso   1.000  O
  O72      1.0000 0.90067  0.17763  0.64397  Biso   1.000  O
  C316     1.0000 0.91160  0.19124  0.69477  Biso   1.000  C
  C317     1.0000 0.95833  0.20703  0.71237  Biso   1.000  C
  C318     1.0000 0.98904  0.20929  0.67177  Biso   1.000  C
  H246     1.0000 0.98133  0.20177  0.63237  Biso   1.000  H
  C319     1.0000 0.03195  0.22318  0.69127  Biso   1.000  C
  H247     1.0000 0.05163  0.22237  0.66437  Biso   1.000  H
  C320     1.0000 0.04616  0.23723  0.74457  Biso   1.000  C
  C321     1.0000 0.01486  0.23442  0.78667  Biso   1.000  C
  H248     1.0000 0.02253  0.24187  0.82617  Biso   1.000  H
  C322     1.0000 0.97176  0.21995  0.76667  Biso   1.000  C
  H249     1.0000 0.95153  0.21957  0.79367  Biso   1.000  H
  C323     1.0000 0.09305  0.25584  0.76297  Biso   1.000  C
  C324     1.0000 0.11280  0.29363  0.79767  Biso   1.000  C
  H250     1.0000 0.09643  0.30677  0.80837  Biso   1.000  H
  H251     1.0000 0.07503  0.10537  0.69577  Biso   1.000  H
  H252     1.0000 0.04313  0.13097  0.79547  Biso   1.000  H
  Cu1      1.0000 0.50844  0.01689  0.94732  Biso   1.000  Cu
  Cu2      1.0000 0.17511  0.35022  0.28065  Biso   1.000  Cu
  Cu3      1.0000 0.84178  0.68356  0.61399  Biso   1.000  Cu
  Cu4      1.0000 0.98311  0.49156  0.94732  Biso   1.000  Cu
  Cu5      1.0000 0.64978  0.82489  0.28065  Biso   1.000  Cu
  Cu6      1.0000 0.31644  0.15822  0.61399  Biso   1.000  Cu
  Cu7      1.0000 0.50844  0.49156  0.94732  Biso   1.000  Cu
  Cu8      1.0000 0.17511  0.82489  0.28065  Biso   1.000  Cu
  Cu9      1.0000 0.84178  0.15822  0.61399  Biso   1.000  Cu
  Cu10     1.0000 0.01689  0.50844  0.05268  Biso   1.000  Cu
  Cu11     1.0000 0.68356  0.84178  0.38601  Biso   1.000  Cu
  Cu12     1.0000 0.35022  0.17511  0.71935  Biso   1.000  Cu
  Cu13     1.0000 0.49156  0.98311  0.05268  Biso   1.000  Cu
  Cu14     1.0000 0.15822  0.31644  0.38601  Biso   1.000  Cu
  Cu15     1.0000 0.82489  0.64978  0.71935  Biso   1.000  Cu
  Cu16     1.0000 0.49156  0.50845  0.05268  Biso   1.000  Cu
  Cu17     1.0000 0.15822  0.84178  0.38601  Biso   1.000  Cu
  Cu18     1.0000 0.82489  0.17511  0.71935  Biso   1.000  Cu
  O73      1.0000 0.76672  0.23328  0.04320  Biso   1.000  O
  C325     1.0000 0.82285  0.17715  0.15040  Biso   1.000  C
  C326     1.0000 0.78515  0.21485  0.08020  Biso   1.000  C
  C327     1.0000 0.72780  0.27220  0.02010  Biso   1.000  C
  H253     1.0000 0.73160  0.26840  0.97880  Biso   1.000  H
  C328     1.0000 0.74090  0.25910  0.12210  Biso   1.000  C
  H254     1.0000 0.75320  0.24680  0.14870  Biso   1.000  H
  C329     1.0000 0.74930  0.25070  0.05770  Biso   1.000  C
  O74      1.0000 0.43339  0.56661  0.37653  Biso   1.000  O
  C330     1.0000 0.48952  0.51048  0.48373  Biso   1.000  C
  C331     1.0000 0.45182  0.54818  0.41353  Biso   1.000  C
  C332     1.0000 0.39447  0.60553  0.35343  Biso   1.000  C
  H255     1.0000 0.39827  0.60173  0.31213  Biso   1.000  H
  C333     1.0000 0.40757  0.59243  0.45543  Biso   1.000  C
  H256     1.0000 0.41987  0.58013  0.48203  Biso   1.000  H
  C334     1.0000 0.41597  0.58403  0.39103  Biso   1.000  C
  O75      1.0000 0.10005  0.89995  0.70987  Biso   1.000  O
  C335     1.0000 0.15618  0.84382  0.81707  Biso   1.000  C
  C336     1.0000 0.11848  0.88152  0.74687  Biso   1.000  C
  C337     1.0000 0.06113  0.93887  0.68677  Biso   1.000  C
  H257     1.0000 0.06493  0.93507  0.64547  Biso   1.000  H
  C338     1.0000 0.07423  0.92577  0.78877  Biso   1.000  C
  H258     1.0000 0.08653  0.91347  0.81537  Biso   1.000  H
  C339     1.0000 0.08263  0.91737  0.72437  Biso   1.000  C
  O76      1.0000 0.76672  0.53344  0.04320  Biso   1.000  O
  C340     1.0000 0.82285  0.64570  0.15040  Biso   1.000  C
  C341     1.0000 0.78515  0.57030  0.08020  Biso   1.000  C
  C342     1.0000 0.72780  0.45560  0.02010  Biso   1.000  C
  H259     1.0000 0.73160  0.46320  0.97880  Biso   1.000  H
  C343     1.0000 0.74090  0.48180  0.12210  Biso   1.000  C
  H260     1.0000 0.75320  0.50640  0.14870  Biso   1.000  H
  C344     1.0000 0.74930  0.49860  0.05770  Biso   1.000  C
  O77      1.0000 0.43339  0.86677  0.37653  Biso   1.000  O
  C345     1.0000 0.48952  0.97903  0.48373  Biso   1.000  C
  C346     1.0000 0.45182  0.90363  0.41353  Biso   1.000  C
  C347     1.0000 0.39447  0.78893  0.35343  Biso   1.000  C
  H261     1.0000 0.39827  0.79653  0.31213  Biso   1.000  H
  C348     1.0000 0.40757  0.81513  0.45543  Biso   1.000  C
  H262     1.0000 0.41987  0.83973  0.48203  Biso   1.000  H
  C349     1.0000 0.41597  0.83193  0.39103  Biso   1.000  C
  O78      1.0000 0.10005  0.20011  0.70987  Biso   1.000  O
  C350     1.0000 0.15618  0.31237  0.81707  Biso   1.000  C
  C351     1.0000 0.11848  0.23697  0.74687  Biso   1.000  C
  C352     1.0000 0.06113  0.12227  0.68677  Biso   1.000  C
  H263     1.0000 0.06493  0.12987  0.64547  Biso   1.000  H
  C353     1.0000 0.07423  0.14847  0.78877  Biso   1.000  C
  H264     1.0000 0.08653  0.17307  0.81537  Biso   1.000  H
  C354     1.0000 0.08263  0.16527  0.72437  Biso   1.000  C
  O79      1.0000 0.46656  0.23328  0.04320  Biso   1.000  O
  C355     1.0000 0.35430  0.17715  0.15040  Biso   1.000  C
  C356     1.0000 0.42970  0.21485  0.08020  Biso   1.000  C
  C357     1.0000 0.54440  0.27220  0.02010  Biso   1.000  C
  H265     1.0000 0.53680  0.26840  0.97880  Biso   1.000  H
  C358     1.0000 0.51820  0.25910  0.12210  Biso   1.000  C
  H266     1.0000 0.49360  0.24680  0.14870  Biso   1.000  H
  C359     1.0000 0.50140  0.25070  0.05770  Biso   1.000  C
  O80      1.0000 0.13323  0.56661  0.37653  Biso   1.000  O
  C360     1.0000 0.02097  0.51048  0.48373  Biso   1.000  C
  C361     1.0000 0.09637  0.54818  0.41353  Biso   1.000  C
  C362     1.0000 0.21107  0.60553  0.35343  Biso   1.000  C
  H267     1.0000 0.20347  0.60173  0.31213  Biso   1.000  H
  C363     1.0000 0.18487  0.59243  0.45543  Biso   1.000  C
  H268     1.0000 0.16027  0.58013  0.48203  Biso   1.000  H
  C364     1.0000 0.16807  0.58403  0.39103  Biso   1.000  C
  O81      1.0000 0.79989  0.89995  0.70987  Biso   1.000  O
  C365     1.0000 0.68763  0.84382  0.81707  Biso   1.000  C
  C366     1.0000 0.76303  0.88152  0.74687  Biso   1.000  C
  C367     1.0000 0.87773  0.93887  0.68677  Biso   1.000  C
  H269     1.0000 0.87013  0.93507  0.64547  Biso   1.000  H
  C368     1.0000 0.85153  0.92577  0.78877  Biso   1.000  C
  H270     1.0000 0.82693  0.91347  0.81537  Biso   1.000  H
  C369     1.0000 0.83473  0.91737  0.72437  Biso   1.000  C
  O82      1.0000 0.23328  0.76672  0.95680  Biso   1.000  O
  C370     1.0000 0.17715  0.82285  0.84960  Biso   1.000  C
  C371     1.0000 0.21485  0.78515  0.91980  Biso   1.000  C
  C372     1.0000 0.27220  0.72780  0.97990  Biso   1.000  C
  H271     1.0000 0.26840  0.73160  0.02120  Biso   1.000  H
  C373     1.0000 0.25910  0.74090  0.87790  Biso   1.000  C
  H272     1.0000 0.24680  0.75320  0.85130  Biso   1.000  H
  C374     1.0000 0.25070  0.74930  0.94230  Biso   1.000  C
  O83      1.0000 0.89995  0.10005  0.29013  Biso   1.000  O
  C375     1.0000 0.84382  0.15618  0.18293  Biso   1.000  C
  C376     1.0000 0.88152  0.11848  0.25313  Biso   1.000  C
  C377     1.0000 0.93887  0.06113  0.31323  Biso   1.000  C
  H273     1.0000 0.93507  0.06493  0.35453  Biso   1.000  H
  C378     1.0000 0.92577  0.07423  0.21123  Biso   1.000  C
  H274     1.0000 0.91347  0.08653  0.18463  Biso   1.000  H
  C379     1.0000 0.91737  0.08263  0.27563  Biso   1.000  C
  O84      1.0000 0.56661  0.43339  0.62347  Biso   1.000  O
  C380     1.0000 0.51048  0.48952  0.51627  Biso   1.000  C
  C381     1.0000 0.54818  0.45182  0.58647  Biso   1.000  C
  C382     1.0000 0.60553  0.39447  0.64657  Biso   1.000  C
  H275     1.0000 0.60173  0.39827  0.68787  Biso   1.000  H
  C383     1.0000 0.59243  0.40757  0.54457  Biso   1.000  C
  H276     1.0000 0.58013  0.41987  0.51797  Biso   1.000  H
  C384     1.0000 0.58403  0.41597  0.60897  Biso   1.000  C
  O85      1.0000 0.53344  0.76672  0.95680  Biso   1.000  O
  C385     1.0000 0.64570  0.82285  0.84960  Biso   1.000  C
  C386     1.0000 0.57030  0.78515  0.91980  Biso   1.000  C
  C387     1.0000 0.45560  0.72780  0.97990  Biso   1.000  C
  H277     1.0000 0.46320  0.73160  0.02120  Biso   1.000  H
  C388     1.0000 0.48180  0.74090  0.87790  Biso   1.000  C
  H278     1.0000 0.50640  0.75320  0.85130  Biso   1.000  H
  C389     1.0000 0.49860  0.74930  0.94230  Biso   1.000  C
  O86      1.0000 0.20011  0.10005  0.29013  Biso   1.000  O
  C390     1.0000 0.31237  0.15618  0.18293  Biso   1.000  C
  C391     1.0000 0.23697  0.11848  0.25313  Biso   1.000  C
  C392     1.0000 0.12227  0.06113  0.31323  Biso   1.000  C
  H279     1.0000 0.12987  0.06493  0.35453  Biso   1.000  H
  C393     1.0000 0.14847  0.07423  0.21123  Biso   1.000  C
  H280     1.0000 0.17307  0.08653  0.18463  Biso   1.000  H
  C394     1.0000 0.16527  0.08263  0.27563  Biso   1.000  C
  O87      1.0000 0.86677  0.43339  0.62347  Biso   1.000  O
  C395     1.0000 0.97903  0.48952  0.51627  Biso   1.000  C
  C396     1.0000 0.90363  0.45182  0.58647  Biso   1.000  C
  C397     1.0000 0.78893  0.39447  0.64657  Biso   1.000  C
  H281     1.0000 0.79653  0.39827  0.68787  Biso   1.000  H
  C398     1.0000 0.81513  0.40757  0.54457  Biso   1.000  C
  H282     1.0000 0.83973  0.41987  0.51797  Biso   1.000  H
  C399     1.0000 0.83193  0.41597  0.60897  Biso   1.000  C
  O88      1.0000 0.23328  0.46656  0.95680  Biso   1.000  O
  C400     1.0000 0.17715  0.35430  0.84960  Biso   1.000  C
  C401     1.0000 0.21485  0.42970  0.91980  Biso   1.000  C
  C402     1.0000 0.27220  0.54440  0.97990  Biso   1.000  C
  H283     1.0000 0.26840  0.53680  0.02120  Biso   1.000  H
  C403     1.0000 0.25910  0.51820  0.87790  Biso   1.000  C
  H284     1.0000 0.24680  0.49360  0.85130  Biso   1.000  H
  C404     1.0000 0.25070  0.50140  0.94230  Biso   1.000  C
  O89      1.0000 0.89995  0.79989  0.29013  Biso   1.000  O
  C405     1.0000 0.84382  0.68763  0.18293  Biso   1.000  C
  C406     1.0000 0.88152  0.76303  0.25313  Biso   1.000  C
  C407     1.0000 0.93887  0.87773  0.31323  Biso   1.000  C
  H285     1.0000 0.93507  0.87013  0.35453  Biso   1.000  H
  C408     1.0000 0.92577  0.85153  0.21123  Biso   1.000  C
  H286     1.0000 0.91347  0.82693  0.18463  Biso   1.000  H
  C409     1.0000 0.91737  0.83473  0.27563  Biso   1.000  C
  O90      1.0000 0.56661  0.13323  0.62347  Biso   1.000  O
  C410     1.0000 0.51048  0.02097  0.51627  Biso   1.000  C
  C411     1.0000 0.54818  0.09637  0.58647  Biso   1.000  C
  C412     1.0000 0.60553  0.21107  0.64657  Biso   1.000  C
  H287     1.0000 0.60173  0.20347  0.68787  Biso   1.000  H
  C413     1.0000 0.59243  0.18487  0.54457  Biso   1.000  C
  H288     1.0000 0.58013  0.16027  0.51797  Biso   1.000  H
  C414     1.0000 0.58403  0.16807  0.60897  Biso   1.000  C
