data_image0
_cell_length_a       35.1878
_cell_length_b       35.1878
_cell_length_c       21.718
_cell_angle_alpha    90
_cell_angle_beta     90
_cell_angle_gamma    120

_symmetry_space_group_name_H-M    "P 1"
_symmetry_int_tables_number       1

loop_
  _symmetry_equiv_pos_as_xyz
  'x, y, z'

loop_
  _atom_site_label
  _atom_site_occupancy
  _atom_site_fract_x
  _atom_site_fract_y
  _atom_site_fract_z
  _atom_site_thermal_displace_type
  _atom_site_B_iso_or_equiv
  _atom_site_type_symbol
  O1       1.0000 0.63713  0.77953  0.40259  Biso   1.000  O
  O2       1.0000 0.61105  0.76628  0.30631  Biso   1.000  O
  C1       1.0000 0.61192  0.75512  0.36075  Biso   1.000  C
  C2       1.0000 0.58042  0.70831  0.37839  Biso   1.000  C
  C3       1.0000 0.55320  0.67857  0.33306  Biso   1.000  C
  H1       1.0000 0.55420  0.68800  0.29180  Biso   1.000  H
  C4       1.0000 0.52501  0.63538  0.34932  Biso   1.000  C
  H2       1.0000 0.50610  0.61540  0.31900  Biso   1.000  H
  C5       1.0000 0.52362  0.62066  0.40810  Biso   1.000  C
  C6       1.0000 0.55099  0.65010  0.45310  Biso   1.000  C
  H3       1.0000 0.55040  0.64040  0.49400  Biso   1.000  H
  C7       1.0000 0.57928  0.69412  0.43700  Biso   1.000  C
  H4       1.0000 0.59780  0.71420  0.46750  Biso   1.000  H
  C8       1.0000 0.49531  0.57343  0.42750  Biso   1.000  C
  C9       1.0000 0.51306  0.55377  0.46150  Biso   1.000  C
  H5       1.0000 0.54310  0.57070  0.47270  Biso   1.000  H
  C10      1.0000 0.41230  0.62280  0.36180  Biso   1.000  C
  C11      1.0000 0.38270  0.57110  0.46040  Biso   1.000  C
  O3       1.0000 0.30380  0.11286  0.73592  Biso   1.000  O
  O4       1.0000 0.27772  0.09961  0.63964  Biso   1.000  O
  C12      1.0000 0.27859  0.08845  0.69408  Biso   1.000  C
  C13      1.0000 0.24709  0.04164  0.71172  Biso   1.000  C
  C14      1.0000 0.21987  0.01190  0.66639  Biso   1.000  C
  H6       1.0000 0.22087  0.02133  0.62513  Biso   1.000  H
  C15      1.0000 0.19168  0.96871  0.68265  Biso   1.000  C
  H7       1.0000 0.17277  0.94873  0.65233  Biso   1.000  H
  C16      1.0000 0.19029  0.95399  0.74143  Biso   1.000  C
  C17      1.0000 0.21766  0.98343  0.78643  Biso   1.000  C
  H8       1.0000 0.21707  0.97373  0.82733  Biso   1.000  H
  C18      1.0000 0.24595  0.02745  0.77033  Biso   1.000  C
  H9       1.0000 0.26447  0.04753  0.80083  Biso   1.000  H
  C19      1.0000 0.16198  0.90676  0.76083  Biso   1.000  C
  C20      1.0000 0.17973  0.88710  0.79483  Biso   1.000  C
  H10      1.0000 0.20977  0.90403  0.80603  Biso   1.000  H
  C21      1.0000 0.07897  0.95613  0.69513  Biso   1.000  C
  C22      1.0000 0.04937  0.90443  0.79373  Biso   1.000  C
  O5       1.0000 0.97046  0.44620  0.06926  Biso   1.000  O
  O6       1.0000 0.94438  0.43295  0.97298  Biso   1.000  O
  C23      1.0000 0.94525  0.42179  0.02742  Biso   1.000  C
  C24      1.0000 0.91375  0.37498  0.04506  Biso   1.000  C
  C25      1.0000 0.88653  0.34524  0.99973  Biso   1.000  C
  H11      1.0000 0.88753  0.35467  0.95847  Biso   1.000  H
  C26      1.0000 0.85834  0.30205  0.01599  Biso   1.000  C
  H12      1.0000 0.83943  0.28207  0.98567  Biso   1.000  H
  C27      1.0000 0.85695  0.28733  0.07477  Biso   1.000  C
  C28      1.0000 0.88432  0.31677  0.11977  Biso   1.000  C
  H13      1.0000 0.88373  0.30707  0.16067  Biso   1.000  H
  C29      1.0000 0.91261  0.36079  0.10367  Biso   1.000  C
  H14      1.0000 0.93113  0.38087  0.13417  Biso   1.000  H
  C30      1.0000 0.82864  0.24010  0.09417  Biso   1.000  C
  C31      1.0000 0.84639  0.22044  0.12817  Biso   1.000  C
  H15      1.0000 0.87643  0.23737  0.13937  Biso   1.000  H
  C32      1.0000 0.74563  0.28947  0.02847  Biso   1.000  C
  C33      1.0000 0.71603  0.23777  0.12707  Biso   1.000  C
  O7       1.0000 0.22047  0.85760  0.40259  Biso   1.000  O
  O8       1.0000 0.23372  0.84477  0.30631  Biso   1.000  O
  C34      1.0000 0.24488  0.85680  0.36075  Biso   1.000  C
  C35      1.0000 0.29169  0.87211  0.37839  Biso   1.000  C
  C36      1.0000 0.32143  0.87463  0.33306  Biso   1.000  C
  H16      1.0000 0.31200  0.86620  0.29180  Biso   1.000  H
  C37      1.0000 0.36462  0.88963  0.34932  Biso   1.000  C
  H17      1.0000 0.38460  0.89070  0.31900  Biso   1.000  H
  C38      1.0000 0.37934  0.90296  0.40810  Biso   1.000  C
  C39      1.0000 0.34990  0.90089  0.45310  Biso   1.000  C
  H18      1.0000 0.35960  0.91000  0.49400  Biso   1.000  H
  C40      1.0000 0.30588  0.88516  0.43700  Biso   1.000  C
  H19      1.0000 0.28580  0.88360  0.46750  Biso   1.000  H
  C41      1.0000 0.42657  0.92188  0.42750  Biso   1.000  C
  C42      1.0000 0.44623  0.95929  0.46150  Biso   1.000  C
  H20      1.0000 0.42930  0.97240  0.47270  Biso   1.000  H
  C43      1.0000 0.37720  0.78950  0.36180  Biso   1.000  C
  C44      1.0000 0.42890  0.81160  0.46040  Biso   1.000  C
  O9       1.0000 0.88714  0.19093  0.73592  Biso   1.000  O
  O10      1.0000 0.90039  0.17810  0.63964  Biso   1.000  O
  C45      1.0000 0.91155  0.19013  0.69408  Biso   1.000  C
  C46      1.0000 0.95836  0.20544  0.71172  Biso   1.000  C
  C47      1.0000 0.98810  0.20796  0.66639  Biso   1.000  C
  H21      1.0000 0.97867  0.19953  0.62513  Biso   1.000  H
  C48      1.0000 0.03129  0.22296  0.68265  Biso   1.000  C
  H22      1.0000 0.05127  0.22403  0.65233  Biso   1.000  H
  C49      1.0000 0.04601  0.23629  0.74143  Biso   1.000  C
  C50      1.0000 0.01657  0.23422  0.78643  Biso   1.000  C
  H23      1.0000 0.02627  0.24333  0.82733  Biso   1.000  H
  C51      1.0000 0.97255  0.21849  0.77033  Biso   1.000  C
  H24      1.0000 0.95247  0.21693  0.80083  Biso   1.000  H
  C52      1.0000 0.09324  0.25521  0.76083  Biso   1.000  C
  C53      1.0000 0.11290  0.29262  0.79483  Biso   1.000  C
  H25      1.0000 0.09597  0.30573  0.80603  Biso   1.000  H
  C54      1.0000 0.04387  0.12283  0.69513  Biso   1.000  C
  C55      1.0000 0.09557  0.14493  0.79373  Biso   1.000  C
  O11      1.0000 0.55380  0.52427  0.06926  Biso   1.000  O
  O12      1.0000 0.56705  0.51144  0.97298  Biso   1.000  O
  C56      1.0000 0.57821  0.52347  0.02742  Biso   1.000  C
  C57      1.0000 0.62502  0.53878  0.04506  Biso   1.000  C
  C58      1.0000 0.65476  0.54130  0.99973  Biso   1.000  C
  H26      1.0000 0.64533  0.53287  0.95847  Biso   1.000  H
  C59      1.0000 0.69795  0.55630  0.01599  Biso   1.000  C
  H27      1.0000 0.71793  0.55737  0.98567  Biso   1.000  H
  C60      1.0000 0.71267  0.56963  0.07477  Biso   1.000  C
  C61      1.0000 0.68323  0.56756  0.11977  Biso   1.000  C
  H28      1.0000 0.69293  0.57667  0.16067  Biso   1.000  H
  C62      1.0000 0.63921  0.55183  0.10367  Biso   1.000  C
  H29      1.0000 0.61913  0.55027  0.13417  Biso   1.000  H
  C63      1.0000 0.75990  0.58855  0.09417  Biso   1.000  C
  C64      1.0000 0.77956  0.62596  0.12817  Biso   1.000  C
  H30      1.0000 0.76263  0.63907  0.13937  Biso   1.000  H
  C65      1.0000 0.71053  0.45617  0.02847  Biso   1.000  C
  C66      1.0000 0.76223  0.47827  0.12707  Biso   1.000  C
  O13      1.0000 0.14240  0.36287  0.40259  Biso   1.000  O
  O14      1.0000 0.15523  0.38895  0.30631  Biso   1.000  O
  C67      1.0000 0.14320  0.38808  0.36075  Biso   1.000  C
  C68      1.0000 0.12789  0.41958  0.37839  Biso   1.000  C
  C69      1.0000 0.12537  0.44680  0.33306  Biso   1.000  C
  H31      1.0000 0.13380  0.44580  0.29180  Biso   1.000  H
  C70      1.0000 0.11037  0.47499  0.34932  Biso   1.000  C
  H32      1.0000 0.10930  0.49390  0.31900  Biso   1.000  H
  C71      1.0000 0.09704  0.47638  0.40810  Biso   1.000  C
  C72      1.0000 0.09911  0.44901  0.45310  Biso   1.000  C
  H33      1.0000 0.09000  0.44960  0.49400  Biso   1.000  H
  C73      1.0000 0.11484  0.42072  0.43700  Biso   1.000  C
  H34      1.0000 0.11640  0.40220  0.46750  Biso   1.000  H
  C74      1.0000 0.07812  0.50469  0.42750  Biso   1.000  C
  C75      1.0000 0.04071  0.48694  0.46150  Biso   1.000  C
  H35      1.0000 0.02760  0.45690  0.47270  Biso   1.000  H
  C76      1.0000 0.21050  0.58770  0.36180  Biso   1.000  C
  C77      1.0000 0.18840  0.61730  0.46040  Biso   1.000  C
  O15      1.0000 0.80907  0.69620  0.73592  Biso   1.000  O
  O16      1.0000 0.82190  0.72228  0.63964  Biso   1.000  O
  C78      1.0000 0.80987  0.72141  0.69408  Biso   1.000  C
  C79      1.0000 0.79456  0.75291  0.71172  Biso   1.000  C
  C80      1.0000 0.79204  0.78013  0.66639  Biso   1.000  C
  H36      1.0000 0.80047  0.77913  0.62513  Biso   1.000  H
  C81      1.0000 0.77704  0.80832  0.68265  Biso   1.000  C
  H37      1.0000 0.77597  0.82723  0.65233  Biso   1.000  H
  C82      1.0000 0.76371  0.80971  0.74143  Biso   1.000  C
  C83      1.0000 0.76578  0.78234  0.78643  Biso   1.000  C
  H38      1.0000 0.75667  0.78293  0.82733  Biso   1.000  H
  C84      1.0000 0.78151  0.75405  0.77033  Biso   1.000  C
  H39      1.0000 0.78307  0.73553  0.80083  Biso   1.000  H
  C85      1.0000 0.74479  0.83802  0.76083  Biso   1.000  C
  C86      1.0000 0.70738  0.82027  0.79483  Biso   1.000  C
  H40      1.0000 0.69427  0.79023  0.80603  Biso   1.000  H
  C87      1.0000 0.87717  0.92103  0.69513  Biso   1.000  C
  C88      1.0000 0.85507  0.95063  0.79373  Biso   1.000  C
  O17      1.0000 0.47573  0.02954  0.06926  Biso   1.000  O
  O18      1.0000 0.48856  0.05562  0.97298  Biso   1.000  O
  C89      1.0000 0.47653  0.05475  0.02742  Biso   1.000  C
  C90      1.0000 0.46122  0.08625  0.04506  Biso   1.000  C
  C91      1.0000 0.45870  0.11347  0.99973  Biso   1.000  C
  H41      1.0000 0.46713  0.11247  0.95847  Biso   1.000  H
  C92      1.0000 0.44370  0.14166  0.01599  Biso   1.000  C
  H42      1.0000 0.44263  0.16057  0.98567  Biso   1.000  H
  C93      1.0000 0.43037  0.14305  0.07477  Biso   1.000  C
  C94      1.0000 0.43244  0.11568  0.11977  Biso   1.000  C
  H43      1.0000 0.42333  0.11627  0.16067  Biso   1.000  H
  C95      1.0000 0.44817  0.08739  0.10367  Biso   1.000  C
  H44      1.0000 0.44973  0.06887  0.13417  Biso   1.000  H
  C96      1.0000 0.41145  0.17136  0.09417  Biso   1.000  C
  C97      1.0000 0.37404  0.15361  0.12817  Biso   1.000  C
  H45      1.0000 0.36093  0.12357  0.13937  Biso   1.000  H
  C98      1.0000 0.54383  0.25437  0.02847  Biso   1.000  C
  C99      1.0000 0.52173  0.28397  0.12707  Biso   1.000  C
  O19      1.0000 0.77953  0.63713  0.59741  Biso   1.000  O
  O20      1.0000 0.76628  0.61105  0.69369  Biso   1.000  O
  C100     1.0000 0.75512  0.61192  0.63925  Biso   1.000  C
  C101     1.0000 0.70831  0.58042  0.62161  Biso   1.000  C
  C102     1.0000 0.67857  0.55320  0.66694  Biso   1.000  C
  H46      1.0000 0.68800  0.55420  0.70820  Biso   1.000  H
  C103     1.0000 0.63538  0.52501  0.65068  Biso   1.000  C
  H47      1.0000 0.61540  0.50610  0.68100  Biso   1.000  H
  C104     1.0000 0.62066  0.52362  0.59190  Biso   1.000  C
  C105     1.0000 0.65010  0.55099  0.54690  Biso   1.000  C
  H48      1.0000 0.64040  0.55040  0.50600  Biso   1.000  H
  C106     1.0000 0.69412  0.57928  0.56300  Biso   1.000  C
  H49      1.0000 0.71420  0.59780  0.53250  Biso   1.000  H
  C107     1.0000 0.57343  0.49531  0.57250  Biso   1.000  C
  C108     1.0000 0.55377  0.51306  0.53850  Biso   1.000  C
  H50      1.0000 0.57070  0.54310  0.52730  Biso   1.000  H
  C109     1.0000 0.62280  0.41230  0.63820  Biso   1.000  C
  C110     1.0000 0.57110  0.38270  0.53960  Biso   1.000  C
  O21      1.0000 0.44620  0.97046  0.93074  Biso   1.000  O
  O22      1.0000 0.43295  0.94438  0.02702  Biso   1.000  O
  C111     1.0000 0.42179  0.94525  0.97258  Biso   1.000  C
  C112     1.0000 0.37498  0.91375  0.95494  Biso   1.000  C
  C113     1.0000 0.34524  0.88653  0.00027  Biso   1.000  C
  H51      1.0000 0.35467  0.88753  0.04153  Biso   1.000  H
  C114     1.0000 0.30205  0.85834  0.98401  Biso   1.000  C
  H52      1.0000 0.28207  0.83943  0.01433  Biso   1.000  H
  C115     1.0000 0.28733  0.85695  0.92523  Biso   1.000  C
  C116     1.0000 0.31677  0.88432  0.88023  Biso   1.000  C
  H53      1.0000 0.30707  0.88373  0.83933  Biso   1.000  H
  C117     1.0000 0.36079  0.91261  0.89633  Biso   1.000  C
  H54      1.0000 0.38087  0.93113  0.86583  Biso   1.000  H
  C118     1.0000 0.24010  0.82864  0.90583  Biso   1.000  C
  C119     1.0000 0.22044  0.84639  0.87183  Biso   1.000  C
  H55      1.0000 0.23737  0.87643  0.86063  Biso   1.000  H
  C120     1.0000 0.28947  0.74563  0.97153  Biso   1.000  C
  C121     1.0000 0.23777  0.71603  0.87293  Biso   1.000  C
  O23      1.0000 0.11286  0.30380  0.26408  Biso   1.000  O
  O24      1.0000 0.09961  0.27772  0.36036  Biso   1.000  O
  C122     1.0000 0.08845  0.27859  0.30592  Biso   1.000  C
  C123     1.0000 0.04164  0.24709  0.28828  Biso   1.000  C
  C124     1.0000 0.01190  0.21987  0.33361  Biso   1.000  C
  H56      1.0000 0.02133  0.22087  0.37487  Biso   1.000  H
  C125     1.0000 0.96871  0.19168  0.31735  Biso   1.000  C
  H57      1.0000 0.94873  0.17277  0.34767  Biso   1.000  H
  C126     1.0000 0.95399  0.19029  0.25857  Biso   1.000  C
  C127     1.0000 0.98343  0.21766  0.21357  Biso   1.000  C
  H58      1.0000 0.97373  0.21707  0.17267  Biso   1.000  H
  C128     1.0000 0.02745  0.24595  0.22967  Biso   1.000  C
  H59      1.0000 0.04753  0.26447  0.19917  Biso   1.000  H
  C129     1.0000 0.90676  0.16198  0.23917  Biso   1.000  C
  C130     1.0000 0.88710  0.17973  0.20517  Biso   1.000  C
  H60      1.0000 0.90403  0.20977  0.19397  Biso   1.000  H
  C131     1.0000 0.95613  0.07897  0.30487  Biso   1.000  C
  C132     1.0000 0.90443  0.04937  0.20627  Biso   1.000  C
  O25      1.0000 0.85760  0.22047  0.59741  Biso   1.000  O
  O26      1.0000 0.84477  0.23372  0.69369  Biso   1.000  O
  C133     1.0000 0.85680  0.24488  0.63925  Biso   1.000  C
  C134     1.0000 0.87211  0.29169  0.62161  Biso   1.000  C
  C135     1.0000 0.87463  0.32143  0.66694  Biso   1.000  C
  H61      1.0000 0.86620  0.31200  0.70820  Biso   1.000  H
  C136     1.0000 0.88963  0.36462  0.65068  Biso   1.000  C
  H62      1.0000 0.89070  0.38460  0.68100  Biso   1.000  H
  C137     1.0000 0.90296  0.37934  0.59190  Biso   1.000  C
  C138     1.0000 0.90089  0.34990  0.54690  Biso   1.000  C
  H63      1.0000 0.91000  0.35960  0.50600  Biso   1.000  H
  C139     1.0000 0.88516  0.30588  0.56300  Biso   1.000  C
  H64      1.0000 0.88360  0.28580  0.53250  Biso   1.000  H
  C140     1.0000 0.92188  0.42657  0.57250  Biso   1.000  C
  C141     1.0000 0.95929  0.44623  0.53850  Biso   1.000  C
  H65      1.0000 0.97240  0.42930  0.52730  Biso   1.000  H
  C142     1.0000 0.78950  0.37720  0.63820  Biso   1.000  C
  C143     1.0000 0.81160  0.42890  0.53960  Biso   1.000  C
  O27      1.0000 0.52427  0.55380  0.93074  Biso   1.000  O
  O28      1.0000 0.51144  0.56705  0.02702  Biso   1.000  O
  C144     1.0000 0.52347  0.57821  0.97258  Biso   1.000  C
  C145     1.0000 0.53878  0.62502  0.95494  Biso   1.000  C
  C146     1.0000 0.54130  0.65476  0.00027  Biso   1.000  C
  H66      1.0000 0.53287  0.64533  0.04153  Biso   1.000  H
  C147     1.0000 0.55630  0.69795  0.98401  Biso   1.000  C
  H67      1.0000 0.55737  0.71793  0.01433  Biso   1.000  H
  C148     1.0000 0.56963  0.71267  0.92523  Biso   1.000  C
  C149     1.0000 0.56756  0.68323  0.88023  Biso   1.000  C
  H68      1.0000 0.57667  0.69293  0.83933  Biso   1.000  H
  C150     1.0000 0.55183  0.63921  0.89633  Biso   1.000  C
  H69      1.0000 0.55027  0.61913  0.86583  Biso   1.000  H
  C151     1.0000 0.58855  0.75990  0.90583  Biso   1.000  C
  C152     1.0000 0.62596  0.77956  0.87183  Biso   1.000  C
  H70      1.0000 0.63907  0.76263  0.86063  Biso   1.000  H
  C153     1.0000 0.45617  0.71053  0.97153  Biso   1.000  C
  C154     1.0000 0.47827  0.76223  0.87293  Biso   1.000  C
  O29      1.0000 0.19093  0.88714  0.26408  Biso   1.000  O
  O30      1.0000 0.17810  0.90039  0.36036  Biso   1.000  O
  C155     1.0000 0.19013  0.91155  0.30592  Biso   1.000  C
  C156     1.0000 0.20544  0.95836  0.28828  Biso   1.000  C
  C157     1.0000 0.20796  0.98810  0.33361  Biso   1.000  C
  H71      1.0000 0.19953  0.97867  0.37487  Biso   1.000  H
  C158     1.0000 0.22296  0.03129  0.31735  Biso   1.000  C
  H72      1.0000 0.22403  0.05127  0.34767  Biso   1.000  H
  C159     1.0000 0.23629  0.04601  0.25857  Biso   1.000  C
  C160     1.0000 0.23422  0.01657  0.21357  Biso   1.000  C
  H73      1.0000 0.24333  0.02627  0.17267  Biso   1.000  H
  C161     1.0000 0.21849  0.97255  0.22967  Biso   1.000  C
  H74      1.0000 0.21693  0.95247  0.19917  Biso   1.000  H
  C162     1.0000 0.25521  0.09324  0.23917  Biso   1.000  C
  C163     1.0000 0.29262  0.11290  0.20517  Biso   1.000  C
  H75      1.0000 0.30573  0.09597  0.19397  Biso   1.000  H
  C164     1.0000 0.12283  0.04387  0.30487  Biso   1.000  C
  C165     1.0000 0.14493  0.09557  0.20627  Biso   1.000  C
  O31      1.0000 0.36287  0.14240  0.59741  Biso   1.000  O
  O32      1.0000 0.38895  0.15523  0.69369  Biso   1.000  O
  C166     1.0000 0.38808  0.14320  0.63925  Biso   1.000  C
  C167     1.0000 0.41958  0.12789  0.62161  Biso   1.000  C
  C168     1.0000 0.44680  0.12537  0.66694  Biso   1.000  C
  H76      1.0000 0.44580  0.13380  0.70820  Biso   1.000  H
  C169     1.0000 0.47499  0.11037  0.65068  Biso   1.000  C
  H77      1.0000 0.49390  0.10930  0.68100  Biso   1.000  H
  C170     1.0000 0.47638  0.09704  0.59190  Biso   1.000  C
  C171     1.0000 0.44901  0.09911  0.54690  Biso   1.000  C
  H78      1.0000 0.44960  0.09000  0.50600  Biso   1.000  H
  C172     1.0000 0.42072  0.11484  0.56300  Biso   1.000  C
  H79      1.0000 0.40220  0.11640  0.53250  Biso   1.000  H
  C173     1.0000 0.50469  0.07812  0.57250  Biso   1.000  C
  C174     1.0000 0.48694  0.04071  0.53850  Biso   1.000  C
  H80      1.0000 0.45690  0.02760  0.52730  Biso   1.000  H
  C175     1.0000 0.58770  0.21050  0.63820  Biso   1.000  C
  C176     1.0000 0.61730  0.18840  0.53960  Biso   1.000  C
  O33      1.0000 0.02954  0.47573  0.93074  Biso   1.000  O
  O34      1.0000 0.05562  0.48856  0.02702  Biso   1.000  O
  C177     1.0000 0.05475  0.47653  0.97258  Biso   1.000  C
  C178     1.0000 0.08625  0.46122  0.95494  Biso   1.000  C
  C179     1.0000 0.11347  0.45870  0.00027  Biso   1.000  C
  H81      1.0000 0.11247  0.46713  0.04153  Biso   1.000  H
  C180     1.0000 0.14166  0.44370  0.98401  Biso   1.000  C
  H82      1.0000 0.16057  0.44263  0.01433  Biso   1.000  H
  C181     1.0000 0.14305  0.43037  0.92523  Biso   1.000  C
  C182     1.0000 0.11568  0.43244  0.88023  Biso   1.000  C
  H83      1.0000 0.11627  0.42333  0.83933  Biso   1.000  H
  C183     1.0000 0.08739  0.44817  0.89633  Biso   1.000  C
  H84      1.0000 0.06887  0.44973  0.86583  Biso   1.000  H
  C184     1.0000 0.17136  0.41145  0.90583  Biso   1.000  C
  C185     1.0000 0.15361  0.37404  0.87183  Biso   1.000  C
  H85      1.0000 0.12357  0.36093  0.86063  Biso   1.000  H
  C186     1.0000 0.25437  0.54383  0.97153  Biso   1.000  C
  C187     1.0000 0.28397  0.52173  0.87293  Biso   1.000  C
  O35      1.0000 0.69620  0.80907  0.26408  Biso   1.000  O
  O36      1.0000 0.72228  0.82190  0.36036  Biso   1.000  O
  C188     1.0000 0.72141  0.80987  0.30592  Biso   1.000  C
  C189     1.0000 0.75291  0.79456  0.28828  Biso   1.000  C
  C190     1.0000 0.78013  0.79204  0.33361  Biso   1.000  C
  H86      1.0000 0.77913  0.80047  0.37487  Biso   1.000  H
  C191     1.0000 0.80832  0.77704  0.31735  Biso   1.000  C
  H87      1.0000 0.82723  0.77597  0.34767  Biso   1.000  H
  C192     1.0000 0.80971  0.76371  0.25857  Biso   1.000  C
  C193     1.0000 0.78234  0.76578  0.21357  Biso   1.000  C
  H88      1.0000 0.78293  0.75667  0.17267  Biso   1.000  H
  C194     1.0000 0.75405  0.78151  0.22967  Biso   1.000  C
  H89      1.0000 0.73553  0.78307  0.19917  Biso   1.000  H
  C195     1.0000 0.83802  0.74479  0.23917  Biso   1.000  C
  C196     1.0000 0.82027  0.70738  0.20517  Biso   1.000  C
  H90      1.0000 0.79023  0.69427  0.19397  Biso   1.000  H
  C197     1.0000 0.92103  0.87717  0.30487  Biso   1.000  C
  C198     1.0000 0.95063  0.85507  0.20627  Biso   1.000  C
  O37      1.0000 0.36287  0.22047  0.59741  Biso   1.000  O
  O38      1.0000 0.38895  0.23372  0.69369  Biso   1.000  O
  C199     1.0000 0.38808  0.24488  0.63925  Biso   1.000  C
  C200     1.0000 0.41958  0.29169  0.62161  Biso   1.000  C
  C201     1.0000 0.44680  0.32143  0.66694  Biso   1.000  C
  H91      1.0000 0.44580  0.31200  0.70820  Biso   1.000  H
  C202     1.0000 0.47499  0.36462  0.65068  Biso   1.000  C
  H92      1.0000 0.49390  0.38460  0.68100  Biso   1.000  H
  C203     1.0000 0.47638  0.37934  0.59190  Biso   1.000  C
  C204     1.0000 0.44901  0.34990  0.54690  Biso   1.000  C
  H93      1.0000 0.44960  0.35960  0.50600  Biso   1.000  H
  C205     1.0000 0.42072  0.30588  0.56300  Biso   1.000  C
  H94      1.0000 0.40220  0.28580  0.53250  Biso   1.000  H
  C206     1.0000 0.50469  0.42657  0.57250  Biso   1.000  C
  C207     1.0000 0.48694  0.44623  0.53850  Biso   1.000  C
  H95      1.0000 0.45690  0.42930  0.52730  Biso   1.000  H
  C208     1.0000 0.58770  0.37720  0.63820  Biso   1.000  C
  C209     1.0000 0.61730  0.42890  0.53960  Biso   1.000  C
  O39      1.0000 0.02954  0.55380  0.93074  Biso   1.000  O
  O40      1.0000 0.05562  0.56705  0.02702  Biso   1.000  O
  C210     1.0000 0.05475  0.57821  0.97258  Biso   1.000  C
  C211     1.0000 0.08625  0.62502  0.95494  Biso   1.000  C
  C212     1.0000 0.11347  0.65476  0.00027  Biso   1.000  C
  H96      1.0000 0.11247  0.64533  0.04153  Biso   1.000  H
  C213     1.0000 0.14166  0.69795  0.98401  Biso   1.000  C
  H97      1.0000 0.16057  0.71793  0.01433  Biso   1.000  H
  C214     1.0000 0.14305  0.71267  0.92523  Biso   1.000  C
  C215     1.0000 0.11568  0.68323  0.88023  Biso   1.000  C
  H98      1.0000 0.11627  0.69293  0.83933  Biso   1.000  H
  C216     1.0000 0.08739  0.63921  0.89633  Biso   1.000  C
  H99      1.0000 0.06887  0.61913  0.86583  Biso   1.000  H
  C217     1.0000 0.17136  0.75990  0.90583  Biso   1.000  C
  C218     1.0000 0.15361  0.77956  0.87183  Biso   1.000  C
  H100     1.0000 0.12357  0.76263  0.86063  Biso   1.000  H
  C219     1.0000 0.25437  0.71053  0.97153  Biso   1.000  C
  C220     1.0000 0.28397  0.76223  0.87293  Biso   1.000  C
  O41      1.0000 0.69620  0.88714  0.26408  Biso   1.000  O
  O42      1.0000 0.72228  0.90039  0.36036  Biso   1.000  O
  C221     1.0000 0.72141  0.91155  0.30592  Biso   1.000  C
  C222     1.0000 0.75291  0.95836  0.28828  Biso   1.000  C
  C223     1.0000 0.78013  0.98810  0.33361  Biso   1.000  C
  H101     1.0000 0.77913  0.97867  0.37487  Biso   1.000  H
  C224     1.0000 0.80832  0.03129  0.31735  Biso   1.000  C
  H102     1.0000 0.82723  0.05127  0.34767  Biso   1.000  H
  C225     1.0000 0.80971  0.04601  0.25857  Biso   1.000  C
  C226     1.0000 0.78234  0.01657  0.21357  Biso   1.000  C
  H103     1.0000 0.78293  0.02627  0.17267  Biso   1.000  H
  C227     1.0000 0.75405  0.97255  0.22967  Biso   1.000  C
  H104     1.0000 0.73553  0.95247  0.19917  Biso   1.000  H
  C228     1.0000 0.83802  0.09324  0.23917  Biso   1.000  C
  C229     1.0000 0.82027  0.11290  0.20517  Biso   1.000  C
  H105     1.0000 0.79023  0.09597  0.19397  Biso   1.000  H
  C230     1.0000 0.92103  0.04387  0.30487  Biso   1.000  C
  C231     1.0000 0.95063  0.09557  0.20627  Biso   1.000  C
  O43      1.0000 0.77953  0.14240  0.59741  Biso   1.000  O
  O44      1.0000 0.76628  0.15523  0.69369  Biso   1.000  O
  C232     1.0000 0.75512  0.14320  0.63925  Biso   1.000  C
  C233     1.0000 0.70831  0.12789  0.62161  Biso   1.000  C
  C234     1.0000 0.67857  0.12537  0.66694  Biso   1.000  C
  H106     1.0000 0.68800  0.13380  0.70820  Biso   1.000  H
  C235     1.0000 0.63538  0.11037  0.65068  Biso   1.000  C
  H107     1.0000 0.61540  0.10930  0.68100  Biso   1.000  H
  C236     1.0000 0.62066  0.09704  0.59190  Biso   1.000  C
  C237     1.0000 0.65010  0.09911  0.54690  Biso   1.000  C
  H108     1.0000 0.64040  0.09000  0.50600  Biso   1.000  H
  C238     1.0000 0.69412  0.11484  0.56300  Biso   1.000  C
  H109     1.0000 0.71420  0.11640  0.53250  Biso   1.000  H
  C239     1.0000 0.57343  0.07812  0.57250  Biso   1.000  C
  C240     1.0000 0.55377  0.04071  0.53850  Biso   1.000  C
  H110     1.0000 0.57070  0.02760  0.52730  Biso   1.000  H
  C241     1.0000 0.62280  0.21050  0.63820  Biso   1.000  C
  C242     1.0000 0.57110  0.18840  0.53960  Biso   1.000  C
  O45      1.0000 0.44620  0.47573  0.93074  Biso   1.000  O
  O46      1.0000 0.43295  0.48856  0.02702  Biso   1.000  O
  C243     1.0000 0.42179  0.47653  0.97258  Biso   1.000  C
  C244     1.0000 0.37498  0.46122  0.95494  Biso   1.000  C
  C245     1.0000 0.34524  0.45870  0.00027  Biso   1.000  C
  H111     1.0000 0.35467  0.46713  0.04153  Biso   1.000  H
  C246     1.0000 0.30205  0.44370  0.98401  Biso   1.000  C
  H112     1.0000 0.28207  0.44263  0.01433  Biso   1.000  H
  C247     1.0000 0.28733  0.43037  0.92523  Biso   1.000  C
  C248     1.0000 0.31677  0.43244  0.88023  Biso   1.000  C
  H113     1.0000 0.30707  0.42333  0.83933  Biso   1.000  H
  C249     1.0000 0.36079  0.44817  0.89633  Biso   1.000  C
  H114     1.0000 0.38087  0.44973  0.86583  Biso   1.000  H
  C250     1.0000 0.24010  0.41145  0.90583  Biso   1.000  C
  C251     1.0000 0.22044  0.37404  0.87183  Biso   1.000  C
  H115     1.0000 0.23737  0.36093  0.86063  Biso   1.000  H
  C252     1.0000 0.28947  0.54383  0.97153  Biso   1.000  C
  C253     1.0000 0.23777  0.52173  0.87293  Biso   1.000  C
  O47      1.0000 0.11286  0.80907  0.26408  Biso   1.000  O
  O48      1.0000 0.09961  0.82190  0.36036  Biso   1.000  O
  C254     1.0000 0.08845  0.80987  0.30592  Biso   1.000  C
  C255     1.0000 0.04164  0.79456  0.28828  Biso   1.000  C
  C256     1.0000 0.01190  0.79204  0.33361  Biso   1.000  C
  H116     1.0000 0.02133  0.80047  0.37487  Biso   1.000  H
  C257     1.0000 0.96871  0.77704  0.31735  Biso   1.000  C
  H117     1.0000 0.94873  0.77597  0.34767  Biso   1.000  H
  C258     1.0000 0.95399  0.76371  0.25857  Biso   1.000  C
  C259     1.0000 0.98343  0.76578  0.21357  Biso   1.000  C
  H118     1.0000 0.97373  0.75667  0.17267  Biso   1.000  H
  C260     1.0000 0.02745  0.78151  0.22967  Biso   1.000  C
  H119     1.0000 0.04753  0.78307  0.19917  Biso   1.000  H
  C261     1.0000 0.90676  0.74479  0.23917  Biso   1.000  C
  C262     1.0000 0.88710  0.70738  0.20517  Biso   1.000  C
  H120     1.0000 0.90403  0.69427  0.19397  Biso   1.000  H
  C263     1.0000 0.95613  0.87717  0.30487  Biso   1.000  C
  C264     1.0000 0.90443  0.85507  0.20627  Biso   1.000  C
  O49      1.0000 0.85760  0.63713  0.59741  Biso   1.000  O
  O50      1.0000 0.84477  0.61105  0.69369  Biso   1.000  O
  C265     1.0000 0.85680  0.61192  0.63925  Biso   1.000  C
  C266     1.0000 0.87211  0.58042  0.62161  Biso   1.000  C
  C267     1.0000 0.87463  0.55320  0.66694  Biso   1.000  C
  H121     1.0000 0.86620  0.55420  0.70820  Biso   1.000  H
  C268     1.0000 0.88963  0.52501  0.65068  Biso   1.000  C
  H122     1.0000 0.89070  0.50610  0.68100  Biso   1.000  H
  C269     1.0000 0.90296  0.52362  0.59190  Biso   1.000  C
  C270     1.0000 0.90089  0.55099  0.54690  Biso   1.000  C
  H123     1.0000 0.91000  0.55040  0.50600  Biso   1.000  H
  C271     1.0000 0.88516  0.57928  0.56300  Biso   1.000  C
  H124     1.0000 0.88360  0.59780  0.53250  Biso   1.000  H
  C272     1.0000 0.92188  0.49531  0.57250  Biso   1.000  C
  C273     1.0000 0.95929  0.51306  0.53850  Biso   1.000  C
  H125     1.0000 0.97240  0.54310  0.52730  Biso   1.000  H
  C274     1.0000 0.78950  0.41230  0.63820  Biso   1.000  C
  C275     1.0000 0.81160  0.38270  0.53960  Biso   1.000  C
  O51      1.0000 0.52427  0.97046  0.93074  Biso   1.000  O
  O52      1.0000 0.51144  0.94438  0.02702  Biso   1.000  O
  C276     1.0000 0.52347  0.94525  0.97258  Biso   1.000  C
  C277     1.0000 0.53878  0.91375  0.95494  Biso   1.000  C
  C278     1.0000 0.54130  0.88653  0.00027  Biso   1.000  C
  H126     1.0000 0.53287  0.88753  0.04153  Biso   1.000  H
  C279     1.0000 0.55630  0.85834  0.98401  Biso   1.000  C
  H127     1.0000 0.55737  0.83943  0.01433  Biso   1.000  H
  C280     1.0000 0.56963  0.85695  0.92523  Biso   1.000  C
  C281     1.0000 0.56756  0.88432  0.88023  Biso   1.000  C
  H128     1.0000 0.57667  0.88373  0.83933  Biso   1.000  H
  C282     1.0000 0.55183  0.91261  0.89633  Biso   1.000  C
  H129     1.0000 0.55027  0.93113  0.86583  Biso   1.000  H
  C283     1.0000 0.58855  0.82864  0.90583  Biso   1.000  C
  C284     1.0000 0.62596  0.84639  0.87183  Biso   1.000  C
  H130     1.0000 0.63907  0.87643  0.86063  Biso   1.000  H
  C285     1.0000 0.45617  0.74563  0.97153  Biso   1.000  C
  C286     1.0000 0.47827  0.71603  0.87293  Biso   1.000  C
  O53      1.0000 0.19093  0.30380  0.26408  Biso   1.000  O
  O54      1.0000 0.17810  0.27772  0.36036  Biso   1.000  O
  C287     1.0000 0.19013  0.27859  0.30592  Biso   1.000  C
  C288     1.0000 0.20544  0.24709  0.28828  Biso   1.000  C
  C289     1.0000 0.20796  0.21987  0.33361  Biso   1.000  C
  H131     1.0000 0.19953  0.22087  0.37487  Biso   1.000  H
  C290     1.0000 0.22296  0.19168  0.31735  Biso   1.000  C
  H132     1.0000 0.22403  0.17277  0.34767  Biso   1.000  H
  C291     1.0000 0.23629  0.19029  0.25857  Biso   1.000  C
  C292     1.0000 0.23422  0.21766  0.21357  Biso   1.000  C
  H133     1.0000 0.24333  0.21707  0.17267  Biso   1.000  H
  C293     1.0000 0.21849  0.24595  0.22967  Biso   1.000  C
  H134     1.0000 0.21693  0.26447  0.19917  Biso   1.000  H
  C294     1.0000 0.25521  0.16198  0.23917  Biso   1.000  C
  C295     1.0000 0.29262  0.17973  0.20517  Biso   1.000  C
  H135     1.0000 0.30573  0.20977  0.19397  Biso   1.000  H
  C296     1.0000 0.12283  0.07897  0.30487  Biso   1.000  C
  C297     1.0000 0.14493  0.04937  0.20627  Biso   1.000  C
  O55      1.0000 0.22047  0.36287  0.40259  Biso   1.000  O
  O56      1.0000 0.23372  0.38895  0.30631  Biso   1.000  O
  C298     1.0000 0.24488  0.38808  0.36075  Biso   1.000  C
  C299     1.0000 0.29169  0.41958  0.37839  Biso   1.000  C
  C300     1.0000 0.32143  0.44680  0.33306  Biso   1.000  C
  H136     1.0000 0.31200  0.44580  0.29180  Biso   1.000  H
  C301     1.0000 0.36462  0.47499  0.34932  Biso   1.000  C
  H137     1.0000 0.38460  0.49390  0.31900  Biso   1.000  H
  C302     1.0000 0.37934  0.47638  0.40810  Biso   1.000  C
  C303     1.0000 0.34990  0.44901  0.45310  Biso   1.000  C
  H138     1.0000 0.35960  0.44960  0.49400  Biso   1.000  H
  C304     1.0000 0.30588  0.42072  0.43700  Biso   1.000  C
  H139     1.0000 0.28580  0.40220  0.46750  Biso   1.000  H
  C305     1.0000 0.42657  0.50469  0.42750  Biso   1.000  C
  C306     1.0000 0.44623  0.48694  0.46150  Biso   1.000  C
  H140     1.0000 0.42930  0.45690  0.47270  Biso   1.000  H
  C307     1.0000 0.37720  0.58770  0.36180  Biso   1.000  C
  C308     1.0000 0.42890  0.61730  0.46040  Biso   1.000  C
  O57      1.0000 0.88714  0.69620  0.73592  Biso   1.000  O
  O58      1.0000 0.90039  0.72228  0.63964  Biso   1.000  O
  C309     1.0000 0.91155  0.72141  0.69408  Biso   1.000  C
  C310     1.0000 0.95836  0.75291  0.71172  Biso   1.000  C
  C311     1.0000 0.98810  0.78013  0.66639  Biso   1.000  C
  H141     1.0000 0.97867  0.77913  0.62513  Biso   1.000  H
  C312     1.0000 0.03129  0.80832  0.68265  Biso   1.000  C
  H142     1.0000 0.05127  0.82723  0.65233  Biso   1.000  H
  C313     1.0000 0.04601  0.80971  0.74143  Biso   1.000  C
  C314     1.0000 0.01657  0.78234  0.78643  Biso   1.000  C
  H143     1.0000 0.02627  0.78293  0.82733  Biso   1.000  H
  C315     1.0000 0.97255  0.75405  0.77033  Biso   1.000  C
  H144     1.0000 0.95247  0.73553  0.80083  Biso   1.000  H
  C316     1.0000 0.09324  0.83802  0.76083  Biso   1.000  C
  C317     1.0000 0.11290  0.82027  0.79483  Biso   1.000  C
  H145     1.0000 0.09597  0.79023  0.80603  Biso   1.000  H
  C318     1.0000 0.04387  0.92103  0.69513  Biso   1.000  C
  C319     1.0000 0.09557  0.95063  0.79373  Biso   1.000  C
  O59      1.0000 0.55380  0.02954  0.06926  Biso   1.000  O
  O60      1.0000 0.56705  0.05562  0.97298  Biso   1.000  O
  C320     1.0000 0.57821  0.05475  0.02742  Biso   1.000  C
  C321     1.0000 0.62502  0.08625  0.04506  Biso   1.000  C
  C322     1.0000 0.65476  0.11347  0.99973  Biso   1.000  C
  H146     1.0000 0.64533  0.11247  0.95847  Biso   1.000  H
  C323     1.0000 0.69795  0.14166  0.01599  Biso   1.000  C
  H147     1.0000 0.71793  0.16057  0.98567  Biso   1.000  H
  C324     1.0000 0.71267  0.14305  0.07477  Biso   1.000  C
  C325     1.0000 0.68323  0.11568  0.11977  Biso   1.000  C
  H148     1.0000 0.69293  0.11627  0.16067  Biso   1.000  H
  C326     1.0000 0.63921  0.08739  0.10367  Biso   1.000  C
  H149     1.0000 0.61913  0.06887  0.13417  Biso   1.000  H
  C327     1.0000 0.75990  0.17136  0.09417  Biso   1.000  C
  C328     1.0000 0.77956  0.15361  0.12817  Biso   1.000  C
  H150     1.0000 0.76263  0.12357  0.13937  Biso   1.000  H
  C329     1.0000 0.71053  0.25437  0.02847  Biso   1.000  C
  C330     1.0000 0.76223  0.28397  0.12707  Biso   1.000  C
  O61      1.0000 0.14240  0.77953  0.40259  Biso   1.000  O
  O62      1.0000 0.15523  0.76628  0.30631  Biso   1.000  O
  C331     1.0000 0.14320  0.75512  0.36075  Biso   1.000  C
  C332     1.0000 0.12789  0.70831  0.37839  Biso   1.000  C
  C333     1.0000 0.12537  0.67857  0.33306  Biso   1.000  C
  H151     1.0000 0.13380  0.68800  0.29180  Biso   1.000  H
  C334     1.0000 0.11037  0.63538  0.34932  Biso   1.000  C
  H152     1.0000 0.10930  0.61540  0.31900  Biso   1.000  H
  C335     1.0000 0.09704  0.62066  0.40810  Biso   1.000  C
  C336     1.0000 0.09911  0.65010  0.45310  Biso   1.000  C
  H153     1.0000 0.09000  0.64040  0.49400  Biso   1.000  H
  C337     1.0000 0.11484  0.69412  0.43700  Biso   1.000  C
  H154     1.0000 0.11640  0.71420  0.46750  Biso   1.000  H
  C338     1.0000 0.07812  0.57343  0.42750  Biso   1.000  C
  C339     1.0000 0.04071  0.55377  0.46150  Biso   1.000  C
  H155     1.0000 0.02760  0.57070  0.47270  Biso   1.000  H
  C340     1.0000 0.21050  0.62280  0.36180  Biso   1.000  C
  C341     1.0000 0.18840  0.57110  0.46040  Biso   1.000  C
  O63      1.0000 0.80907  0.11286  0.73592  Biso   1.000  O
  O64      1.0000 0.82190  0.09961  0.63964  Biso   1.000  O
  C342     1.0000 0.80987  0.08845  0.69408  Biso   1.000  C
  C343     1.0000 0.79456  0.04164  0.71172  Biso   1.000  C
  C344     1.0000 0.79204  0.01190  0.66639  Biso   1.000  C
  H156     1.0000 0.80047  0.02133  0.62513  Biso   1.000  H
  C345     1.0000 0.77704  0.96871  0.68265  Biso   1.000  C
  H157     1.0000 0.77597  0.94873  0.65233  Biso   1.000  H
  C346     1.0000 0.76371  0.95399  0.74143  Biso   1.000  C
  C347     1.0000 0.76578  0.98343  0.78643  Biso   1.000  C
  H158     1.0000 0.75667  0.97373  0.82733  Biso   1.000  H
  C348     1.0000 0.78151  0.02745  0.77033  Biso   1.000  C
  H159     1.0000 0.78307  0.04753  0.80083  Biso   1.000  H
  C349     1.0000 0.74479  0.90676  0.76083  Biso   1.000  C
  C350     1.0000 0.70738  0.88710  0.79483  Biso   1.000  C
  H160     1.0000 0.69427  0.90403  0.80603  Biso   1.000  H
  C351     1.0000 0.87717  0.95613  0.69513  Biso   1.000  C
  C352     1.0000 0.85507  0.90443  0.79373  Biso   1.000  C
  O65      1.0000 0.47573  0.44620  0.06926  Biso   1.000  O
  O66      1.0000 0.48856  0.43295  0.97298  Biso   1.000  O
  C353     1.0000 0.47653  0.42179  0.02742  Biso   1.000  C
  C354     1.0000 0.46122  0.37498  0.04506  Biso   1.000  C
  C355     1.0000 0.45870  0.34524  0.99973  Biso   1.000  C
  H161     1.0000 0.46713  0.35467  0.95847  Biso   1.000  H
  C356     1.0000 0.44370  0.30205  0.01599  Biso   1.000  C
  H162     1.0000 0.44263  0.28207  0.98567  Biso   1.000  H
  C357     1.0000 0.43037  0.28733  0.07477  Biso   1.000  C
  C358     1.0000 0.43244  0.31677  0.11977  Biso   1.000  C
  H163     1.0000 0.42333  0.30707  0.16067  Biso   1.000  H
  C359     1.0000 0.44817  0.36079  0.10367  Biso   1.000  C
  H164     1.0000 0.44973  0.38087  0.13417  Biso   1.000  H
  C360     1.0000 0.41145  0.24010  0.09417  Biso   1.000  C
  C361     1.0000 0.37404  0.22044  0.12817  Biso   1.000  C
  H165     1.0000 0.36093  0.23737  0.13937  Biso   1.000  H
  C362     1.0000 0.54383  0.28947  0.02847  Biso   1.000  C
  C363     1.0000 0.52173  0.23777  0.12707  Biso   1.000  C
  O67      1.0000 0.63713  0.85760  0.40259  Biso   1.000  O
  O68      1.0000 0.61105  0.84477  0.30631  Biso   1.000  O
  C364     1.0000 0.61192  0.85680  0.36075  Biso   1.000  C
  C365     1.0000 0.58042  0.87211  0.37839  Biso   1.000  C
  C366     1.0000 0.55320  0.87463  0.33306  Biso   1.000  C
  H166     1.0000 0.55420  0.86620  0.29180  Biso   1.000  H
  C367     1.0000 0.52501  0.88963  0.34932  Biso   1.000  C
  H167     1.0000 0.50610  0.89070  0.31900  Biso   1.000  H
  C368     1.0000 0.52362  0.90296  0.40810  Biso   1.000  C
  C369     1.0000 0.55099  0.90089  0.45310  Biso   1.000  C
  H168     1.0000 0.55040  0.91000  0.49400  Biso   1.000  H
  C370     1.0000 0.57928  0.88516  0.43700  Biso   1.000  C
  H169     1.0000 0.59780  0.88360  0.46750  Biso   1.000  H
  C371     1.0000 0.49531  0.92188  0.42750  Biso   1.000  C
  C372     1.0000 0.51306  0.95929  0.46150  Biso   1.000  C
  H170     1.0000 0.54310  0.97240  0.47270  Biso   1.000  H
  C373     1.0000 0.41230  0.78950  0.36180  Biso   1.000  C
  C374     1.0000 0.38270  0.81160  0.46040  Biso   1.000  C
  O69      1.0000 0.30380  0.19093  0.73592  Biso   1.000  O
  O70      1.0000 0.27772  0.17810  0.63964  Biso   1.000  O
  C375     1.0000 0.27859  0.19013  0.69408  Biso   1.000  C
  C376     1.0000 0.24709  0.20544  0.71172  Biso   1.000  C
  C377     1.0000 0.21987  0.20796  0.66639  Biso   1.000  C
  H171     1.0000 0.22087  0.19953  0.62513  Biso   1.000  H
  C378     1.0000 0.19168  0.22296  0.68265  Biso   1.000  C
  H172     1.0000 0.17277  0.22403  0.65233  Biso   1.000  H
  C379     1.0000 0.19029  0.23629  0.74143  Biso   1.000  C
  C380     1.0000 0.21766  0.23422  0.78643  Biso   1.000  C
  H173     1.0000 0.21707  0.24333  0.82733  Biso   1.000  H
  C381     1.0000 0.24595  0.21849  0.77033  Biso   1.000  C
  H174     1.0000 0.26447  0.21693  0.80083  Biso   1.000  H
  C382     1.0000 0.16198  0.25521  0.76083  Biso   1.000  C
  C383     1.0000 0.17973  0.29262  0.79483  Biso   1.000  C
  H175     1.0000 0.20977  0.30573  0.80603  Biso   1.000  H
  C384     1.0000 0.07897  0.12283  0.69513  Biso   1.000  C
  C385     1.0000 0.04937  0.14493  0.79373  Biso   1.000  C
  O71      1.0000 0.97046  0.52427  0.06926  Biso   1.000  O
  O72      1.0000 0.94438  0.51144  0.97298  Biso   1.000  O
  C386     1.0000 0.94525  0.52347  0.02742  Biso   1.000  C
  C387     1.0000 0.91375  0.53878  0.04506  Biso   1.000  C
  C388     1.0000 0.88653  0.54130  0.99973  Biso   1.000  C
  H176     1.0000 0.88753  0.53287  0.95847  Biso   1.000  H
  C389     1.0000 0.85834  0.55630  0.01599  Biso   1.000  C
  H177     1.0000 0.83943  0.55737  0.98567  Biso   1.000  H
  C390     1.0000 0.85695  0.56963  0.07477  Biso   1.000  C
  C391     1.0000 0.88432  0.56756  0.11977  Biso   1.000  C
  H178     1.0000 0.88373  0.57667  0.16067  Biso   1.000  H
  C392     1.0000 0.91261  0.55183  0.10367  Biso   1.000  C
  H179     1.0000 0.93113  0.55027  0.13417  Biso   1.000  H
  C393     1.0000 0.82864  0.58855  0.09417  Biso   1.000  C
  C394     1.0000 0.84639  0.62596  0.12817  Biso   1.000  C
  H180     1.0000 0.87643  0.63907  0.13937  Biso   1.000  H
  C395     1.0000 0.74563  0.45617  0.02847  Biso   1.000  C
  C396     1.0000 0.71603  0.47827  0.12707  Biso   1.000  C
  Cu1      1.0000 0.68152  0.84076  0.39081  Biso   1.000  Cu
  Cu2      1.0000 0.34819  0.17409  0.72414  Biso   1.000  Cu
  Cu3      1.0000 0.01485  0.50743  0.05748  Biso   1.000  Cu
  Cu4      1.0000 0.15924  0.84076  0.39081  Biso   1.000  Cu
  Cu5      1.0000 0.82591  0.17409  0.72414  Biso   1.000  Cu
  Cu6      1.0000 0.49257  0.50743  0.05748  Biso   1.000  Cu
  Cu7      1.0000 0.15924  0.31848  0.39081  Biso   1.000  Cu
  Cu8      1.0000 0.82591  0.65181  0.72414  Biso   1.000  Cu
  Cu9      1.0000 0.49257  0.98515  0.05748  Biso   1.000  Cu
  Cu10     1.0000 0.84076  0.68152  0.60919  Biso   1.000  Cu
  Cu11     1.0000 0.50743  0.01485  0.94252  Biso   1.000  Cu
  Cu12     1.0000 0.17409  0.34819  0.27586  Biso   1.000  Cu
  Cu13     1.0000 0.84076  0.15924  0.60919  Biso   1.000  Cu
  Cu14     1.0000 0.50743  0.49257  0.94252  Biso   1.000  Cu
  Cu15     1.0000 0.17409  0.82591  0.27586  Biso   1.000  Cu
  Cu16     1.0000 0.31848  0.15924  0.60919  Biso   1.000  Cu
  Cu17     1.0000 0.98515  0.49257  0.94252  Biso   1.000  Cu
  Cu18     1.0000 0.65181  0.82591  0.27586  Biso   1.000  Cu
  O73      1.0000 0.43239  0.56761  0.37370  Biso   1.000  O
  C397     1.0000 0.48977  0.51023  0.48090  Biso   1.000  C
  C398     1.0000 0.45136  0.54864  0.40850  Biso   1.000  C
  C399     1.0000 0.41135  0.58865  0.40920  Biso   1.000  C
  O74      1.0000 0.09906  0.90094  0.70703  Biso   1.000  O
  C400     1.0000 0.15644  0.84356  0.81423  Biso   1.000  C
  C401     1.0000 0.11803  0.88197  0.74183  Biso   1.000  C
  C402     1.0000 0.07802  0.92198  0.74253  Biso   1.000  C
  O75      1.0000 0.76572  0.23428  0.04037  Biso   1.000  O
  C403     1.0000 0.82310  0.17690  0.14757  Biso   1.000  C
  C404     1.0000 0.78469  0.21531  0.07517  Biso   1.000  C
  C405     1.0000 0.74468  0.25532  0.07587  Biso   1.000  C
  O76      1.0000 0.43239  0.86478  0.37370  Biso   1.000  O
  C406     1.0000 0.48977  0.97954  0.48090  Biso   1.000  C
  C407     1.0000 0.45136  0.90272  0.40850  Biso   1.000  C
  C408     1.0000 0.41135  0.82270  0.40920  Biso   1.000  C
  O77      1.0000 0.09906  0.19811  0.70703  Biso   1.000  O
  C409     1.0000 0.15644  0.31287  0.81423  Biso   1.000  C
  C410     1.0000 0.11803  0.23605  0.74183  Biso   1.000  C
  C411     1.0000 0.07802  0.15603  0.74253  Biso   1.000  C
  O78      1.0000 0.76572  0.53145  0.04037  Biso   1.000  O
  C412     1.0000 0.82310  0.64621  0.14757  Biso   1.000  C
  C413     1.0000 0.78469  0.56939  0.07517  Biso   1.000  C
  C414     1.0000 0.74468  0.48937  0.07587  Biso   1.000  C
  O79      1.0000 0.13522  0.56761  0.37370  Biso   1.000  O
  C415     1.0000 0.02046  0.51023  0.48090  Biso   1.000  C
  C416     1.0000 0.09728  0.54864  0.40850  Biso   1.000  C
  C417     1.0000 0.17730  0.58865  0.40920  Biso   1.000  C
  O80      1.0000 0.80189  0.90094  0.70703  Biso   1.000  O
  C418     1.0000 0.68713  0.84356  0.81423  Biso   1.000  C
  C419     1.0000 0.76395  0.88197  0.74183  Biso   1.000  C
  C420     1.0000 0.84397  0.92198  0.74253  Biso   1.000  C
  O81      1.0000 0.46855  0.23428  0.04037  Biso   1.000  O
  C421     1.0000 0.35379  0.17690  0.14757  Biso   1.000  C
  C422     1.0000 0.43061  0.21531  0.07517  Biso   1.000  C
  C423     1.0000 0.51063  0.25532  0.07587  Biso   1.000  C
  O82      1.0000 0.56761  0.43239  0.62630  Biso   1.000  O
  C424     1.0000 0.51023  0.48977  0.51910  Biso   1.000  C
  C425     1.0000 0.54864  0.45136  0.59150  Biso   1.000  C
  C426     1.0000 0.58865  0.41135  0.59080  Biso   1.000  C
  O83      1.0000 0.23428  0.76572  0.95963  Biso   1.000  O
  C427     1.0000 0.17690  0.82310  0.85243  Biso   1.000  C
  C428     1.0000 0.21531  0.78469  0.92483  Biso   1.000  C
  C429     1.0000 0.25532  0.74468  0.92413  Biso   1.000  C
  O84      1.0000 0.90094  0.09906  0.29297  Biso   1.000  O
  C430     1.0000 0.84356  0.15644  0.18577  Biso   1.000  C
  C431     1.0000 0.88197  0.11803  0.25817  Biso   1.000  C
  C432     1.0000 0.92198  0.07802  0.25747  Biso   1.000  C
  O85      1.0000 0.86478  0.43239  0.62630  Biso   1.000  O
  C433     1.0000 0.97954  0.48977  0.51910  Biso   1.000  C
  C434     1.0000 0.90272  0.45136  0.59150  Biso   1.000  C
  C435     1.0000 0.82270  0.41135  0.59080  Biso   1.000  C
  O86      1.0000 0.53145  0.76572  0.95963  Biso   1.000  O
  C436     1.0000 0.64621  0.82310  0.85243  Biso   1.000  C
  C437     1.0000 0.56939  0.78469  0.92483  Biso   1.000  C
  C438     1.0000 0.48937  0.74468  0.92413  Biso   1.000  C
  O87      1.0000 0.19811  0.09906  0.29297  Biso   1.000  O
  C439     1.0000 0.31287  0.15644  0.18577  Biso   1.000  C
  C440     1.0000 0.23605  0.11803  0.25817  Biso   1.000  C
  C441     1.0000 0.15603  0.07802  0.25747  Biso   1.000  C
  O88      1.0000 0.56761  0.13522  0.62630  Biso   1.000  O
  C442     1.0000 0.51023  0.02046  0.51910  Biso   1.000  C
  C443     1.0000 0.54864  0.09728  0.59150  Biso   1.000  C
  C444     1.0000 0.58865  0.17730  0.59080  Biso   1.000  C
  O89      1.0000 0.23428  0.46855  0.95963  Biso   1.000  O
  C445     1.0000 0.17690  0.35379  0.85243  Biso   1.000  C
  C446     1.0000 0.21531  0.43061  0.92483  Biso   1.000  C
  C447     1.0000 0.25532  0.51063  0.92413  Biso   1.000  C
  O90      1.0000 0.90094  0.80189  0.29297  Biso   1.000  O
  C448     1.0000 0.84356  0.68713  0.18577  Biso   1.000  C
  C449     1.0000 0.88197  0.76395  0.25817  Biso   1.000  C
  C450     1.0000 0.92198  0.84397  0.25747  Biso   1.000  C
