data_image0
_cell_length_a       35.852
_cell_length_b       35.852
_cell_length_c       15.301
_cell_angle_alpha    90
_cell_angle_beta     90
_cell_angle_gamma    120

_symmetry_space_group_name_H-M    "P 1"
_symmetry_int_tables_number       1

loop_
  _symmetry_equiv_pos_as_xyz
  'x, y, z'

loop_
  _atom_site_label
  _atom_site_occupancy
  _atom_site_fract_x
  _atom_site_fract_y
  _atom_site_fract_z
  _atom_site_thermal_displace_type
  _atom_site_B_iso_or_equiv
  _atom_site_type_symbol
  O1       1.0000 0.22353  0.36933  0.41470  Biso   1.000  O
  O2       1.0000 0.23119  0.38490  0.27120  Biso   1.000  O
  C1       1.0000 0.24539  0.39093  0.34750  Biso   1.000  C
  C2       1.0000 0.29143  0.42192  0.36270  Biso   1.000  C
  C3       1.0000 0.31860  0.44880  0.29580  Biso   1.000  C
  H1       1.0000 0.30730  0.44820  0.24070  Biso   1.000  H
  C4       1.0000 0.36150  0.47580  0.31170  Biso   1.000  C
  H2       1.0000 0.37960  0.49190  0.26610  Biso   1.000  H
  C5       1.0000 0.37836  0.47939  0.39350  Biso   1.000  C
  C6       1.0000 0.35130  0.45530  0.45920  Biso   1.000  C
  H3       1.0000 0.36230  0.45810  0.51540  Biso   1.000  H
  C7       1.0000 0.30860  0.42710  0.44500  Biso   1.000  C
  H4       1.0000 0.29100  0.41130  0.49140  Biso   1.000  H
  C8       1.0000 0.42581  0.50675  0.41270  Biso   1.000  C
  C9       1.0000 0.44580  0.48815  0.45340  Biso   1.000  C
  H5       1.0000 0.43010  0.45880  0.46550  Biso   1.000  H
  O3       1.0000 0.89020  0.70266  0.74803  Biso   1.000  O
  O4       1.0000 0.89786  0.71823  0.60453  Biso   1.000  O
  C10      1.0000 0.91206  0.72426  0.68083  Biso   1.000  C
  C11      1.0000 0.95810  0.75525  0.69603  Biso   1.000  C
  C12      1.0000 0.98527  0.78213  0.62913  Biso   1.000  C
  H6       1.0000 0.97397  0.78153  0.57403  Biso   1.000  H
  C13      1.0000 0.02817  0.80913  0.64503  Biso   1.000  C
  H7       1.0000 0.04627  0.82523  0.59943  Biso   1.000  H
  C14      1.0000 0.04503  0.81272  0.72683  Biso   1.000  C
  C15      1.0000 0.01797  0.78863  0.79253  Biso   1.000  C
  H8       1.0000 0.02897  0.79143  0.84873  Biso   1.000  H
  C16      1.0000 0.97527  0.76043  0.77833  Biso   1.000  C
  H9       1.0000 0.95767  0.74463  0.82473  Biso   1.000  H
  C17      1.0000 0.09248  0.84008  0.74603  Biso   1.000  C
  C18      1.0000 0.11247  0.82148  0.78673  Biso   1.000  C
  H10      1.0000 0.09677  0.79213  0.79883  Biso   1.000  H
  O5       1.0000 0.55686  0.03600  0.08137  Biso   1.000  O
  O6       1.0000 0.56452  0.05157  0.93787  Biso   1.000  O
  C19      1.0000 0.57872  0.05760  0.01417  Biso   1.000  C
  C20      1.0000 0.62476  0.08859  0.02937  Biso   1.000  C
  C21      1.0000 0.65193  0.11547  0.96247  Biso   1.000  C
  H11      1.0000 0.64063  0.11487  0.90737  Biso   1.000  H
  C22      1.0000 0.69483  0.14247  0.97837  Biso   1.000  C
  H12      1.0000 0.71293  0.15857  0.93277  Biso   1.000  H
  C23      1.0000 0.71169  0.14606  0.06017  Biso   1.000  C
  C24      1.0000 0.68463  0.12197  0.12587  Biso   1.000  C
  H13      1.0000 0.69563  0.12477  0.18207  Biso   1.000  H
  C25      1.0000 0.64193  0.09377  0.11167  Biso   1.000  C
  H14      1.0000 0.62433  0.07797  0.15807  Biso   1.000  H
  C26      1.0000 0.75914  0.17342  0.07937  Biso   1.000  C
  C27      1.0000 0.77913  0.15482  0.12007  Biso   1.000  C
  H15      1.0000 0.76343  0.12547  0.13217  Biso   1.000  H
  O7       1.0000 0.63067  0.85420  0.41470  Biso   1.000  O
  O8       1.0000 0.61510  0.84629  0.27120  Biso   1.000  O
  C28      1.0000 0.60907  0.85446  0.34750  Biso   1.000  C
  C29      1.0000 0.57808  0.86951  0.36270  Biso   1.000  C
  C30      1.0000 0.55120  0.86980  0.29580  Biso   1.000  C
  H16      1.0000 0.55180  0.85910  0.24070  Biso   1.000  H
  C31      1.0000 0.52420  0.88570  0.31170  Biso   1.000  C
  H17      1.0000 0.50810  0.88770  0.26610  Biso   1.000  H
  C32      1.0000 0.52061  0.89897  0.39350  Biso   1.000  C
  C33      1.0000 0.54470  0.89600  0.45920  Biso   1.000  C
  H18      1.0000 0.54190  0.90420  0.51540  Biso   1.000  H
  C34      1.0000 0.57290  0.88150  0.44500  Biso   1.000  C
  H19      1.0000 0.58870  0.87970  0.49140  Biso   1.000  H
  C35      1.0000 0.49325  0.91906  0.41270  Biso   1.000  C
  C36      1.0000 0.51185  0.95765  0.45340  Biso   1.000  C
  H20      1.0000 0.54120  0.97130  0.46550  Biso   1.000  H
  O9       1.0000 0.29734  0.18753  0.74803  Biso   1.000  O
  O10      1.0000 0.28177  0.17962  0.60453  Biso   1.000  O
  C37      1.0000 0.27574  0.18779  0.68083  Biso   1.000  C
  C38      1.0000 0.24475  0.20284  0.69603  Biso   1.000  C
  C39      1.0000 0.21787  0.20313  0.62913  Biso   1.000  C
  H21      1.0000 0.21847  0.19243  0.57403  Biso   1.000  H
  C40      1.0000 0.19087  0.21903  0.64503  Biso   1.000  C
  H22      1.0000 0.17477  0.22103  0.59943  Biso   1.000  H
  C41      1.0000 0.18728  0.23230  0.72683  Biso   1.000  C
  C42      1.0000 0.21137  0.22933  0.79253  Biso   1.000  C
  H23      1.0000 0.20857  0.23753  0.84873  Biso   1.000  H
  C43      1.0000 0.23957  0.21483  0.77833  Biso   1.000  C
  H24      1.0000 0.25537  0.21303  0.82473  Biso   1.000  H
  C44      1.0000 0.15992  0.25239  0.74603  Biso   1.000  C
  C45      1.0000 0.17852  0.29098  0.78673  Biso   1.000  C
  H25      1.0000 0.20787  0.30463  0.79883  Biso   1.000  H
  O11      1.0000 0.96400  0.52087  0.08137  Biso   1.000  O
  O12      1.0000 0.94843  0.51296  0.93787  Biso   1.000  O
  C46      1.0000 0.94240  0.52113  0.01417  Biso   1.000  C
  C47      1.0000 0.91141  0.53618  0.02937  Biso   1.000  C
  C48      1.0000 0.88453  0.53647  0.96247  Biso   1.000  C
  H26      1.0000 0.88513  0.52577  0.90737  Biso   1.000  H
  C49      1.0000 0.85753  0.55237  0.97837  Biso   1.000  C
  H27      1.0000 0.84143  0.55437  0.93277  Biso   1.000  H
  C50      1.0000 0.85394  0.56564  0.06017  Biso   1.000  C
  C51      1.0000 0.87803  0.56267  0.12587  Biso   1.000  C
  H28      1.0000 0.87523  0.57087  0.18207  Biso   1.000  H
  C52      1.0000 0.90623  0.54817  0.11167  Biso   1.000  C
  H29      1.0000 0.92203  0.54637  0.15807  Biso   1.000  H
  C53      1.0000 0.82658  0.58573  0.07937  Biso   1.000  C
  C54      1.0000 0.84518  0.62432  0.12007  Biso   1.000  C
  H30      1.0000 0.87453  0.63797  0.13217  Biso   1.000  H
  O13      1.0000 0.14580  0.77647  0.41470  Biso   1.000  O
  O14      1.0000 0.15371  0.76881  0.27120  Biso   1.000  O
  C55      1.0000 0.14554  0.75461  0.34750  Biso   1.000  C
  C56      1.0000 0.13049  0.70857  0.36270  Biso   1.000  C
  C57      1.0000 0.13020  0.68140  0.29580  Biso   1.000  C
  H31      1.0000 0.14090  0.69270  0.24070  Biso   1.000  H
  C58      1.0000 0.11430  0.63850  0.31170  Biso   1.000  C
  H32      1.0000 0.11230  0.62040  0.26610  Biso   1.000  H
  C59      1.0000 0.10103  0.62164  0.39350  Biso   1.000  C
  C60      1.0000 0.10400  0.64870  0.45920  Biso   1.000  C
  H33      1.0000 0.09580  0.63770  0.51540  Biso   1.000  H
  C61      1.0000 0.11850  0.69140  0.44500  Biso   1.000  C
  H34      1.0000 0.12030  0.70900  0.49140  Biso   1.000  H
  C62      1.0000 0.08094  0.57419  0.41270  Biso   1.000  C
  C63      1.0000 0.04235  0.55420  0.45340  Biso   1.000  C
  H35      1.0000 0.02870  0.56990  0.46550  Biso   1.000  H
  O15      1.0000 0.81247  0.10980  0.74803  Biso   1.000  O
  O16      1.0000 0.82038  0.10214  0.60453  Biso   1.000  O
  C64      1.0000 0.81221  0.08794  0.68083  Biso   1.000  C
  C65      1.0000 0.79716  0.04190  0.69603  Biso   1.000  C
  C66      1.0000 0.79687  0.01473  0.62913  Biso   1.000  C
  H36      1.0000 0.80757  0.02603  0.57403  Biso   1.000  H
  C67      1.0000 0.78097  0.97183  0.64503  Biso   1.000  C
  H37      1.0000 0.77897  0.95373  0.59943  Biso   1.000  H
  C68      1.0000 0.76770  0.95497  0.72683  Biso   1.000  C
  C69      1.0000 0.77067  0.98203  0.79253  Biso   1.000  C
  H38      1.0000 0.76247  0.97103  0.84873  Biso   1.000  H
  C70      1.0000 0.78517  0.02473  0.77833  Biso   1.000  C
  H39      1.0000 0.78697  0.04233  0.82473  Biso   1.000  H
  C71      1.0000 0.74761  0.90752  0.74603  Biso   1.000  C
  C72      1.0000 0.70902  0.88753  0.78673  Biso   1.000  C
  H40      1.0000 0.69537  0.90323  0.79883  Biso   1.000  H
  O17      1.0000 0.47913  0.44314  0.08137  Biso   1.000  O
  O18      1.0000 0.48704  0.43548  0.93787  Biso   1.000  O
  C73      1.0000 0.47887  0.42128  0.01417  Biso   1.000  C
  C74      1.0000 0.46382  0.37524  0.02937  Biso   1.000  C
  C75      1.0000 0.46353  0.34807  0.96247  Biso   1.000  C
  H41      1.0000 0.47423  0.35937  0.90737  Biso   1.000  H
  C76      1.0000 0.44763  0.30517  0.97837  Biso   1.000  C
  H42      1.0000 0.44563  0.28707  0.93277  Biso   1.000  H
  C77      1.0000 0.43436  0.28831  0.06017  Biso   1.000  C
  C78      1.0000 0.43733  0.31537  0.12587  Biso   1.000  C
  H43      1.0000 0.42913  0.30437  0.18207  Biso   1.000  H
  C79      1.0000 0.45183  0.35807  0.11167  Biso   1.000  C
  H44      1.0000 0.45363  0.37567  0.15807  Biso   1.000  H
  C80      1.0000 0.41427  0.24086  0.07937  Biso   1.000  C
  C81      1.0000 0.37568  0.22087  0.12007  Biso   1.000  C
  H45      1.0000 0.36203  0.23657  0.13217  Biso   1.000  H
  O19      1.0000 0.36933  0.22353  0.58530  Biso   1.000  O
  O20      1.0000 0.38490  0.23119  0.72880  Biso   1.000  O
  C82      1.0000 0.39093  0.24539  0.65250  Biso   1.000  C
  C83      1.0000 0.42192  0.29143  0.63730  Biso   1.000  C
  C84      1.0000 0.44880  0.31860  0.70420  Biso   1.000  C
  H46      1.0000 0.44820  0.30730  0.75930  Biso   1.000  H
  C85      1.0000 0.47580  0.36150  0.68830  Biso   1.000  C
  H47      1.0000 0.49190  0.37960  0.73390  Biso   1.000  H
  C86      1.0000 0.47939  0.37836  0.60650  Biso   1.000  C
  C87      1.0000 0.45530  0.35130  0.54080  Biso   1.000  C
  H48      1.0000 0.45810  0.36230  0.48460  Biso   1.000  H
  C88      1.0000 0.42710  0.30860  0.55500  Biso   1.000  C
  H49      1.0000 0.41130  0.29100  0.50860  Biso   1.000  H
  C89      1.0000 0.50675  0.42581  0.58730  Biso   1.000  C
  C90      1.0000 0.48815  0.44580  0.54660  Biso   1.000  C
  H50      1.0000 0.45880  0.43010  0.53450  Biso   1.000  H
  O21      1.0000 0.03600  0.55686  0.91863  Biso   1.000  O
  O22      1.0000 0.05157  0.56452  0.06213  Biso   1.000  O
  C91      1.0000 0.05760  0.57872  0.98583  Biso   1.000  C
  C92      1.0000 0.08859  0.62476  0.97063  Biso   1.000  C
  C93      1.0000 0.11547  0.65193  0.03753  Biso   1.000  C
  H51      1.0000 0.11487  0.64063  0.09263  Biso   1.000  H
  C94      1.0000 0.14247  0.69483  0.02163  Biso   1.000  C
  H52      1.0000 0.15857  0.71293  0.06723  Biso   1.000  H
  C95      1.0000 0.14606  0.71169  0.93983  Biso   1.000  C
  C96      1.0000 0.12197  0.68463  0.87413  Biso   1.000  C
  H53      1.0000 0.12477  0.69563  0.81793  Biso   1.000  H
  C97      1.0000 0.09377  0.64193  0.88833  Biso   1.000  C
  H54      1.0000 0.07797  0.62433  0.84193  Biso   1.000  H
  C98      1.0000 0.17342  0.75914  0.92063  Biso   1.000  C
  C99      1.0000 0.15482  0.77913  0.87993  Biso   1.000  C
  H55      1.0000 0.12547  0.76343  0.86783  Biso   1.000  H
  O23      1.0000 0.70266  0.89020  0.25197  Biso   1.000  O
  O24      1.0000 0.71823  0.89786  0.39547  Biso   1.000  O
  C100     1.0000 0.72426  0.91206  0.31917  Biso   1.000  C
  C101     1.0000 0.75525  0.95810  0.30397  Biso   1.000  C
  C102     1.0000 0.78213  0.98527  0.37087  Biso   1.000  C
  H56      1.0000 0.78153  0.97397  0.42597  Biso   1.000  H
  C103     1.0000 0.80913  0.02817  0.35497  Biso   1.000  C
  H57      1.0000 0.82523  0.04627  0.40057  Biso   1.000  H
  C104     1.0000 0.81272  0.04503  0.27317  Biso   1.000  C
  C105     1.0000 0.78863  0.01797  0.20747  Biso   1.000  C
  H58      1.0000 0.79143  0.02897  0.15127  Biso   1.000  H
  C106     1.0000 0.76043  0.97527  0.22167  Biso   1.000  C
  H59      1.0000 0.74463  0.95767  0.17527  Biso   1.000  H
  C107     1.0000 0.84008  0.09248  0.25397  Biso   1.000  C
  C108     1.0000 0.82148  0.11247  0.21327  Biso   1.000  C
  H60      1.0000 0.79213  0.09677  0.20117  Biso   1.000  H
  O25      1.0000 0.85420  0.63067  0.58530  Biso   1.000  O
  O26      1.0000 0.84629  0.61510  0.72880  Biso   1.000  O
  C109     1.0000 0.85446  0.60907  0.65250  Biso   1.000  C
  C110     1.0000 0.86951  0.57808  0.63730  Biso   1.000  C
  C111     1.0000 0.86980  0.55120  0.70420  Biso   1.000  C
  H61      1.0000 0.85910  0.55180  0.75930  Biso   1.000  H
  C112     1.0000 0.88570  0.52420  0.68830  Biso   1.000  C
  H62      1.0000 0.88770  0.50810  0.73390  Biso   1.000  H
  C113     1.0000 0.89897  0.52061  0.60650  Biso   1.000  C
  C114     1.0000 0.89600  0.54470  0.54080  Biso   1.000  C
  H63      1.0000 0.90420  0.54190  0.48460  Biso   1.000  H
  C115     1.0000 0.88150  0.57290  0.55500  Biso   1.000  C
  H64      1.0000 0.87970  0.58870  0.50860  Biso   1.000  H
  C116     1.0000 0.91906  0.49325  0.58730  Biso   1.000  C
  C117     1.0000 0.95765  0.51185  0.54660  Biso   1.000  C
  H65      1.0000 0.97130  0.54120  0.53450  Biso   1.000  H
  O27      1.0000 0.52087  0.96400  0.91863  Biso   1.000  O
  O28      1.0000 0.51296  0.94843  0.06213  Biso   1.000  O
  C118     1.0000 0.52113  0.94240  0.98583  Biso   1.000  C
  C119     1.0000 0.53618  0.91141  0.97063  Biso   1.000  C
  C120     1.0000 0.53647  0.88453  0.03753  Biso   1.000  C
  H66      1.0000 0.52577  0.88513  0.09263  Biso   1.000  H
  C121     1.0000 0.55237  0.85753  0.02163  Biso   1.000  C
  H67      1.0000 0.55437  0.84143  0.06723  Biso   1.000  H
  C122     1.0000 0.56564  0.85394  0.93983  Biso   1.000  C
  C123     1.0000 0.56267  0.87803  0.87413  Biso   1.000  C
  H68      1.0000 0.57087  0.87523  0.81793  Biso   1.000  H
  C124     1.0000 0.54817  0.90623  0.88833  Biso   1.000  C
  H69      1.0000 0.54637  0.92203  0.84193  Biso   1.000  H
  C125     1.0000 0.58573  0.82658  0.92063  Biso   1.000  C
  C126     1.0000 0.62432  0.84518  0.87993  Biso   1.000  C
  H70      1.0000 0.63797  0.87453  0.86783  Biso   1.000  H
  O29      1.0000 0.18753  0.29734  0.25197  Biso   1.000  O
  O30      1.0000 0.17962  0.28177  0.39547  Biso   1.000  O
  C127     1.0000 0.18779  0.27574  0.31917  Biso   1.000  C
  C128     1.0000 0.20284  0.24475  0.30397  Biso   1.000  C
  C129     1.0000 0.20313  0.21787  0.37087  Biso   1.000  C
  H71      1.0000 0.19243  0.21847  0.42597  Biso   1.000  H
  C130     1.0000 0.21903  0.19087  0.35497  Biso   1.000  C
  H72      1.0000 0.22103  0.17477  0.40057  Biso   1.000  H
  C131     1.0000 0.23230  0.18728  0.27317  Biso   1.000  C
  C132     1.0000 0.22933  0.21137  0.20747  Biso   1.000  C
  H73      1.0000 0.23753  0.20857  0.15127  Biso   1.000  H
  C133     1.0000 0.21483  0.23957  0.22167  Biso   1.000  C
  H74      1.0000 0.21303  0.25537  0.17527  Biso   1.000  H
  C134     1.0000 0.25239  0.15992  0.25397  Biso   1.000  C
  C135     1.0000 0.29098  0.17852  0.21327  Biso   1.000  C
  H75      1.0000 0.30463  0.20787  0.20117  Biso   1.000  H
  O31      1.0000 0.77647  0.14580  0.58530  Biso   1.000  O
  O32      1.0000 0.76881  0.15371  0.72880  Biso   1.000  O
  C136     1.0000 0.75461  0.14554  0.65250  Biso   1.000  C
  C137     1.0000 0.70857  0.13049  0.63730  Biso   1.000  C
  C138     1.0000 0.68140  0.13020  0.70420  Biso   1.000  C
  H76      1.0000 0.69270  0.14090  0.75930  Biso   1.000  H
  C139     1.0000 0.63850  0.11430  0.68830  Biso   1.000  C
  H77      1.0000 0.62040  0.11230  0.73390  Biso   1.000  H
  C140     1.0000 0.62164  0.10103  0.60650  Biso   1.000  C
  C141     1.0000 0.64870  0.10400  0.54080  Biso   1.000  C
  H78      1.0000 0.63770  0.09580  0.48460  Biso   1.000  H
  C142     1.0000 0.69140  0.11850  0.55500  Biso   1.000  C
  H79      1.0000 0.70900  0.12030  0.50860  Biso   1.000  H
  C143     1.0000 0.57419  0.08094  0.58730  Biso   1.000  C
  C144     1.0000 0.55420  0.04235  0.54660  Biso   1.000  C
  H80      1.0000 0.56990  0.02870  0.53450  Biso   1.000  H
  O33      1.0000 0.44314  0.47913  0.91863  Biso   1.000  O
  O34      1.0000 0.43548  0.48704  0.06213  Biso   1.000  O
  C145     1.0000 0.42128  0.47887  0.98583  Biso   1.000  C
  C146     1.0000 0.37524  0.46382  0.97063  Biso   1.000  C
  C147     1.0000 0.34807  0.46353  0.03753  Biso   1.000  C
  H81      1.0000 0.35937  0.47423  0.09263  Biso   1.000  H
  C148     1.0000 0.30517  0.44763  0.02163  Biso   1.000  C
  H82      1.0000 0.28707  0.44563  0.06723  Biso   1.000  H
  C149     1.0000 0.28831  0.43436  0.93983  Biso   1.000  C
  C150     1.0000 0.31537  0.43733  0.87413  Biso   1.000  C
  H83      1.0000 0.30437  0.42913  0.81793  Biso   1.000  H
  C151     1.0000 0.35807  0.45183  0.88833  Biso   1.000  C
  H84      1.0000 0.37567  0.45363  0.84193  Biso   1.000  H
  C152     1.0000 0.24086  0.41427  0.92063  Biso   1.000  C
  C153     1.0000 0.22087  0.37568  0.87993  Biso   1.000  C
  H85      1.0000 0.23657  0.36203  0.86783  Biso   1.000  H
  O35      1.0000 0.10980  0.81247  0.25197  Biso   1.000  O
  O36      1.0000 0.10214  0.82038  0.39547  Biso   1.000  O
  C154     1.0000 0.08794  0.81221  0.31917  Biso   1.000  C
  C155     1.0000 0.04190  0.79716  0.30397  Biso   1.000  C
  C156     1.0000 0.01473  0.79687  0.37087  Biso   1.000  C
  H86      1.0000 0.02603  0.80757  0.42597  Biso   1.000  H
  C157     1.0000 0.97183  0.78097  0.35497  Biso   1.000  C
  H87      1.0000 0.95373  0.77897  0.40057  Biso   1.000  H
  C158     1.0000 0.95497  0.76770  0.27317  Biso   1.000  C
  C159     1.0000 0.98203  0.77067  0.20747  Biso   1.000  C
  H88      1.0000 0.97103  0.76247  0.15127  Biso   1.000  H
  C160     1.0000 0.02473  0.78517  0.22167  Biso   1.000  C
  H89      1.0000 0.04233  0.78697  0.17527  Biso   1.000  H
  C161     1.0000 0.90752  0.74761  0.25397  Biso   1.000  C
  C162     1.0000 0.88753  0.70902  0.21327  Biso   1.000  C
  H90      1.0000 0.90323  0.69537  0.20117  Biso   1.000  H
  O37      1.0000 0.77647  0.63067  0.58530  Biso   1.000  O
  O38      1.0000 0.76881  0.61510  0.72880  Biso   1.000  O
  C163     1.0000 0.75461  0.60907  0.65250  Biso   1.000  C
  C164     1.0000 0.70857  0.57808  0.63730  Biso   1.000  C
  C165     1.0000 0.68140  0.55120  0.70420  Biso   1.000  C
  H91      1.0000 0.69270  0.55180  0.75930  Biso   1.000  H
  C166     1.0000 0.63850  0.52420  0.68830  Biso   1.000  C
  H92      1.0000 0.62040  0.50810  0.73390  Biso   1.000  H
  C167     1.0000 0.62164  0.52061  0.60650  Biso   1.000  C
  C168     1.0000 0.64870  0.54470  0.54080  Biso   1.000  C
  H93      1.0000 0.63770  0.54190  0.48460  Biso   1.000  H
  C169     1.0000 0.69140  0.57290  0.55500  Biso   1.000  C
  H94      1.0000 0.70900  0.58870  0.50860  Biso   1.000  H
  C170     1.0000 0.57419  0.49325  0.58730  Biso   1.000  C
  C171     1.0000 0.55420  0.51185  0.54660  Biso   1.000  C
  H95      1.0000 0.56990  0.54120  0.53450  Biso   1.000  H
  O39      1.0000 0.44314  0.96400  0.91863  Biso   1.000  O
  O40      1.0000 0.43548  0.94843  0.06213  Biso   1.000  O
  C172     1.0000 0.42128  0.94240  0.98583  Biso   1.000  C
  C173     1.0000 0.37524  0.91141  0.97063  Biso   1.000  C
  C174     1.0000 0.34807  0.88453  0.03753  Biso   1.000  C
  H96      1.0000 0.35937  0.88513  0.09263  Biso   1.000  H
  C175     1.0000 0.30517  0.85753  0.02163  Biso   1.000  C
  H97      1.0000 0.28707  0.84143  0.06723  Biso   1.000  H
  C176     1.0000 0.28831  0.85394  0.93983  Biso   1.000  C
  C177     1.0000 0.31537  0.87803  0.87413  Biso   1.000  C
  H98      1.0000 0.30437  0.87523  0.81793  Biso   1.000  H
  C178     1.0000 0.35807  0.90623  0.88833  Biso   1.000  C
  H99      1.0000 0.37567  0.92203  0.84193  Biso   1.000  H
  C179     1.0000 0.24086  0.82658  0.92063  Biso   1.000  C
  C180     1.0000 0.22087  0.84518  0.87993  Biso   1.000  C
  H100     1.0000 0.23657  0.87453  0.86783  Biso   1.000  H
  O41      1.0000 0.10980  0.29734  0.25197  Biso   1.000  O
  O42      1.0000 0.10214  0.28177  0.39547  Biso   1.000  O
  C181     1.0000 0.08794  0.27574  0.31917  Biso   1.000  C
  C182     1.0000 0.04190  0.24475  0.30397  Biso   1.000  C
  C183     1.0000 0.01473  0.21787  0.37087  Biso   1.000  C
  H101     1.0000 0.02603  0.21847  0.42597  Biso   1.000  H
  C184     1.0000 0.97183  0.19087  0.35497  Biso   1.000  C
  H102     1.0000 0.95373  0.17477  0.40057  Biso   1.000  H
  C185     1.0000 0.95497  0.18728  0.27317  Biso   1.000  C
  C186     1.0000 0.98203  0.21137  0.20747  Biso   1.000  C
  H103     1.0000 0.97103  0.20857  0.15127  Biso   1.000  H
  C187     1.0000 0.02473  0.23957  0.22167  Biso   1.000  C
  H104     1.0000 0.04233  0.25537  0.17527  Biso   1.000  H
  C188     1.0000 0.90752  0.15992  0.25397  Biso   1.000  C
  C189     1.0000 0.88753  0.17852  0.21327  Biso   1.000  C
  H105     1.0000 0.90323  0.20787  0.20117  Biso   1.000  H
  O43      1.0000 0.36933  0.14580  0.58530  Biso   1.000  O
  O44      1.0000 0.38490  0.15371  0.72880  Biso   1.000  O
  C190     1.0000 0.39093  0.14554  0.65250  Biso   1.000  C
  C191     1.0000 0.42192  0.13049  0.63730  Biso   1.000  C
  C192     1.0000 0.44880  0.13020  0.70420  Biso   1.000  C
  H106     1.0000 0.44820  0.14090  0.75930  Biso   1.000  H
  C193     1.0000 0.47580  0.11430  0.68830  Biso   1.000  C
  H107     1.0000 0.49190  0.11230  0.73390  Biso   1.000  H
  C194     1.0000 0.47939  0.10103  0.60650  Biso   1.000  C
  C195     1.0000 0.45530  0.10400  0.54080  Biso   1.000  C
  H108     1.0000 0.45810  0.09580  0.48460  Biso   1.000  H
  C196     1.0000 0.42710  0.11850  0.55500  Biso   1.000  C
  H109     1.0000 0.41130  0.12030  0.50860  Biso   1.000  H
  C197     1.0000 0.50675  0.08094  0.58730  Biso   1.000  C
  C198     1.0000 0.48815  0.04235  0.54660  Biso   1.000  C
  H110     1.0000 0.45880  0.02870  0.53450  Biso   1.000  H
  O45      1.0000 0.03600  0.47913  0.91863  Biso   1.000  O
  O46      1.0000 0.05157  0.48704  0.06213  Biso   1.000  O
  C199     1.0000 0.05760  0.47887  0.98583  Biso   1.000  C
  C200     1.0000 0.08859  0.46382  0.97063  Biso   1.000  C
  C201     1.0000 0.11547  0.46353  0.03753  Biso   1.000  C
  H111     1.0000 0.11487  0.47423  0.09263  Biso   1.000  H
  C202     1.0000 0.14247  0.44763  0.02163  Biso   1.000  C
  H112     1.0000 0.15857  0.44563  0.06723  Biso   1.000  H
  C203     1.0000 0.14606  0.43436  0.93983  Biso   1.000  C
  C204     1.0000 0.12197  0.43733  0.87413  Biso   1.000  C
  H113     1.0000 0.12477  0.42913  0.81793  Biso   1.000  H
  C205     1.0000 0.09377  0.45183  0.88833  Biso   1.000  C
  H114     1.0000 0.07797  0.45363  0.84193  Biso   1.000  H
  C206     1.0000 0.17342  0.41427  0.92063  Biso   1.000  C
  C207     1.0000 0.15482  0.37568  0.87993  Biso   1.000  C
  H115     1.0000 0.12547  0.36203  0.86783  Biso   1.000  H
  O47      1.0000 0.70266  0.81247  0.25197  Biso   1.000  O
  O48      1.0000 0.71823  0.82038  0.39547  Biso   1.000  O
  C208     1.0000 0.72426  0.81221  0.31917  Biso   1.000  C
  C209     1.0000 0.75525  0.79716  0.30397  Biso   1.000  C
  C210     1.0000 0.78213  0.79687  0.37087  Biso   1.000  C
  H116     1.0000 0.78153  0.80757  0.42597  Biso   1.000  H
  C211     1.0000 0.80913  0.78097  0.35497  Biso   1.000  C
  H117     1.0000 0.82523  0.77897  0.40057  Biso   1.000  H
  C212     1.0000 0.81272  0.76770  0.27317  Biso   1.000  C
  C213     1.0000 0.78863  0.77067  0.20747  Biso   1.000  C
  H118     1.0000 0.79143  0.76247  0.15127  Biso   1.000  H
  C214     1.0000 0.76043  0.78517  0.22167  Biso   1.000  C
  H119     1.0000 0.74463  0.78697  0.17527  Biso   1.000  H
  C215     1.0000 0.84008  0.74761  0.25397  Biso   1.000  C
  C216     1.0000 0.82148  0.70902  0.21327  Biso   1.000  C
  H120     1.0000 0.79213  0.69537  0.20117  Biso   1.000  H
  O49      1.0000 0.85420  0.22353  0.58530  Biso   1.000  O
  O50      1.0000 0.84629  0.23119  0.72880  Biso   1.000  O
  C217     1.0000 0.85446  0.24539  0.65250  Biso   1.000  C
  C218     1.0000 0.86951  0.29143  0.63730  Biso   1.000  C
  C219     1.0000 0.86980  0.31860  0.70420  Biso   1.000  C
  H121     1.0000 0.85910  0.30730  0.75930  Biso   1.000  H
  C220     1.0000 0.88570  0.36150  0.68830  Biso   1.000  C
  H122     1.0000 0.88770  0.37960  0.73390  Biso   1.000  H
  C221     1.0000 0.89897  0.37836  0.60650  Biso   1.000  C
  C222     1.0000 0.89600  0.35130  0.54080  Biso   1.000  C
  H123     1.0000 0.90420  0.36230  0.48460  Biso   1.000  H
  C223     1.0000 0.88150  0.30860  0.55500  Biso   1.000  C
  H124     1.0000 0.87970  0.29100  0.50860  Biso   1.000  H
  C224     1.0000 0.91906  0.42581  0.58730  Biso   1.000  C
  C225     1.0000 0.95765  0.44580  0.54660  Biso   1.000  C
  H125     1.0000 0.97130  0.43010  0.53450  Biso   1.000  H
  O51      1.0000 0.52087  0.55686  0.91863  Biso   1.000  O
  O52      1.0000 0.51296  0.56452  0.06213  Biso   1.000  O
  C226     1.0000 0.52113  0.57872  0.98583  Biso   1.000  C
  C227     1.0000 0.53618  0.62476  0.97063  Biso   1.000  C
  C228     1.0000 0.53647  0.65193  0.03753  Biso   1.000  C
  H126     1.0000 0.52577  0.64063  0.09263  Biso   1.000  H
  C229     1.0000 0.55237  0.69483  0.02163  Biso   1.000  C
  H127     1.0000 0.55437  0.71293  0.06723  Biso   1.000  H
  C230     1.0000 0.56564  0.71169  0.93983  Biso   1.000  C
  C231     1.0000 0.56267  0.68463  0.87413  Biso   1.000  C
  H128     1.0000 0.57087  0.69563  0.81793  Biso   1.000  H
  C232     1.0000 0.54817  0.64193  0.88833  Biso   1.000  C
  H129     1.0000 0.54637  0.62433  0.84193  Biso   1.000  H
  C233     1.0000 0.58573  0.75914  0.92063  Biso   1.000  C
  C234     1.0000 0.62432  0.77913  0.87993  Biso   1.000  C
  H130     1.0000 0.63797  0.76343  0.86783  Biso   1.000  H
  O53      1.0000 0.18753  0.89020  0.25197  Biso   1.000  O
  O54      1.0000 0.17962  0.89786  0.39547  Biso   1.000  O
  C235     1.0000 0.18779  0.91206  0.31917  Biso   1.000  C
  C236     1.0000 0.20284  0.95810  0.30397  Biso   1.000  C
  C237     1.0000 0.20313  0.98527  0.37087  Biso   1.000  C
  H131     1.0000 0.19243  0.97397  0.42597  Biso   1.000  H
  C238     1.0000 0.21903  0.02817  0.35497  Biso   1.000  C
  H132     1.0000 0.22103  0.04627  0.40057  Biso   1.000  H
  C239     1.0000 0.23230  0.04503  0.27317  Biso   1.000  C
  C240     1.0000 0.22933  0.01797  0.20747  Biso   1.000  C
  H133     1.0000 0.23753  0.02897  0.15127  Biso   1.000  H
  C241     1.0000 0.21483  0.97527  0.22167  Biso   1.000  C
  H134     1.0000 0.21303  0.95767  0.17527  Biso   1.000  H
  C242     1.0000 0.25239  0.09248  0.25397  Biso   1.000  C
  C243     1.0000 0.29098  0.11247  0.21327  Biso   1.000  C
  H135     1.0000 0.30463  0.09677  0.20117  Biso   1.000  H
  O55      1.0000 0.63067  0.77647  0.41470  Biso   1.000  O
  O56      1.0000 0.61510  0.76881  0.27120  Biso   1.000  O
  C244     1.0000 0.60907  0.75461  0.34750  Biso   1.000  C
  C245     1.0000 0.57808  0.70857  0.36270  Biso   1.000  C
  C246     1.0000 0.55120  0.68140  0.29580  Biso   1.000  C
  H136     1.0000 0.55180  0.69270  0.24070  Biso   1.000  H
  C247     1.0000 0.52420  0.63850  0.31170  Biso   1.000  C
  H137     1.0000 0.50810  0.62040  0.26610  Biso   1.000  H
  C248     1.0000 0.52061  0.62164  0.39350  Biso   1.000  C
  C249     1.0000 0.54470  0.64870  0.45920  Biso   1.000  C
  H138     1.0000 0.54190  0.63770  0.51540  Biso   1.000  H
  C250     1.0000 0.57290  0.69140  0.44500  Biso   1.000  C
  H139     1.0000 0.58870  0.70900  0.49140  Biso   1.000  H
  C251     1.0000 0.49325  0.57419  0.41270  Biso   1.000  C
  C252     1.0000 0.51185  0.55420  0.45340  Biso   1.000  C
  H140     1.0000 0.54120  0.56990  0.46550  Biso   1.000  H
  O57      1.0000 0.29734  0.10980  0.74803  Biso   1.000  O
  O58      1.0000 0.28177  0.10214  0.60453  Biso   1.000  O
  C253     1.0000 0.27574  0.08794  0.68083  Biso   1.000  C
  C254     1.0000 0.24475  0.04190  0.69603  Biso   1.000  C
  C255     1.0000 0.21787  0.01473  0.62913  Biso   1.000  C
  H141     1.0000 0.21847  0.02603  0.57403  Biso   1.000  H
  C256     1.0000 0.19087  0.97183  0.64503  Biso   1.000  C
  H142     1.0000 0.17477  0.95373  0.59943  Biso   1.000  H
  C257     1.0000 0.18728  0.95497  0.72683  Biso   1.000  C
  C258     1.0000 0.21137  0.98203  0.79253  Biso   1.000  C
  H143     1.0000 0.20857  0.97103  0.84873  Biso   1.000  H
  C259     1.0000 0.23957  0.02473  0.77833  Biso   1.000  C
  H144     1.0000 0.25537  0.04233  0.82473  Biso   1.000  H
  C260     1.0000 0.15992  0.90752  0.74603  Biso   1.000  C
  C261     1.0000 0.17852  0.88753  0.78673  Biso   1.000  C
  H145     1.0000 0.20787  0.90323  0.79883  Biso   1.000  H
  O59      1.0000 0.96400  0.44314  0.08137  Biso   1.000  O
  O60      1.0000 0.94843  0.43548  0.93787  Biso   1.000  O
  C262     1.0000 0.94240  0.42128  0.01417  Biso   1.000  C
  C263     1.0000 0.91141  0.37524  0.02937  Biso   1.000  C
  C264     1.0000 0.88453  0.34807  0.96247  Biso   1.000  C
  H146     1.0000 0.88513  0.35937  0.90737  Biso   1.000  H
  C265     1.0000 0.85753  0.30517  0.97837  Biso   1.000  C
  H147     1.0000 0.84143  0.28707  0.93277  Biso   1.000  H
  C266     1.0000 0.85394  0.28831  0.06017  Biso   1.000  C
  C267     1.0000 0.87803  0.31537  0.12587  Biso   1.000  C
  H148     1.0000 0.87523  0.30437  0.18207  Biso   1.000  H
  C268     1.0000 0.90623  0.35807  0.11167  Biso   1.000  C
  H149     1.0000 0.92203  0.37567  0.15807  Biso   1.000  H
  C269     1.0000 0.82658  0.24086  0.07937  Biso   1.000  C
  C270     1.0000 0.84518  0.22087  0.12007  Biso   1.000  C
  H150     1.0000 0.87453  0.23657  0.13217  Biso   1.000  H
  O61      1.0000 0.14580  0.36933  0.41470  Biso   1.000  O
  O62      1.0000 0.15371  0.38490  0.27120  Biso   1.000  O
  C271     1.0000 0.14554  0.39093  0.34750  Biso   1.000  C
  C272     1.0000 0.13049  0.42192  0.36270  Biso   1.000  C
  C273     1.0000 0.13020  0.44880  0.29580  Biso   1.000  C
  H151     1.0000 0.14090  0.44820  0.24070  Biso   1.000  H
  C274     1.0000 0.11430  0.47580  0.31170  Biso   1.000  C
  H152     1.0000 0.11230  0.49190  0.26610  Biso   1.000  H
  C275     1.0000 0.10103  0.47939  0.39350  Biso   1.000  C
  C276     1.0000 0.10400  0.45530  0.45920  Biso   1.000  C
  H153     1.0000 0.09580  0.45810  0.51540  Biso   1.000  H
  C277     1.0000 0.11850  0.42710  0.44500  Biso   1.000  C
  H154     1.0000 0.12030  0.41130  0.49140  Biso   1.000  H
  C278     1.0000 0.08094  0.50675  0.41270  Biso   1.000  C
  C279     1.0000 0.04235  0.48815  0.45340  Biso   1.000  C
  H155     1.0000 0.02870  0.45880  0.46550  Biso   1.000  H
  O63      1.0000 0.81247  0.70266  0.74803  Biso   1.000  O
  O64      1.0000 0.82038  0.71823  0.60453  Biso   1.000  O
  C280     1.0000 0.81221  0.72426  0.68083  Biso   1.000  C
  C281     1.0000 0.79716  0.75525  0.69603  Biso   1.000  C
  C282     1.0000 0.79687  0.78213  0.62913  Biso   1.000  C
  H156     1.0000 0.80757  0.78153  0.57403  Biso   1.000  H
  C283     1.0000 0.78097  0.80913  0.64503  Biso   1.000  C
  H157     1.0000 0.77897  0.82523  0.59943  Biso   1.000  H
  C284     1.0000 0.76770  0.81272  0.72683  Biso   1.000  C
  C285     1.0000 0.77067  0.78863  0.79253  Biso   1.000  C
  H158     1.0000 0.76247  0.79143  0.84873  Biso   1.000  H
  C286     1.0000 0.78517  0.76043  0.77833  Biso   1.000  C
  H159     1.0000 0.78697  0.74463  0.82473  Biso   1.000  H
  C287     1.0000 0.74761  0.84008  0.74603  Biso   1.000  C
  C288     1.0000 0.70902  0.82148  0.78673  Biso   1.000  C
  H160     1.0000 0.69537  0.79213  0.79883  Biso   1.000  H
  O65      1.0000 0.47913  0.03600  0.08137  Biso   1.000  O
  O66      1.0000 0.48704  0.05157  0.93787  Biso   1.000  O
  C289     1.0000 0.47887  0.05760  0.01417  Biso   1.000  C
  C290     1.0000 0.46382  0.08859  0.02937  Biso   1.000  C
  C291     1.0000 0.46353  0.11547  0.96247  Biso   1.000  C
  H161     1.0000 0.47423  0.11487  0.90737  Biso   1.000  H
  C292     1.0000 0.44763  0.14247  0.97837  Biso   1.000  C
  H162     1.0000 0.44563  0.15857  0.93277  Biso   1.000  H
  C293     1.0000 0.43436  0.14606  0.06017  Biso   1.000  C
  C294     1.0000 0.43733  0.12197  0.12587  Biso   1.000  C
  H163     1.0000 0.42913  0.12477  0.18207  Biso   1.000  H
  C295     1.0000 0.45183  0.09377  0.11167  Biso   1.000  C
  H164     1.0000 0.45363  0.07797  0.15807  Biso   1.000  H
  C296     1.0000 0.41427  0.17342  0.07937  Biso   1.000  C
  C297     1.0000 0.37568  0.15482  0.12007  Biso   1.000  C
  H165     1.0000 0.36203  0.12547  0.13217  Biso   1.000  H
  O67      1.0000 0.22353  0.85420  0.41470  Biso   1.000  O
  O68      1.0000 0.23119  0.84629  0.27120  Biso   1.000  O
  C298     1.0000 0.24539  0.85446  0.34750  Biso   1.000  C
  C299     1.0000 0.29143  0.86951  0.36270  Biso   1.000  C
  C300     1.0000 0.31860  0.86980  0.29580  Biso   1.000  C
  H166     1.0000 0.30730  0.85910  0.24070  Biso   1.000  H
  C301     1.0000 0.36150  0.88570  0.31170  Biso   1.000  C
  H167     1.0000 0.37960  0.88770  0.26610  Biso   1.000  H
  C302     1.0000 0.37836  0.89897  0.39350  Biso   1.000  C
  C303     1.0000 0.35130  0.89600  0.45920  Biso   1.000  C
  H168     1.0000 0.36230  0.90420  0.51540  Biso   1.000  H
  C304     1.0000 0.30860  0.88150  0.44500  Biso   1.000  C
  H169     1.0000 0.29100  0.87970  0.49140  Biso   1.000  H
  C305     1.0000 0.42581  0.91906  0.41270  Biso   1.000  C
  C306     1.0000 0.44580  0.95765  0.45340  Biso   1.000  C
  H170     1.0000 0.43010  0.97130  0.46550  Biso   1.000  H
  O69      1.0000 0.89020  0.18753  0.74803  Biso   1.000  O
  O70      1.0000 0.89786  0.17962  0.60453  Biso   1.000  O
  C307     1.0000 0.91206  0.18779  0.68083  Biso   1.000  C
  C308     1.0000 0.95810  0.20284  0.69603  Biso   1.000  C
  C309     1.0000 0.98527  0.20313  0.62913  Biso   1.000  C
  H171     1.0000 0.97397  0.19243  0.57403  Biso   1.000  H
  C310     1.0000 0.02817  0.21903  0.64503  Biso   1.000  C
  H172     1.0000 0.04627  0.22103  0.59943  Biso   1.000  H
  C311     1.0000 0.04503  0.23230  0.72683  Biso   1.000  C
  C312     1.0000 0.01797  0.22933  0.79253  Biso   1.000  C
  H173     1.0000 0.02897  0.23753  0.84873  Biso   1.000  H
  C313     1.0000 0.97527  0.21483  0.77833  Biso   1.000  C
  H174     1.0000 0.95767  0.21303  0.82473  Biso   1.000  H
  C314     1.0000 0.09248  0.25239  0.74603  Biso   1.000  C
  C315     1.0000 0.11247  0.29098  0.78673  Biso   1.000  C
  H175     1.0000 0.09677  0.30463  0.79883  Biso   1.000  H
  O71      1.0000 0.55686  0.52087  0.08137  Biso   1.000  O
  O72      1.0000 0.56452  0.51296  0.93787  Biso   1.000  O
  C316     1.0000 0.57872  0.52113  0.01417  Biso   1.000  C
  C317     1.0000 0.62476  0.53618  0.02937  Biso   1.000  C
  C318     1.0000 0.65193  0.53647  0.96247  Biso   1.000  C
  H176     1.0000 0.64063  0.52577  0.90737  Biso   1.000  H
  C319     1.0000 0.69483  0.55237  0.97837  Biso   1.000  C
  H177     1.0000 0.71293  0.55437  0.93277  Biso   1.000  H
  C320     1.0000 0.71169  0.56564  0.06017  Biso   1.000  C
  C321     1.0000 0.68463  0.56267  0.12587  Biso   1.000  C
  H178     1.0000 0.69563  0.57087  0.18207  Biso   1.000  H
  C322     1.0000 0.64193  0.54817  0.11167  Biso   1.000  C
  H179     1.0000 0.62433  0.54637  0.15807  Biso   1.000  H
  C323     1.0000 0.75914  0.58573  0.07937  Biso   1.000  C
  C324     1.0000 0.77913  0.62432  0.12007  Biso   1.000  C
  H180     1.0000 0.76343  0.63797  0.13217  Biso   1.000  H
  Cu1      1.0000 0.16237  0.32474  0.41775  Biso   1.000  Cu
  Cu2      1.0000 0.82904  0.65807  0.75108  Biso   1.000  Cu
  Cu3      1.0000 0.49570  0.99141  0.08442  Biso   1.000  Cu
  Cu4      1.0000 0.67526  0.83763  0.41775  Biso   1.000  Cu
  Cu5      1.0000 0.34193  0.17096  0.75108  Biso   1.000  Cu
  Cu6      1.0000 0.00859  0.50430  0.08442  Biso   1.000  Cu
  Cu7      1.0000 0.16237  0.83763  0.41775  Biso   1.000  Cu
  Cu8      1.0000 0.82904  0.17096  0.75108  Biso   1.000  Cu
  Cu9      1.0000 0.49570  0.50430  0.08442  Biso   1.000  Cu
  Cu10     1.0000 0.32474  0.16237  0.58225  Biso   1.000  Cu
  Cu11     1.0000 0.99141  0.49570  0.91558  Biso   1.000  Cu
  Cu12     1.0000 0.65807  0.82904  0.24892  Biso   1.000  Cu
  Cu13     1.0000 0.83763  0.67526  0.58225  Biso   1.000  Cu
  Cu14     1.0000 0.50430  0.00859  0.91558  Biso   1.000  Cu
  Cu15     1.0000 0.17096  0.34193  0.24892  Biso   1.000  Cu
  Cu16     1.0000 0.83763  0.16237  0.58225  Biso   1.000  Cu
  Cu17     1.0000 0.50430  0.49570  0.91558  Biso   1.000  Cu
  Cu18     1.0000 0.17096  0.82904  0.24892  Biso   1.000  Cu
  O73      1.0000 0.43005  0.56995  0.34770  Biso   1.000  O
  C325     1.0000 0.48900  0.51100  0.47800  Biso   1.000  C
  C326     1.0000 0.45016  0.54984  0.38900  Biso   1.000  C
  C327     1.0000 0.40940  0.59060  0.38390  Biso   1.000  C
  C328     1.0000 0.39080  0.60920  0.32200  Biso   1.000  C
  C329     1.0000 0.40480  0.59520  0.47740  Biso   1.000  C
  O74      1.0000 0.09672  0.90328  0.68103  Biso   1.000  O
  C330     1.0000 0.15567  0.84433  0.81133  Biso   1.000  C
  C331     1.0000 0.11683  0.88317  0.72233  Biso   1.000  C
  C332     1.0000 0.07607  0.92393  0.71723  Biso   1.000  C
  C333     1.0000 0.05747  0.94253  0.65533  Biso   1.000  C
  C334     1.0000 0.07147  0.92853  0.81073  Biso   1.000  C
  O75      1.0000 0.76338  0.23662  0.01437  Biso   1.000  O
  C335     1.0000 0.82233  0.17767  0.14467  Biso   1.000  C
  C336     1.0000 0.78349  0.21651  0.05567  Biso   1.000  C
  C337     1.0000 0.74273  0.25727  0.05057  Biso   1.000  C
  C338     1.0000 0.72413  0.27587  0.98867  Biso   1.000  C
  C339     1.0000 0.73813  0.26187  0.14407  Biso   1.000  C
  O76      1.0000 0.43005  0.86010  0.34770  Biso   1.000  O
  C340     1.0000 0.48900  0.97800  0.47800  Biso   1.000  C
  C341     1.0000 0.45016  0.90032  0.38900  Biso   1.000  C
  C342     1.0000 0.40940  0.81880  0.38390  Biso   1.000  C
  C343     1.0000 0.39080  0.78160  0.32200  Biso   1.000  C
  C344     1.0000 0.40480  0.80960  0.47740  Biso   1.000  C
  O77      1.0000 0.09672  0.19343  0.68103  Biso   1.000  O
  C345     1.0000 0.15567  0.31133  0.81133  Biso   1.000  C
  C346     1.0000 0.11683  0.23365  0.72233  Biso   1.000  C
  C347     1.0000 0.07607  0.15213  0.71723  Biso   1.000  C
  C348     1.0000 0.05747  0.11493  0.65533  Biso   1.000  C
  C349     1.0000 0.07147  0.14293  0.81073  Biso   1.000  C
  O78      1.0000 0.76338  0.52677  0.01437  Biso   1.000  O
  C350     1.0000 0.82233  0.64467  0.14467  Biso   1.000  C
  C351     1.0000 0.78349  0.56699  0.05567  Biso   1.000  C
  C352     1.0000 0.74273  0.48547  0.05057  Biso   1.000  C
  C353     1.0000 0.72413  0.44827  0.98867  Biso   1.000  C
  C354     1.0000 0.73813  0.47627  0.14407  Biso   1.000  C
  O79      1.0000 0.13990  0.56995  0.34770  Biso   1.000  O
  C355     1.0000 0.02200  0.51100  0.47800  Biso   1.000  C
  C356     1.0000 0.09968  0.54984  0.38900  Biso   1.000  C
  C357     1.0000 0.18120  0.59060  0.38390  Biso   1.000  C
  C358     1.0000 0.21840  0.60920  0.32200  Biso   1.000  C
  C359     1.0000 0.19040  0.59520  0.47740  Biso   1.000  C
  O80      1.0000 0.80657  0.90328  0.68103  Biso   1.000  O
  C360     1.0000 0.68867  0.84433  0.81133  Biso   1.000  C
  C361     1.0000 0.76635  0.88317  0.72233  Biso   1.000  C
  C362     1.0000 0.84787  0.92393  0.71723  Biso   1.000  C
  C363     1.0000 0.88507  0.94253  0.65533  Biso   1.000  C
  C364     1.0000 0.85707  0.92853  0.81073  Biso   1.000  C
  O81      1.0000 0.47323  0.23662  0.01437  Biso   1.000  O
  C365     1.0000 0.35533  0.17767  0.14467  Biso   1.000  C
  C366     1.0000 0.43301  0.21651  0.05567  Biso   1.000  C
  C367     1.0000 0.51453  0.25727  0.05057  Biso   1.000  C
  C368     1.0000 0.55173  0.27587  0.98867  Biso   1.000  C
  C369     1.0000 0.52373  0.26187  0.14407  Biso   1.000  C
  O82      1.0000 0.56995  0.43005  0.65230  Biso   1.000  O
  C370     1.0000 0.51100  0.48900  0.52200  Biso   1.000  C
  C371     1.0000 0.54984  0.45016  0.61100  Biso   1.000  C
  C372     1.0000 0.59060  0.40940  0.61610  Biso   1.000  C
  C373     1.0000 0.60920  0.39080  0.67800  Biso   1.000  C
  C374     1.0000 0.59520  0.40480  0.52260  Biso   1.000  C
  O83      1.0000 0.23662  0.76338  0.98563  Biso   1.000  O
  C375     1.0000 0.17767  0.82233  0.85533  Biso   1.000  C
  C376     1.0000 0.21651  0.78349  0.94433  Biso   1.000  C
  C377     1.0000 0.25727  0.74273  0.94943  Biso   1.000  C
  C378     1.0000 0.27587  0.72413  0.01133  Biso   1.000  C
  C379     1.0000 0.26187  0.73813  0.85593  Biso   1.000  C
  O84      1.0000 0.90328  0.09672  0.31897  Biso   1.000  O
  C380     1.0000 0.84433  0.15567  0.18867  Biso   1.000  C
  C381     1.0000 0.88317  0.11683  0.27767  Biso   1.000  C
  C382     1.0000 0.92393  0.07607  0.28277  Biso   1.000  C
  C383     1.0000 0.94253  0.05747  0.34467  Biso   1.000  C
  C384     1.0000 0.92853  0.07147  0.18927  Biso   1.000  C
  O85      1.0000 0.86010  0.43005  0.65230  Biso   1.000  O
  C385     1.0000 0.97800  0.48900  0.52200  Biso   1.000  C
  C386     1.0000 0.90032  0.45016  0.61100  Biso   1.000  C
  C387     1.0000 0.81880  0.40940  0.61610  Biso   1.000  C
  C388     1.0000 0.78160  0.39080  0.67800  Biso   1.000  C
  C389     1.0000 0.80960  0.40480  0.52260  Biso   1.000  C
  O86      1.0000 0.52677  0.76338  0.98563  Biso   1.000  O
  C390     1.0000 0.64467  0.82233  0.85533  Biso   1.000  C
  C391     1.0000 0.56699  0.78349  0.94433  Biso   1.000  C
  C392     1.0000 0.48547  0.74273  0.94943  Biso   1.000  C
  C393     1.0000 0.44827  0.72413  0.01133  Biso   1.000  C
  C394     1.0000 0.47627  0.73813  0.85593  Biso   1.000  C
  O87      1.0000 0.19343  0.09672  0.31897  Biso   1.000  O
  C395     1.0000 0.31133  0.15567  0.18867  Biso   1.000  C
  C396     1.0000 0.23365  0.11683  0.27767  Biso   1.000  C
  C397     1.0000 0.15213  0.07607  0.28277  Biso   1.000  C
  C398     1.0000 0.11493  0.05747  0.34467  Biso   1.000  C
  C399     1.0000 0.14293  0.07147  0.18927  Biso   1.000  C
  O88      1.0000 0.56995  0.13990  0.65230  Biso   1.000  O
  C400     1.0000 0.51100  0.02200  0.52200  Biso   1.000  C
  C401     1.0000 0.54984  0.09968  0.61100  Biso   1.000  C
  C402     1.0000 0.59060  0.18120  0.61610  Biso   1.000  C
  C403     1.0000 0.60920  0.21840  0.67800  Biso   1.000  C
  C404     1.0000 0.59520  0.19040  0.52260  Biso   1.000  C
  O89      1.0000 0.23662  0.47323  0.98563  Biso   1.000  O
  C405     1.0000 0.17767  0.35533  0.85533  Biso   1.000  C
  C406     1.0000 0.21651  0.43301  0.94433  Biso   1.000  C
  C407     1.0000 0.25727  0.51453  0.94943  Biso   1.000  C
  C408     1.0000 0.27587  0.55173  0.01133  Biso   1.000  C
  C409     1.0000 0.26187  0.52373  0.85593  Biso   1.000  C
  O90      1.0000 0.90328  0.80657  0.31897  Biso   1.000  O
  C410     1.0000 0.84433  0.68867  0.18867  Biso   1.000  C
  C411     1.0000 0.88317  0.76635  0.27767  Biso   1.000  C
  C412     1.0000 0.92393  0.84787  0.28277  Biso   1.000  C
  C413     1.0000 0.94253  0.88507  0.34467  Biso   1.000  C
  C414     1.0000 0.92853  0.85707  0.18927  Biso   1.000  C
