data_image0
_cell_length_a       34.9643
_cell_length_b       34.9643
_cell_length_c       23.3985
_cell_angle_alpha    90
_cell_angle_beta     90
_cell_angle_gamma    120

_symmetry_space_group_name_H-M    "P 1"
_symmetry_int_tables_number       1

loop_
  _symmetry_equiv_pos_as_xyz
  'x, y, z'

loop_
  _atom_site_label
  _atom_site_occupancy
  _atom_site_fract_x
  _atom_site_fract_y
  _atom_site_fract_z
  _atom_site_thermal_displace_type
  _atom_site_B_iso_or_equiv
  _atom_site_type_symbol
  O1       1.0000 0.36102  0.21971  0.60053  Biso   1.000  O
  O2       1.0000 0.39045  0.23457  0.68776  Biso   1.000  O
  C1       1.0000 0.38708  0.24441  0.63790  Biso   1.000  C
  C2       1.0000 0.41840  0.29174  0.62090  Biso   1.000  C
  C3       1.0000 0.44702  0.32257  0.65990  Biso   1.000  C
  H1       1.0000 0.44760  0.31430  0.69750  Biso   1.000  H
  C4       1.0000 0.47478  0.36576  0.64280  Biso   1.000  C
  H2       1.0000 0.49380  0.38610  0.66950  Biso   1.000  H
  C5       1.0000 0.47523  0.37970  0.58780  Biso   1.000  C
  C6       1.0000 0.44650  0.34864  0.54850  Biso   1.000  C
  H3       1.0000 0.44640  0.35700  0.51070  Biso   1.000  H
  C7       1.0000 0.41803  0.30532  0.56530  Biso   1.000  C
  H4       1.0000 0.39850  0.28510  0.53890  Biso   1.000  H
  C8       1.0000 0.50423  0.42615  0.56950  Biso   1.000  C
  C9       1.0000 0.48584  0.44628  0.53610  Biso   1.000  C
  H5       1.0000 0.45650  0.42970  0.52480  Biso   1.000  H
  C10      1.0000 0.62260  0.41130  0.63390  Biso   1.000  C
  C11      1.0000 0.57250  0.38210  0.53950  Biso   1.000  C
  O3       1.0000 0.02769  0.55304  0.93386  Biso   1.000  O
  O4       1.0000 0.05712  0.56790  0.02109  Biso   1.000  O
  C12      1.0000 0.05375  0.57774  0.97123  Biso   1.000  C
  C13      1.0000 0.08507  0.62507  0.95423  Biso   1.000  C
  C14      1.0000 0.11369  0.65590  0.99323  Biso   1.000  C
  H6       1.0000 0.11427  0.64763  0.03083  Biso   1.000  H
  C15      1.0000 0.14145  0.69909  0.97613  Biso   1.000  C
  H7       1.0000 0.16047  0.71943  0.00283  Biso   1.000  H
  C16      1.0000 0.14190  0.71303  0.92113  Biso   1.000  C
  C17      1.0000 0.11317  0.68197  0.88183  Biso   1.000  C
  H8       1.0000 0.11307  0.69033  0.84403  Biso   1.000  H
  C18      1.0000 0.08470  0.63865  0.89863  Biso   1.000  C
  H9       1.0000 0.06517  0.61843  0.87223  Biso   1.000  H
  C19      1.0000 0.17090  0.75948  0.90283  Biso   1.000  C
  C20      1.0000 0.15251  0.77961  0.86943  Biso   1.000  C
  H10      1.0000 0.12317  0.76303  0.85813  Biso   1.000  H
  C21      1.0000 0.28927  0.74463  0.96723  Biso   1.000  C
  C22      1.0000 0.23917  0.71543  0.87283  Biso   1.000  C
  O5       1.0000 0.69435  0.88638  0.26720  Biso   1.000  O
  O6       1.0000 0.72378  0.90124  0.35443  Biso   1.000  O
  C23      1.0000 0.72041  0.91108  0.30457  Biso   1.000  C
  C24      1.0000 0.75173  0.95841  0.28757  Biso   1.000  C
  C25      1.0000 0.78035  0.98924  0.32657  Biso   1.000  C
  H11      1.0000 0.78093  0.98097  0.36417  Biso   1.000  H
  C26      1.0000 0.80811  0.03243  0.30947  Biso   1.000  C
  H12      1.0000 0.82713  0.05277  0.33617  Biso   1.000  H
  C27      1.0000 0.80856  0.04637  0.25447  Biso   1.000  C
  C28      1.0000 0.77983  0.01531  0.21517  Biso   1.000  C
  H13      1.0000 0.77973  0.02367  0.17737  Biso   1.000  H
  C29      1.0000 0.75136  0.97199  0.23197  Biso   1.000  C
  H14      1.0000 0.73183  0.95177  0.20557  Biso   1.000  H
  C30      1.0000 0.83756  0.09282  0.23617  Biso   1.000  C
  C31      1.0000 0.81917  0.11295  0.20277  Biso   1.000  C
  H15      1.0000 0.78983  0.09637  0.19147  Biso   1.000  H
  C32      1.0000 0.95593  0.07797  0.30057  Biso   1.000  C
  C33      1.0000 0.90583  0.04877  0.20617  Biso   1.000  C
  O7       1.0000 0.78029  0.14131  0.60053  Biso   1.000  O
  O8       1.0000 0.76543  0.15588  0.68776  Biso   1.000  O
  C34      1.0000 0.75559  0.14267  0.63790  Biso   1.000  C
  C35      1.0000 0.70826  0.12666  0.62090  Biso   1.000  C
  C36      1.0000 0.67743  0.12445  0.65990  Biso   1.000  C
  H16      1.0000 0.68570  0.13330  0.69750  Biso   1.000  H
  C37      1.0000 0.63424  0.10902  0.64280  Biso   1.000  C
  H17      1.0000 0.61390  0.10770  0.66950  Biso   1.000  H
  C38      1.0000 0.62030  0.09553  0.58780  Biso   1.000  C
  C39      1.0000 0.65136  0.09786  0.54850  Biso   1.000  C
  H18      1.0000 0.64300  0.08940  0.51070  Biso   1.000  H
  C40      1.0000 0.69468  0.11271  0.56530  Biso   1.000  C
  H19      1.0000 0.71490  0.11340  0.53890  Biso   1.000  H
  C41      1.0000 0.57385  0.07808  0.56950  Biso   1.000  C
  C42      1.0000 0.55372  0.03956  0.53610  Biso   1.000  C
  H20      1.0000 0.57030  0.02680  0.52480  Biso   1.000  H
  C43      1.0000 0.58870  0.21130  0.63390  Biso   1.000  C
  C44      1.0000 0.61790  0.19040  0.53950  Biso   1.000  C
  O9       1.0000 0.44696  0.47464  0.93386  Biso   1.000  O
  O10      1.0000 0.43210  0.48921  0.02109  Biso   1.000  O
  C45      1.0000 0.42226  0.47600  0.97123  Biso   1.000  C
  C46      1.0000 0.37493  0.45999  0.95423  Biso   1.000  C
  C47      1.0000 0.34410  0.45778  0.99323  Biso   1.000  C
  H21      1.0000 0.35237  0.46663  0.03083  Biso   1.000  H
  C48      1.0000 0.30091  0.44235  0.97613  Biso   1.000  C
  H22      1.0000 0.28057  0.44103  0.00283  Biso   1.000  H
  C49      1.0000 0.28697  0.42886  0.92113  Biso   1.000  C
  C50      1.0000 0.31803  0.43119  0.88183  Biso   1.000  C
  H23      1.0000 0.30967  0.42273  0.84403  Biso   1.000  H
  C51      1.0000 0.36135  0.44604  0.89863  Biso   1.000  C
  H24      1.0000 0.38157  0.44673  0.87223  Biso   1.000  H
  C52      1.0000 0.24052  0.41141  0.90283  Biso   1.000  C
  C53      1.0000 0.22039  0.37289  0.86943  Biso   1.000  C
  H25      1.0000 0.23697  0.36013  0.85813  Biso   1.000  H
  C54      1.0000 0.25537  0.54463  0.96723  Biso   1.000  C
  C55      1.0000 0.28457  0.52373  0.87283  Biso   1.000  C
  O11      1.0000 0.11362  0.80798  0.26720  Biso   1.000  O
  O12      1.0000 0.09876  0.82255  0.35443  Biso   1.000  O
  C56      1.0000 0.08892  0.80934  0.30457  Biso   1.000  C
  C57      1.0000 0.04159  0.79333  0.28757  Biso   1.000  C
  C58      1.0000 0.01076  0.79112  0.32657  Biso   1.000  C
  H26      1.0000 0.01903  0.79997  0.36417  Biso   1.000  H
  C59      1.0000 0.96757  0.77569  0.30947  Biso   1.000  C
  H27      1.0000 0.94723  0.77437  0.33617  Biso   1.000  H
  C60      1.0000 0.95363  0.76220  0.25447  Biso   1.000  C
  C61      1.0000 0.98469  0.76453  0.21517  Biso   1.000  C
  H28      1.0000 0.97633  0.75607  0.17737  Biso   1.000  H
  C62      1.0000 0.02801  0.77938  0.23197  Biso   1.000  C
  H29      1.0000 0.04823  0.78007  0.20557  Biso   1.000  H
  C63      1.0000 0.90718  0.74475  0.23617  Biso   1.000  C
  C64      1.0000 0.88705  0.70623  0.20277  Biso   1.000  C
  H30      1.0000 0.90363  0.69347  0.19147  Biso   1.000  H
  C65      1.0000 0.92203  0.87797  0.30057  Biso   1.000  C
  C66      1.0000 0.95123  0.85707  0.20617  Biso   1.000  C
  O13      1.0000 0.85869  0.63898  0.60053  Biso   1.000  O
  O14      1.0000 0.84412  0.60955  0.68776  Biso   1.000  O
  C67      1.0000 0.85733  0.61292  0.63790  Biso   1.000  C
  C68      1.0000 0.87334  0.58160  0.62090  Biso   1.000  C
  C69      1.0000 0.87555  0.55298  0.65990  Biso   1.000  C
  H31      1.0000 0.86670  0.55240  0.69750  Biso   1.000  H
  C70      1.0000 0.89098  0.52522  0.64280  Biso   1.000  C
  H32      1.0000 0.89230  0.50620  0.66950  Biso   1.000  H
  C71      1.0000 0.90447  0.52477  0.58780  Biso   1.000  C
  C72      1.0000 0.90214  0.55350  0.54850  Biso   1.000  C
  H33      1.0000 0.91060  0.55360  0.51070  Biso   1.000  H
  C73      1.0000 0.88729  0.58197  0.56530  Biso   1.000  C
  H34      1.0000 0.88660  0.60150  0.53890  Biso   1.000  H
  C74      1.0000 0.92192  0.49577  0.56950  Biso   1.000  C
  C75      1.0000 0.96044  0.51416  0.53610  Biso   1.000  C
  H35      1.0000 0.97320  0.54350  0.52480  Biso   1.000  H
  C76      1.0000 0.78870  0.37740  0.63390  Biso   1.000  C
  C77      1.0000 0.80960  0.42750  0.53950  Biso   1.000  C
  O15      1.0000 0.52536  0.97231  0.93386  Biso   1.000  O
  O16      1.0000 0.51079  0.94288  0.02109  Biso   1.000  O
  C78      1.0000 0.52400  0.94625  0.97123  Biso   1.000  C
  C79      1.0000 0.54001  0.91493  0.95423  Biso   1.000  C
  C80      1.0000 0.54222  0.88631  0.99323  Biso   1.000  C
  H36      1.0000 0.53337  0.88573  0.03083  Biso   1.000  H
  C81      1.0000 0.55765  0.85855  0.97613  Biso   1.000  C
  H37      1.0000 0.55897  0.83953  0.00283  Biso   1.000  H
  C82      1.0000 0.57114  0.85810  0.92113  Biso   1.000  C
  C83      1.0000 0.56881  0.88683  0.88183  Biso   1.000  C
  H38      1.0000 0.57727  0.88693  0.84403  Biso   1.000  H
  C84      1.0000 0.55396  0.91530  0.89863  Biso   1.000  C
  H39      1.0000 0.55327  0.93483  0.87223  Biso   1.000  H
  C85      1.0000 0.58859  0.82910  0.90283  Biso   1.000  C
  C86      1.0000 0.62711  0.84749  0.86943  Biso   1.000  C
  H40      1.0000 0.63987  0.87683  0.85813  Biso   1.000  H
  C87      1.0000 0.45537  0.71073  0.96723  Biso   1.000  C
  C88      1.0000 0.47627  0.76083  0.87283  Biso   1.000  C
  O17      1.0000 0.19202  0.30565  0.26720  Biso   1.000  O
  O18      1.0000 0.17745  0.27622  0.35443  Biso   1.000  O
  C89      1.0000 0.19066  0.27959  0.30457  Biso   1.000  C
  C90      1.0000 0.20667  0.24827  0.28757  Biso   1.000  C
  C91      1.0000 0.20888  0.21965  0.32657  Biso   1.000  C
  H41      1.0000 0.20003  0.21907  0.36417  Biso   1.000  H
  C92      1.0000 0.22431  0.19189  0.30947  Biso   1.000  C
  H42      1.0000 0.22563  0.17287  0.33617  Biso   1.000  H
  C93      1.0000 0.23780  0.19144  0.25447  Biso   1.000  C
  C94      1.0000 0.23547  0.22017  0.21517  Biso   1.000  C
  H43      1.0000 0.24393  0.22027  0.17737  Biso   1.000  H
  C95      1.0000 0.22062  0.24864  0.23197  Biso   1.000  C
  H44      1.0000 0.21993  0.26817  0.20557  Biso   1.000  H
  C96      1.0000 0.25525  0.16244  0.23617  Biso   1.000  C
  C97      1.0000 0.29377  0.18083  0.20277  Biso   1.000  C
  H45      1.0000 0.30653  0.21017  0.19147  Biso   1.000  H
  C98      1.0000 0.12203  0.04407  0.30057  Biso   1.000  C
  C99      1.0000 0.14293  0.09417  0.20617  Biso   1.000  C
  O19      1.0000 0.21971  0.36102  0.39947  Biso   1.000  O
  O20      1.0000 0.23457  0.39045  0.31224  Biso   1.000  O
  C100     1.0000 0.24441  0.38708  0.36210  Biso   1.000  C
  C101     1.0000 0.29174  0.41840  0.37910  Biso   1.000  C
  C102     1.0000 0.32257  0.44702  0.34010  Biso   1.000  C
  H46      1.0000 0.31430  0.44760  0.30250  Biso   1.000  H
  C103     1.0000 0.36576  0.47478  0.35720  Biso   1.000  C
  H47      1.0000 0.38610  0.49380  0.33050  Biso   1.000  H
  C104     1.0000 0.37970  0.47523  0.41220  Biso   1.000  C
  C105     1.0000 0.34864  0.44650  0.45150  Biso   1.000  C
  H48      1.0000 0.35700  0.44640  0.48930  Biso   1.000  H
  C106     1.0000 0.30532  0.41803  0.43470  Biso   1.000  C
  H49      1.0000 0.28510  0.39850  0.46110  Biso   1.000  H
  C107     1.0000 0.42615  0.50423  0.43050  Biso   1.000  C
  C108     1.0000 0.44628  0.48584  0.46390  Biso   1.000  C
  H50      1.0000 0.42970  0.45650  0.47520  Biso   1.000  H
  C109     1.0000 0.41130  0.62260  0.36610  Biso   1.000  C
  C110     1.0000 0.38210  0.57250  0.46050  Biso   1.000  C
  O21      1.0000 0.88638  0.69435  0.73280  Biso   1.000  O
  O22      1.0000 0.90124  0.72378  0.64557  Biso   1.000  O
  C111     1.0000 0.91108  0.72041  0.69543  Biso   1.000  C
  C112     1.0000 0.95841  0.75173  0.71243  Biso   1.000  C
  C113     1.0000 0.98924  0.78035  0.67343  Biso   1.000  C
  H51      1.0000 0.98097  0.78093  0.63583  Biso   1.000  H
  C114     1.0000 0.03243  0.80811  0.69053  Biso   1.000  C
  H52      1.0000 0.05277  0.82713  0.66383  Biso   1.000  H
  C115     1.0000 0.04637  0.80856  0.74553  Biso   1.000  C
  C116     1.0000 0.01531  0.77983  0.78483  Biso   1.000  C
  H53      1.0000 0.02367  0.77973  0.82263  Biso   1.000  H
  C117     1.0000 0.97199  0.75136  0.76803  Biso   1.000  C
  H54      1.0000 0.95177  0.73183  0.79443  Biso   1.000  H
  C118     1.0000 0.09282  0.83756  0.76383  Biso   1.000  C
  C119     1.0000 0.11295  0.81917  0.79723  Biso   1.000  C
  H55      1.0000 0.09637  0.78983  0.80853  Biso   1.000  H
  C120     1.0000 0.07797  0.95593  0.69943  Biso   1.000  C
  C121     1.0000 0.04877  0.90583  0.79383  Biso   1.000  C
  O23      1.0000 0.55304  0.02769  0.06614  Biso   1.000  O
  O24      1.0000 0.56790  0.05712  0.97891  Biso   1.000  O
  C122     1.0000 0.57774  0.05375  0.02877  Biso   1.000  C
  C123     1.0000 0.62507  0.08507  0.04577  Biso   1.000  C
  C124     1.0000 0.65590  0.11369  0.00677  Biso   1.000  C
  H56      1.0000 0.64763  0.11427  0.96917  Biso   1.000  H
  C125     1.0000 0.69909  0.14145  0.02387  Biso   1.000  C
  H57      1.0000 0.71943  0.16047  0.99717  Biso   1.000  H
  C126     1.0000 0.71303  0.14190  0.07887  Biso   1.000  C
  C127     1.0000 0.68197  0.11317  0.11817  Biso   1.000  C
  H58      1.0000 0.69033  0.11307  0.15597  Biso   1.000  H
  C128     1.0000 0.63865  0.08470  0.10137  Biso   1.000  C
  H59      1.0000 0.61843  0.06517  0.12777  Biso   1.000  H
  C129     1.0000 0.75948  0.17090  0.09717  Biso   1.000  C
  C130     1.0000 0.77961  0.15251  0.13057  Biso   1.000  C
  H60      1.0000 0.76303  0.12317  0.14187  Biso   1.000  H
  C131     1.0000 0.74463  0.28927  0.03277  Biso   1.000  C
  C132     1.0000 0.71543  0.23917  0.12717  Biso   1.000  C
  O25      1.0000 0.14131  0.78029  0.39947  Biso   1.000  O
  O26      1.0000 0.15588  0.76543  0.31224  Biso   1.000  O
  C133     1.0000 0.14267  0.75559  0.36210  Biso   1.000  C
  C134     1.0000 0.12666  0.70826  0.37910  Biso   1.000  C
  C135     1.0000 0.12445  0.67743  0.34010  Biso   1.000  C
  H61      1.0000 0.13330  0.68570  0.30250  Biso   1.000  H
  C136     1.0000 0.10902  0.63424  0.35720  Biso   1.000  C
  H62      1.0000 0.10770  0.61390  0.33050  Biso   1.000  H
  C137     1.0000 0.09553  0.62030  0.41220  Biso   1.000  C
  C138     1.0000 0.09786  0.65136  0.45150  Biso   1.000  C
  H63      1.0000 0.08940  0.64300  0.48930  Biso   1.000  H
  C139     1.0000 0.11271  0.69468  0.43470  Biso   1.000  C
  H64      1.0000 0.11340  0.71490  0.46110  Biso   1.000  H
  C140     1.0000 0.07808  0.57385  0.43050  Biso   1.000  C
  C141     1.0000 0.03956  0.55372  0.46390  Biso   1.000  C
  H65      1.0000 0.02680  0.57030  0.47520  Biso   1.000  H
  C142     1.0000 0.21130  0.58870  0.36610  Biso   1.000  C
  C143     1.0000 0.19040  0.61790  0.46050  Biso   1.000  C
  O27      1.0000 0.80798  0.11362  0.73280  Biso   1.000  O
  O28      1.0000 0.82255  0.09876  0.64557  Biso   1.000  O
  C144     1.0000 0.80934  0.08892  0.69543  Biso   1.000  C
  C145     1.0000 0.79333  0.04159  0.71243  Biso   1.000  C
  C146     1.0000 0.79112  0.01076  0.67343  Biso   1.000  C
  H66      1.0000 0.79997  0.01903  0.63583  Biso   1.000  H
  C147     1.0000 0.77569  0.96757  0.69053  Biso   1.000  C
  H67      1.0000 0.77437  0.94723  0.66383  Biso   1.000  H
  C148     1.0000 0.76220  0.95363  0.74553  Biso   1.000  C
  C149     1.0000 0.76453  0.98469  0.78483  Biso   1.000  C
  H68      1.0000 0.75607  0.97633  0.82263  Biso   1.000  H
  C150     1.0000 0.77938  0.02801  0.76803  Biso   1.000  C
  H69      1.0000 0.78007  0.04823  0.79443  Biso   1.000  H
  C151     1.0000 0.74475  0.90718  0.76383  Biso   1.000  C
  C152     1.0000 0.70623  0.88705  0.79723  Biso   1.000  C
  H70      1.0000 0.69347  0.90363  0.80853  Biso   1.000  H
  C153     1.0000 0.87797  0.92203  0.69943  Biso   1.000  C
  C154     1.0000 0.85707  0.95123  0.79383  Biso   1.000  C
  O29      1.0000 0.47464  0.44696  0.06614  Biso   1.000  O
  O30      1.0000 0.48921  0.43210  0.97891  Biso   1.000  O
  C155     1.0000 0.47600  0.42226  0.02877  Biso   1.000  C
  C156     1.0000 0.45999  0.37493  0.04577  Biso   1.000  C
  C157     1.0000 0.45778  0.34410  0.00677  Biso   1.000  C
  H71      1.0000 0.46663  0.35237  0.96917  Biso   1.000  H
  C158     1.0000 0.44235  0.30091  0.02387  Biso   1.000  C
  H72      1.0000 0.44103  0.28057  0.99717  Biso   1.000  H
  C159     1.0000 0.42886  0.28697  0.07887  Biso   1.000  C
  C160     1.0000 0.43119  0.31803  0.11817  Biso   1.000  C
  H73      1.0000 0.42273  0.30967  0.15597  Biso   1.000  H
  C161     1.0000 0.44604  0.36135  0.10137  Biso   1.000  C
  H74      1.0000 0.44673  0.38157  0.12777  Biso   1.000  H
  C162     1.0000 0.41141  0.24052  0.09717  Biso   1.000  C
  C163     1.0000 0.37289  0.22039  0.13057  Biso   1.000  C
  H75      1.0000 0.36013  0.23697  0.14187  Biso   1.000  H
  C164     1.0000 0.54463  0.25537  0.03277  Biso   1.000  C
  C165     1.0000 0.52373  0.28457  0.12717  Biso   1.000  C
  O31      1.0000 0.63898  0.85869  0.39947  Biso   1.000  O
  O32      1.0000 0.60955  0.84412  0.31224  Biso   1.000  O
  C166     1.0000 0.61292  0.85733  0.36210  Biso   1.000  C
  C167     1.0000 0.58160  0.87334  0.37910  Biso   1.000  C
  C168     1.0000 0.55298  0.87555  0.34010  Biso   1.000  C
  H76      1.0000 0.55240  0.86670  0.30250  Biso   1.000  H
  C169     1.0000 0.52522  0.89098  0.35720  Biso   1.000  C
  H77      1.0000 0.50620  0.89230  0.33050  Biso   1.000  H
  C170     1.0000 0.52477  0.90447  0.41220  Biso   1.000  C
  C171     1.0000 0.55350  0.90214  0.45150  Biso   1.000  C
  H78      1.0000 0.55360  0.91060  0.48930  Biso   1.000  H
  C172     1.0000 0.58197  0.88729  0.43470  Biso   1.000  C
  H79      1.0000 0.60150  0.88660  0.46110  Biso   1.000  H
  C173     1.0000 0.49577  0.92192  0.43050  Biso   1.000  C
  C174     1.0000 0.51416  0.96044  0.46390  Biso   1.000  C
  H80      1.0000 0.54350  0.97320  0.47520  Biso   1.000  H
  C175     1.0000 0.37740  0.78870  0.36610  Biso   1.000  C
  C176     1.0000 0.42750  0.80960  0.46050  Biso   1.000  C
  O33      1.0000 0.30565  0.19202  0.73280  Biso   1.000  O
  O34      1.0000 0.27622  0.17745  0.64557  Biso   1.000  O
  C177     1.0000 0.27959  0.19066  0.69543  Biso   1.000  C
  C178     1.0000 0.24827  0.20667  0.71243  Biso   1.000  C
  C179     1.0000 0.21965  0.20888  0.67343  Biso   1.000  C
  H81      1.0000 0.21907  0.20003  0.63583  Biso   1.000  H
  C180     1.0000 0.19189  0.22431  0.69053  Biso   1.000  C
  H82      1.0000 0.17287  0.22563  0.66383  Biso   1.000  H
  C181     1.0000 0.19144  0.23780  0.74553  Biso   1.000  C
  C182     1.0000 0.22017  0.23547  0.78483  Biso   1.000  C
  H83      1.0000 0.22027  0.24393  0.82263  Biso   1.000  H
  C183     1.0000 0.24864  0.22062  0.76803  Biso   1.000  C
  H84      1.0000 0.26817  0.21993  0.79443  Biso   1.000  H
  C184     1.0000 0.16244  0.25525  0.76383  Biso   1.000  C
  C185     1.0000 0.18083  0.29377  0.79723  Biso   1.000  C
  H85      1.0000 0.21017  0.30653  0.80853  Biso   1.000  H
  C186     1.0000 0.04407  0.12203  0.69943  Biso   1.000  C
  C187     1.0000 0.09417  0.14293  0.79383  Biso   1.000  C
  O35      1.0000 0.97231  0.52536  0.06614  Biso   1.000  O
  O36      1.0000 0.94288  0.51079  0.97891  Biso   1.000  O
  C188     1.0000 0.94625  0.52400  0.02877  Biso   1.000  C
  C189     1.0000 0.91493  0.54001  0.04577  Biso   1.000  C
  C190     1.0000 0.88631  0.54222  0.00677  Biso   1.000  C
  H86      1.0000 0.88573  0.53337  0.96917  Biso   1.000  H
  C191     1.0000 0.85855  0.55765  0.02387  Biso   1.000  C
  H87      1.0000 0.83953  0.55897  0.99717  Biso   1.000  H
  C192     1.0000 0.85810  0.57114  0.07887  Biso   1.000  C
  C193     1.0000 0.88683  0.56881  0.11817  Biso   1.000  C
  H88      1.0000 0.88693  0.57727  0.15597  Biso   1.000  H
  C194     1.0000 0.91530  0.55396  0.10137  Biso   1.000  C
  H89      1.0000 0.93483  0.55327  0.12777  Biso   1.000  H
  C195     1.0000 0.82910  0.58859  0.09717  Biso   1.000  C
  C196     1.0000 0.84749  0.62711  0.13057  Biso   1.000  C
  H90      1.0000 0.87683  0.63987  0.14187  Biso   1.000  H
  C197     1.0000 0.71073  0.45537  0.03277  Biso   1.000  C
  C198     1.0000 0.76083  0.47627  0.12717  Biso   1.000  C
  O37      1.0000 0.63898  0.78029  0.39947  Biso   1.000  O
  O38      1.0000 0.60955  0.76543  0.31224  Biso   1.000  O
  C199     1.0000 0.61292  0.75559  0.36210  Biso   1.000  C
  C200     1.0000 0.58160  0.70826  0.37910  Biso   1.000  C
  C201     1.0000 0.55298  0.67743  0.34010  Biso   1.000  C
  H91      1.0000 0.55240  0.68570  0.30250  Biso   1.000  H
  C202     1.0000 0.52522  0.63424  0.35720  Biso   1.000  C
  H92      1.0000 0.50620  0.61390  0.33050  Biso   1.000  H
  C203     1.0000 0.52477  0.62030  0.41220  Biso   1.000  C
  C204     1.0000 0.55350  0.65136  0.45150  Biso   1.000  C
  H93      1.0000 0.55360  0.64300  0.48930  Biso   1.000  H
  C205     1.0000 0.58197  0.69468  0.43470  Biso   1.000  C
  H94      1.0000 0.60150  0.71490  0.46110  Biso   1.000  H
  C206     1.0000 0.49577  0.57385  0.43050  Biso   1.000  C
  C207     1.0000 0.51416  0.55372  0.46390  Biso   1.000  C
  H95      1.0000 0.54350  0.57030  0.47520  Biso   1.000  H
  C208     1.0000 0.37740  0.58870  0.36610  Biso   1.000  C
  C209     1.0000 0.42750  0.61790  0.46050  Biso   1.000  C
  O39      1.0000 0.30565  0.11362  0.73280  Biso   1.000  O
  O40      1.0000 0.27622  0.09876  0.64557  Biso   1.000  O
  C210     1.0000 0.27959  0.08892  0.69543  Biso   1.000  C
  C211     1.0000 0.24827  0.04159  0.71243  Biso   1.000  C
  C212     1.0000 0.21965  0.01076  0.67343  Biso   1.000  C
  H96      1.0000 0.21907  0.01903  0.63583  Biso   1.000  H
  C213     1.0000 0.19189  0.96757  0.69053  Biso   1.000  C
  H97      1.0000 0.17287  0.94723  0.66383  Biso   1.000  H
  C214     1.0000 0.19144  0.95363  0.74553  Biso   1.000  C
  C215     1.0000 0.22017  0.98469  0.78483  Biso   1.000  C
  H98      1.0000 0.22027  0.97633  0.82263  Biso   1.000  H
  C216     1.0000 0.24864  0.02801  0.76803  Biso   1.000  C
  H99      1.0000 0.26817  0.04823  0.79443  Biso   1.000  H
  C217     1.0000 0.16244  0.90718  0.76383  Biso   1.000  C
  C218     1.0000 0.18083  0.88705  0.79723  Biso   1.000  C
  H100     1.0000 0.21017  0.90363  0.80853  Biso   1.000  H
  C219     1.0000 0.04407  0.92203  0.69943  Biso   1.000  C
  C220     1.0000 0.09417  0.95123  0.79383  Biso   1.000  C
  O41      1.0000 0.97231  0.44696  0.06614  Biso   1.000  O
  O42      1.0000 0.94288  0.43210  0.97891  Biso   1.000  O
  C221     1.0000 0.94625  0.42226  0.02877  Biso   1.000  C
  C222     1.0000 0.91493  0.37493  0.04577  Biso   1.000  C
  C223     1.0000 0.88631  0.34410  0.00677  Biso   1.000  C
  H101     1.0000 0.88573  0.35237  0.96917  Biso   1.000  H
  C224     1.0000 0.85855  0.30091  0.02387  Biso   1.000  C
  H102     1.0000 0.83953  0.28057  0.99717  Biso   1.000  H
  C225     1.0000 0.85810  0.28697  0.07887  Biso   1.000  C
  C226     1.0000 0.88683  0.31803  0.11817  Biso   1.000  C
  H103     1.0000 0.88693  0.30967  0.15597  Biso   1.000  H
  C227     1.0000 0.91530  0.36135  0.10137  Biso   1.000  C
  H104     1.0000 0.93483  0.38157  0.12777  Biso   1.000  H
  C228     1.0000 0.82910  0.24052  0.09717  Biso   1.000  C
  C229     1.0000 0.84749  0.22039  0.13057  Biso   1.000  C
  H105     1.0000 0.87683  0.23697  0.14187  Biso   1.000  H
  C230     1.0000 0.71073  0.25537  0.03277  Biso   1.000  C
  C231     1.0000 0.76083  0.28457  0.12717  Biso   1.000  C
  O43      1.0000 0.21971  0.85869  0.39947  Biso   1.000  O
  O44      1.0000 0.23457  0.84412  0.31224  Biso   1.000  O
  C232     1.0000 0.24441  0.85733  0.36210  Biso   1.000  C
  C233     1.0000 0.29174  0.87334  0.37910  Biso   1.000  C
  C234     1.0000 0.32257  0.87555  0.34010  Biso   1.000  C
  H106     1.0000 0.31430  0.86670  0.30250  Biso   1.000  H
  C235     1.0000 0.36576  0.89098  0.35720  Biso   1.000  C
  H107     1.0000 0.38610  0.89230  0.33050  Biso   1.000  H
  C236     1.0000 0.37970  0.90447  0.41220  Biso   1.000  C
  C237     1.0000 0.34864  0.90214  0.45150  Biso   1.000  C
  H108     1.0000 0.35700  0.91060  0.48930  Biso   1.000  H
  C238     1.0000 0.30532  0.88729  0.43470  Biso   1.000  C
  H109     1.0000 0.28510  0.88660  0.46110  Biso   1.000  H
  C239     1.0000 0.42615  0.92192  0.43050  Biso   1.000  C
  C240     1.0000 0.44628  0.96044  0.46390  Biso   1.000  C
  H110     1.0000 0.42970  0.97320  0.47520  Biso   1.000  H
  C241     1.0000 0.41130  0.78870  0.36610  Biso   1.000  C
  C242     1.0000 0.38210  0.80960  0.46050  Biso   1.000  C
  O45      1.0000 0.88638  0.19202  0.73280  Biso   1.000  O
  O46      1.0000 0.90124  0.17745  0.64557  Biso   1.000  O
  C243     1.0000 0.91108  0.19066  0.69543  Biso   1.000  C
  C244     1.0000 0.95841  0.20667  0.71243  Biso   1.000  C
  C245     1.0000 0.98924  0.20888  0.67343  Biso   1.000  C
  H111     1.0000 0.98097  0.20003  0.63583  Biso   1.000  H
  C246     1.0000 0.03243  0.22431  0.69053  Biso   1.000  C
  H112     1.0000 0.05277  0.22563  0.66383  Biso   1.000  H
  C247     1.0000 0.04637  0.23780  0.74553  Biso   1.000  C
  C248     1.0000 0.01531  0.23547  0.78483  Biso   1.000  C
  H113     1.0000 0.02367  0.24393  0.82263  Biso   1.000  H
  C249     1.0000 0.97199  0.22062  0.76803  Biso   1.000  C
  H114     1.0000 0.95177  0.21993  0.79443  Biso   1.000  H
  C250     1.0000 0.09282  0.25525  0.76383  Biso   1.000  C
  C251     1.0000 0.11295  0.29377  0.79723  Biso   1.000  C
  H115     1.0000 0.09637  0.30653  0.80853  Biso   1.000  H
  C252     1.0000 0.07797  0.12203  0.69943  Biso   1.000  C
  C253     1.0000 0.04877  0.14293  0.79383  Biso   1.000  C
  O47      1.0000 0.55304  0.52536  0.06614  Biso   1.000  O
  O48      1.0000 0.56790  0.51079  0.97891  Biso   1.000  O
  C254     1.0000 0.57774  0.52400  0.02877  Biso   1.000  C
  C255     1.0000 0.62507  0.54001  0.04577  Biso   1.000  C
  C256     1.0000 0.65590  0.54222  0.00677  Biso   1.000  C
  H116     1.0000 0.64763  0.53337  0.96917  Biso   1.000  H
  C257     1.0000 0.69909  0.55765  0.02387  Biso   1.000  C
  H117     1.0000 0.71943  0.55897  0.99717  Biso   1.000  H
  C258     1.0000 0.71303  0.57114  0.07887  Biso   1.000  C
  C259     1.0000 0.68197  0.56881  0.11817  Biso   1.000  C
  H118     1.0000 0.69033  0.57727  0.15597  Biso   1.000  H
  C260     1.0000 0.63865  0.55396  0.10137  Biso   1.000  C
  H119     1.0000 0.61843  0.55327  0.12777  Biso   1.000  H
  C261     1.0000 0.75948  0.58859  0.09717  Biso   1.000  C
  C262     1.0000 0.77961  0.62711  0.13057  Biso   1.000  C
  H120     1.0000 0.76303  0.63987  0.14187  Biso   1.000  H
  C263     1.0000 0.74463  0.45537  0.03277  Biso   1.000  C
  C264     1.0000 0.71543  0.47627  0.12717  Biso   1.000  C
  O49      1.0000 0.14131  0.36102  0.39947  Biso   1.000  O
  O50      1.0000 0.15588  0.39045  0.31224  Biso   1.000  O
  C265     1.0000 0.14267  0.38708  0.36210  Biso   1.000  C
  C266     1.0000 0.12666  0.41840  0.37910  Biso   1.000  C
  C267     1.0000 0.12445  0.44702  0.34010  Biso   1.000  C
  H121     1.0000 0.13330  0.44760  0.30250  Biso   1.000  H
  C268     1.0000 0.10902  0.47478  0.35720  Biso   1.000  C
  H122     1.0000 0.10770  0.49380  0.33050  Biso   1.000  H
  C269     1.0000 0.09553  0.47523  0.41220  Biso   1.000  C
  C270     1.0000 0.09786  0.44650  0.45150  Biso   1.000  C
  H123     1.0000 0.08940  0.44640  0.48930  Biso   1.000  H
  C271     1.0000 0.11271  0.41803  0.43470  Biso   1.000  C
  H124     1.0000 0.11340  0.39850  0.46110  Biso   1.000  H
  C272     1.0000 0.07808  0.50423  0.43050  Biso   1.000  C
  C273     1.0000 0.03956  0.48584  0.46390  Biso   1.000  C
  H125     1.0000 0.02680  0.45650  0.47520  Biso   1.000  H
  C274     1.0000 0.21130  0.62260  0.36610  Biso   1.000  C
  C275     1.0000 0.19040  0.57250  0.46050  Biso   1.000  C
  O51      1.0000 0.80798  0.69435  0.73280  Biso   1.000  O
  O52      1.0000 0.82255  0.72378  0.64557  Biso   1.000  O
  C276     1.0000 0.80934  0.72041  0.69543  Biso   1.000  C
  C277     1.0000 0.79333  0.75173  0.71243  Biso   1.000  C
  C278     1.0000 0.79112  0.78035  0.67343  Biso   1.000  C
  H126     1.0000 0.79997  0.78093  0.63583  Biso   1.000  H
  C279     1.0000 0.77569  0.80811  0.69053  Biso   1.000  C
  H127     1.0000 0.77437  0.82713  0.66383  Biso   1.000  H
  C280     1.0000 0.76220  0.80856  0.74553  Biso   1.000  C
  C281     1.0000 0.76453  0.77983  0.78483  Biso   1.000  C
  H128     1.0000 0.75607  0.77973  0.82263  Biso   1.000  H
  C282     1.0000 0.77938  0.75136  0.76803  Biso   1.000  C
  H129     1.0000 0.78007  0.73183  0.79443  Biso   1.000  H
  C283     1.0000 0.74475  0.83756  0.76383  Biso   1.000  C
  C284     1.0000 0.70623  0.81917  0.79723  Biso   1.000  C
  H130     1.0000 0.69347  0.78983  0.80853  Biso   1.000  H
  C285     1.0000 0.87797  0.95593  0.69943  Biso   1.000  C
  C286     1.0000 0.85707  0.90583  0.79383  Biso   1.000  C
  O53      1.0000 0.47464  0.02769  0.06614  Biso   1.000  O
  O54      1.0000 0.48921  0.05712  0.97891  Biso   1.000  O
  C287     1.0000 0.47600  0.05375  0.02877  Biso   1.000  C
  C288     1.0000 0.45999  0.08507  0.04577  Biso   1.000  C
  C289     1.0000 0.45778  0.11369  0.00677  Biso   1.000  C
  H131     1.0000 0.46663  0.11427  0.96917  Biso   1.000  H
  C290     1.0000 0.44235  0.14145  0.02387  Biso   1.000  C
  H132     1.0000 0.44103  0.16047  0.99717  Biso   1.000  H
  C291     1.0000 0.42886  0.14190  0.07887  Biso   1.000  C
  C292     1.0000 0.43119  0.11317  0.11817  Biso   1.000  C
  H133     1.0000 0.42273  0.11307  0.15597  Biso   1.000  H
  C293     1.0000 0.44604  0.08470  0.10137  Biso   1.000  C
  H134     1.0000 0.44673  0.06517  0.12777  Biso   1.000  H
  C294     1.0000 0.41141  0.17090  0.09717  Biso   1.000  C
  C295     1.0000 0.37289  0.15251  0.13057  Biso   1.000  C
  H135     1.0000 0.36013  0.12317  0.14187  Biso   1.000  H
  C296     1.0000 0.54463  0.28927  0.03277  Biso   1.000  C
  C297     1.0000 0.52373  0.23917  0.12717  Biso   1.000  C
  O55      1.0000 0.78029  0.63898  0.60053  Biso   1.000  O
  O56      1.0000 0.76543  0.60955  0.68776  Biso   1.000  O
  C298     1.0000 0.75559  0.61292  0.63790  Biso   1.000  C
  C299     1.0000 0.70826  0.58160  0.62090  Biso   1.000  C
  C300     1.0000 0.67743  0.55298  0.65990  Biso   1.000  C
  H136     1.0000 0.68570  0.55240  0.69750  Biso   1.000  H
  C301     1.0000 0.63424  0.52522  0.64280  Biso   1.000  C
  H137     1.0000 0.61390  0.50620  0.66950  Biso   1.000  H
  C302     1.0000 0.62030  0.52477  0.58780  Biso   1.000  C
  C303     1.0000 0.65136  0.55350  0.54850  Biso   1.000  C
  H138     1.0000 0.64300  0.55360  0.51070  Biso   1.000  H
  C304     1.0000 0.69468  0.58197  0.56530  Biso   1.000  C
  H139     1.0000 0.71490  0.60150  0.53890  Biso   1.000  H
  C305     1.0000 0.57385  0.49577  0.56950  Biso   1.000  C
  C306     1.0000 0.55372  0.51416  0.53610  Biso   1.000  C
  H140     1.0000 0.57030  0.54350  0.52480  Biso   1.000  H
  C307     1.0000 0.58870  0.37740  0.63390  Biso   1.000  C
  C308     1.0000 0.61790  0.42750  0.53950  Biso   1.000  C
  O57      1.0000 0.44696  0.97231  0.93386  Biso   1.000  O
  O58      1.0000 0.43210  0.94288  0.02109  Biso   1.000  O
  C309     1.0000 0.42226  0.94625  0.97123  Biso   1.000  C
  C310     1.0000 0.37493  0.91493  0.95423  Biso   1.000  C
  C311     1.0000 0.34410  0.88631  0.99323  Biso   1.000  C
  H141     1.0000 0.35237  0.88573  0.03083  Biso   1.000  H
  C312     1.0000 0.30091  0.85855  0.97613  Biso   1.000  C
  H142     1.0000 0.28057  0.83953  0.00283  Biso   1.000  H
  C313     1.0000 0.28697  0.85810  0.92113  Biso   1.000  C
  C314     1.0000 0.31803  0.88683  0.88183  Biso   1.000  C
  H143     1.0000 0.30967  0.88693  0.84403  Biso   1.000  H
  C315     1.0000 0.36135  0.91530  0.89863  Biso   1.000  C
  H144     1.0000 0.38157  0.93483  0.87223  Biso   1.000  H
  C316     1.0000 0.24052  0.82910  0.90283  Biso   1.000  C
  C317     1.0000 0.22039  0.84749  0.86943  Biso   1.000  C
  H145     1.0000 0.23697  0.87683  0.85813  Biso   1.000  H
  C318     1.0000 0.25537  0.71073  0.96723  Biso   1.000  C
  C319     1.0000 0.28457  0.76083  0.87283  Biso   1.000  C
  O59      1.0000 0.11362  0.30565  0.26720  Biso   1.000  O
  O60      1.0000 0.09876  0.27622  0.35443  Biso   1.000  O
  C320     1.0000 0.08892  0.27959  0.30457  Biso   1.000  C
  C321     1.0000 0.04159  0.24827  0.28757  Biso   1.000  C
  C322     1.0000 0.01076  0.21965  0.32657  Biso   1.000  C
  H146     1.0000 0.01903  0.21907  0.36417  Biso   1.000  H
  C323     1.0000 0.96757  0.19189  0.30947  Biso   1.000  C
  H147     1.0000 0.94723  0.17287  0.33617  Biso   1.000  H
  C324     1.0000 0.95363  0.19144  0.25447  Biso   1.000  C
  C325     1.0000 0.98469  0.22017  0.21517  Biso   1.000  C
  H148     1.0000 0.97633  0.22027  0.17737  Biso   1.000  H
  C326     1.0000 0.02801  0.24864  0.23197  Biso   1.000  C
  H149     1.0000 0.04823  0.26817  0.20557  Biso   1.000  H
  C327     1.0000 0.90718  0.16244  0.23617  Biso   1.000  C
  C328     1.0000 0.88705  0.18083  0.20277  Biso   1.000  C
  H150     1.0000 0.90363  0.21017  0.19147  Biso   1.000  H
  C329     1.0000 0.92203  0.04407  0.30057  Biso   1.000  C
  C330     1.0000 0.95123  0.09417  0.20617  Biso   1.000  C
  O61      1.0000 0.85869  0.21971  0.60053  Biso   1.000  O
  O62      1.0000 0.84412  0.23457  0.68776  Biso   1.000  O
  C331     1.0000 0.85733  0.24441  0.63790  Biso   1.000  C
  C332     1.0000 0.87334  0.29174  0.62090  Biso   1.000  C
  C333     1.0000 0.87555  0.32257  0.65990  Biso   1.000  C
  H151     1.0000 0.86670  0.31430  0.69750  Biso   1.000  H
  C334     1.0000 0.89098  0.36576  0.64280  Biso   1.000  C
  H152     1.0000 0.89230  0.38610  0.66950  Biso   1.000  H
  C335     1.0000 0.90447  0.37970  0.58780  Biso   1.000  C
  C336     1.0000 0.90214  0.34864  0.54850  Biso   1.000  C
  H153     1.0000 0.91060  0.35700  0.51070  Biso   1.000  H
  C337     1.0000 0.88729  0.30532  0.56530  Biso   1.000  C
  H154     1.0000 0.88660  0.28510  0.53890  Biso   1.000  H
  C338     1.0000 0.92192  0.42615  0.56950  Biso   1.000  C
  C339     1.0000 0.96044  0.44628  0.53610  Biso   1.000  C
  H155     1.0000 0.97320  0.42970  0.52480  Biso   1.000  H
  C340     1.0000 0.78870  0.41130  0.63390  Biso   1.000  C
  C341     1.0000 0.80960  0.38210  0.53950  Biso   1.000  C
  O63      1.0000 0.52536  0.55304  0.93386  Biso   1.000  O
  O64      1.0000 0.51079  0.56790  0.02109  Biso   1.000  O
  C342     1.0000 0.52400  0.57774  0.97123  Biso   1.000  C
  C343     1.0000 0.54001  0.62507  0.95423  Biso   1.000  C
  C344     1.0000 0.54222  0.65590  0.99323  Biso   1.000  C
  H156     1.0000 0.53337  0.64763  0.03083  Biso   1.000  H
  C345     1.0000 0.55765  0.69909  0.97613  Biso   1.000  C
  H157     1.0000 0.55897  0.71943  0.00283  Biso   1.000  H
  C346     1.0000 0.57114  0.71303  0.92113  Biso   1.000  C
  C347     1.0000 0.56881  0.68197  0.88183  Biso   1.000  C
  H158     1.0000 0.57727  0.69033  0.84403  Biso   1.000  H
  C348     1.0000 0.55396  0.63865  0.89863  Biso   1.000  C
  H159     1.0000 0.55327  0.61843  0.87223  Biso   1.000  H
  C349     1.0000 0.58859  0.75948  0.90283  Biso   1.000  C
  C350     1.0000 0.62711  0.77961  0.86943  Biso   1.000  C
  H160     1.0000 0.63987  0.76303  0.85813  Biso   1.000  H
  C351     1.0000 0.45537  0.74463  0.96723  Biso   1.000  C
  C352     1.0000 0.47627  0.71543  0.87283  Biso   1.000  C
  O65      1.0000 0.19202  0.88638  0.26720  Biso   1.000  O
  O66      1.0000 0.17745  0.90124  0.35443  Biso   1.000  O
  C353     1.0000 0.19066  0.91108  0.30457  Biso   1.000  C
  C354     1.0000 0.20667  0.95841  0.28757  Biso   1.000  C
  C355     1.0000 0.20888  0.98924  0.32657  Biso   1.000  C
  H161     1.0000 0.20003  0.98097  0.36417  Biso   1.000  H
  C356     1.0000 0.22431  0.03243  0.30947  Biso   1.000  C
  H162     1.0000 0.22563  0.05277  0.33617  Biso   1.000  H
  C357     1.0000 0.23780  0.04637  0.25447  Biso   1.000  C
  C358     1.0000 0.23547  0.01531  0.21517  Biso   1.000  C
  H163     1.0000 0.24393  0.02367  0.17737  Biso   1.000  H
  C359     1.0000 0.22062  0.97199  0.23197  Biso   1.000  C
  H164     1.0000 0.21993  0.95177  0.20557  Biso   1.000  H
  C360     1.0000 0.25525  0.09282  0.23617  Biso   1.000  C
  C361     1.0000 0.29377  0.11295  0.20277  Biso   1.000  C
  H165     1.0000 0.30653  0.09637  0.19147  Biso   1.000  H
  C362     1.0000 0.12203  0.07797  0.30057  Biso   1.000  C
  C363     1.0000 0.14293  0.04877  0.20617  Biso   1.000  C
  O67      1.0000 0.36102  0.14131  0.60053  Biso   1.000  O
  O68      1.0000 0.39045  0.15588  0.68776  Biso   1.000  O
  C364     1.0000 0.38708  0.14267  0.63790  Biso   1.000  C
  C365     1.0000 0.41840  0.12666  0.62090  Biso   1.000  C
  C366     1.0000 0.44702  0.12445  0.65990  Biso   1.000  C
  H166     1.0000 0.44760  0.13330  0.69750  Biso   1.000  H
  C367     1.0000 0.47478  0.10902  0.64280  Biso   1.000  C
  H167     1.0000 0.49380  0.10770  0.66950  Biso   1.000  H
  C368     1.0000 0.47523  0.09553  0.58780  Biso   1.000  C
  C369     1.0000 0.44650  0.09786  0.54850  Biso   1.000  C
  H168     1.0000 0.44640  0.08940  0.51070  Biso   1.000  H
  C370     1.0000 0.41803  0.11271  0.56530  Biso   1.000  C
  H169     1.0000 0.39850  0.11340  0.53890  Biso   1.000  H
  C371     1.0000 0.50423  0.07808  0.56950  Biso   1.000  C
  C372     1.0000 0.48584  0.03956  0.53610  Biso   1.000  C
  H170     1.0000 0.45650  0.02680  0.52480  Biso   1.000  H
  C373     1.0000 0.62260  0.21130  0.63390  Biso   1.000  C
  C374     1.0000 0.57250  0.19040  0.53950  Biso   1.000  C
  O69      1.0000 0.02769  0.47464  0.93386  Biso   1.000  O
  O70      1.0000 0.05712  0.48921  0.02109  Biso   1.000  O
  C375     1.0000 0.05375  0.47600  0.97123  Biso   1.000  C
  C376     1.0000 0.08507  0.45999  0.95423  Biso   1.000  C
  C377     1.0000 0.11369  0.45778  0.99323  Biso   1.000  C
  H171     1.0000 0.11427  0.46663  0.03083  Biso   1.000  H
  C378     1.0000 0.14145  0.44235  0.97613  Biso   1.000  C
  H172     1.0000 0.16047  0.44103  0.00283  Biso   1.000  H
  C379     1.0000 0.14190  0.42886  0.92113  Biso   1.000  C
  C380     1.0000 0.11317  0.43119  0.88183  Biso   1.000  C
  H173     1.0000 0.11307  0.42273  0.84403  Biso   1.000  H
  C381     1.0000 0.08470  0.44604  0.89863  Biso   1.000  C
  H174     1.0000 0.06517  0.44673  0.87223  Biso   1.000  H
  C382     1.0000 0.17090  0.41141  0.90283  Biso   1.000  C
  C383     1.0000 0.15251  0.37289  0.86943  Biso   1.000  C
  H175     1.0000 0.12317  0.36013  0.85813  Biso   1.000  H
  C384     1.0000 0.28927  0.54463  0.96723  Biso   1.000  C
  C385     1.0000 0.23917  0.52373  0.87283  Biso   1.000  C
  O71      1.0000 0.69435  0.80798  0.26720  Biso   1.000  O
  O72      1.0000 0.72378  0.82255  0.35443  Biso   1.000  O
  C386     1.0000 0.72041  0.80934  0.30457  Biso   1.000  C
  C387     1.0000 0.75173  0.79333  0.28757  Biso   1.000  C
  C388     1.0000 0.78035  0.79112  0.32657  Biso   1.000  C
  H176     1.0000 0.78093  0.79997  0.36417  Biso   1.000  H
  C389     1.0000 0.80811  0.77569  0.30947  Biso   1.000  C
  H177     1.0000 0.82713  0.77437  0.33617  Biso   1.000  H
  C390     1.0000 0.80856  0.76220  0.25447  Biso   1.000  C
  C391     1.0000 0.77983  0.76453  0.21517  Biso   1.000  C
  H178     1.0000 0.77973  0.75607  0.17737  Biso   1.000  H
  C392     1.0000 0.75136  0.77938  0.23197  Biso   1.000  C
  H179     1.0000 0.73183  0.78007  0.20557  Biso   1.000  H
  C393     1.0000 0.83756  0.74475  0.23617  Biso   1.000  C
  C394     1.0000 0.81917  0.70623  0.20277  Biso   1.000  C
  H180     1.0000 0.78983  0.69347  0.19147  Biso   1.000  H
  C395     1.0000 0.95593  0.87797  0.30057  Biso   1.000  C
  C396     1.0000 0.90583  0.85707  0.20617  Biso   1.000  C
  Cu1      1.0000 0.35020  0.17510  0.71849  Biso   1.000  Cu
  Cu2      1.0000 0.01687  0.50843  0.05182  Biso   1.000  Cu
  Cu3      1.0000 0.68353  0.84177  0.38516  Biso   1.000  Cu
  Cu4      1.0000 0.82490  0.17510  0.71849  Biso   1.000  Cu
  Cu5      1.0000 0.49157  0.50843  0.05182  Biso   1.000  Cu
  Cu6      1.0000 0.15823  0.84177  0.38516  Biso   1.000  Cu
  Cu7      1.0000 0.82490  0.64980  0.71849  Biso   1.000  Cu
  Cu8      1.0000 0.49157  0.98313  0.05182  Biso   1.000  Cu
  Cu9      1.0000 0.15823  0.31647  0.38516  Biso   1.000  Cu
  Cu10     1.0000 0.17510  0.35020  0.28151  Biso   1.000  Cu
  Cu11     1.0000 0.84177  0.68353  0.61484  Biso   1.000  Cu
  Cu12     1.0000 0.50843  0.01687  0.94818  Biso   1.000  Cu
  Cu13     1.0000 0.17510  0.82490  0.28151  Biso   1.000  Cu
  Cu14     1.0000 0.84177  0.15823  0.61484  Biso   1.000  Cu
  Cu15     1.0000 0.50843  0.49157  0.94818  Biso   1.000  Cu
  Cu16     1.0000 0.64980  0.82490  0.28151  Biso   1.000  Cu
  Cu17     1.0000 0.31647  0.15823  0.61484  Biso   1.000  Cu
  Cu18     1.0000 0.98313  0.49157  0.94818  Biso   1.000  Cu
  O73      1.0000 0.56719  0.43281  0.61980  Biso   1.000  O
  C397     1.0000 0.51001  0.48999  0.51950  Biso   1.000  C
  C398     1.0000 0.54805  0.45195  0.58570  Biso   1.000  C
  C399     1.0000 0.58843  0.41157  0.59190  Biso   1.000  C
  O74      1.0000 0.23386  0.76614  0.95313  Biso   1.000  O
  C400     1.0000 0.17668  0.82332  0.85283  Biso   1.000  C
  C401     1.0000 0.21472  0.78528  0.91903  Biso   1.000  C
  C402     1.0000 0.25510  0.74490  0.92523  Biso   1.000  C
  O75      1.0000 0.90052  0.09948  0.28647  Biso   1.000  O
  C403     1.0000 0.84334  0.15666  0.18617  Biso   1.000  C
  C404     1.0000 0.88138  0.11862  0.25237  Biso   1.000  C
  C405     1.0000 0.92176  0.07824  0.25857  Biso   1.000  C
  O76      1.0000 0.56719  0.13438  0.61980  Biso   1.000  O
  C406     1.0000 0.51001  0.02002  0.51950  Biso   1.000  C
  C407     1.0000 0.54805  0.09610  0.58570  Biso   1.000  C
  C408     1.0000 0.58843  0.17686  0.59190  Biso   1.000  C
  O77      1.0000 0.23386  0.46771  0.95313  Biso   1.000  O
  C409     1.0000 0.17668  0.35335  0.85283  Biso   1.000  C
  C410     1.0000 0.21472  0.42943  0.91903  Biso   1.000  C
  C411     1.0000 0.25510  0.51019  0.92523  Biso   1.000  C
  O78      1.0000 0.90052  0.80105  0.28647  Biso   1.000  O
  C412     1.0000 0.84334  0.68669  0.18617  Biso   1.000  C
  C413     1.0000 0.88138  0.76277  0.25237  Biso   1.000  C
  C414     1.0000 0.92176  0.84353  0.25857  Biso   1.000  C
  O79      1.0000 0.86562  0.43281  0.61980  Biso   1.000  O
  C415     1.0000 0.97998  0.48999  0.51950  Biso   1.000  C
  C416     1.0000 0.90390  0.45195  0.58570  Biso   1.000  C
  C417     1.0000 0.82314  0.41157  0.59190  Biso   1.000  C
  O80      1.0000 0.53229  0.76614  0.95313  Biso   1.000  O
  C418     1.0000 0.64665  0.82332  0.85283  Biso   1.000  C
  C419     1.0000 0.57057  0.78528  0.91903  Biso   1.000  C
  C420     1.0000 0.48981  0.74490  0.92523  Biso   1.000  C
  O81      1.0000 0.19895  0.09948  0.28647  Biso   1.000  O
  C421     1.0000 0.31331  0.15666  0.18617  Biso   1.000  C
  C422     1.0000 0.23723  0.11862  0.25237  Biso   1.000  C
  C423     1.0000 0.15647  0.07824  0.25857  Biso   1.000  C
  O82      1.0000 0.43281  0.56719  0.38020  Biso   1.000  O
  C424     1.0000 0.48999  0.51001  0.48050  Biso   1.000  C
  C425     1.0000 0.45195  0.54805  0.41430  Biso   1.000  C
  C426     1.0000 0.41157  0.58843  0.40810  Biso   1.000  C
  O83      1.0000 0.09948  0.90052  0.71353  Biso   1.000  O
  C427     1.0000 0.15666  0.84334  0.81383  Biso   1.000  C
  C428     1.0000 0.11862  0.88138  0.74763  Biso   1.000  C
  C429     1.0000 0.07824  0.92176  0.74143  Biso   1.000  C
  O84      1.0000 0.76614  0.23386  0.04687  Biso   1.000  O
  C430     1.0000 0.82332  0.17668  0.14717  Biso   1.000  C
  C431     1.0000 0.78528  0.21472  0.08097  Biso   1.000  C
  C432     1.0000 0.74490  0.25510  0.07477  Biso   1.000  C
  O85      1.0000 0.13438  0.56719  0.38020  Biso   1.000  O
  C433     1.0000 0.02002  0.51001  0.48050  Biso   1.000  C
  C434     1.0000 0.09610  0.54805  0.41430  Biso   1.000  C
  C435     1.0000 0.17686  0.58843  0.40810  Biso   1.000  C
  O86      1.0000 0.80105  0.90052  0.71353  Biso   1.000  O
  C436     1.0000 0.68669  0.84334  0.81383  Biso   1.000  C
  C437     1.0000 0.76277  0.88138  0.74763  Biso   1.000  C
  C438     1.0000 0.84353  0.92176  0.74143  Biso   1.000  C
  O87      1.0000 0.46771  0.23386  0.04687  Biso   1.000  O
  C439     1.0000 0.35335  0.17668  0.14717  Biso   1.000  C
  C440     1.0000 0.42943  0.21472  0.08097  Biso   1.000  C
  C441     1.0000 0.51019  0.25510  0.07477  Biso   1.000  C
  O88      1.0000 0.43281  0.86562  0.38020  Biso   1.000  O
  C442     1.0000 0.48999  0.97998  0.48050  Biso   1.000  C
  C443     1.0000 0.45195  0.90390  0.41430  Biso   1.000  C
  C444     1.0000 0.41157  0.82314  0.40810  Biso   1.000  C
  O89      1.0000 0.09948  0.19895  0.71353  Biso   1.000  O
  C445     1.0000 0.15666  0.31331  0.81383  Biso   1.000  C
  C446     1.0000 0.11862  0.23723  0.74763  Biso   1.000  C
  C447     1.0000 0.07824  0.15647  0.74143  Biso   1.000  C
  O90      1.0000 0.76614  0.53229  0.04687  Biso   1.000  O
  C448     1.0000 0.82332  0.64665  0.14717  Biso   1.000  C
  C449     1.0000 0.78528  0.57057  0.08097  Biso   1.000  C
  C450     1.0000 0.74490  0.48981  0.07477  Biso   1.000  C
