data_image0
_cell_length_a       35.1595
_cell_length_b       35.1595
_cell_length_c       22.1432
_cell_angle_alpha    90
_cell_angle_beta     90
_cell_angle_gamma    120

_symmetry_space_group_name_H-M    "P 1"
_symmetry_int_tables_number       1

loop_
  _symmetry_equiv_pos_as_xyz
  'x, y, z'

loop_
  _atom_site_label
  _atom_site_occupancy
  _atom_site_fract_x
  _atom_site_fract_y
  _atom_site_fract_z
  _atom_site_thermal_displace_type
  _atom_site_B_iso_or_equiv
  _atom_site_type_symbol
  O1       1.0000 0.36219  0.14185  0.59806  Biso   1.000  O
  O2       1.0000 0.38924  0.15525  0.69225  Biso   1.000  O
  C1       1.0000 0.38775  0.14274  0.63889  Biso   1.000  C
  C2       1.0000 0.41919  0.12746  0.62150  Biso   1.000  C
  C3       1.0000 0.44686  0.12520  0.66399  Biso   1.000  C
  H1       1.0000 0.44640  0.13390  0.70400  Biso   1.000  H
  C4       1.0000 0.47517  0.11023  0.64783  Biso   1.000  C
  H2       1.0000 0.49390  0.10900  0.67710  Biso   1.000  H
  C5       1.0000 0.47632  0.09704  0.58949  Biso   1.000  C
  C6       1.0000 0.44835  0.09916  0.54694  Biso   1.000  C
  H3       1.0000 0.44860  0.09040  0.50690  Biso   1.000  H
  C7       1.0000 0.41996  0.11424  0.56326  Biso   1.000  C
  H4       1.0000 0.40110  0.11540  0.53420  Biso   1.000  H
  C8       1.0000 0.50477  0.07863  0.57124  Biso   1.000  C
  C9       1.0000 0.48646  0.04033  0.53687  Biso   1.000  C
  H5       1.0000 0.45670  0.02730  0.52580  Biso   1.000  H
  C10      1.0000 0.58820  0.20993  0.63940  Biso   1.000  C
  C11      1.0000 0.61530  0.18800  0.54340  Biso   1.000  C
  O3       1.0000 0.02886  0.47518  0.93139  Biso   1.000  O
  O4       1.0000 0.05591  0.48858  0.02558  Biso   1.000  O
  C12      1.0000 0.05442  0.47607  0.97222  Biso   1.000  C
  C13      1.0000 0.08586  0.46079  0.95483  Biso   1.000  C
  C14      1.0000 0.11353  0.45853  0.99732  Biso   1.000  C
  H6       1.0000 0.11307  0.46723  0.03733  Biso   1.000  H
  C15      1.0000 0.14184  0.44356  0.98116  Biso   1.000  C
  H7       1.0000 0.16057  0.44233  0.01043  Biso   1.000  H
  C16      1.0000 0.14299  0.43037  0.92282  Biso   1.000  C
  C17      1.0000 0.11502  0.43249  0.88027  Biso   1.000  C
  H8       1.0000 0.11527  0.42373  0.84023  Biso   1.000  H
  C18      1.0000 0.08663  0.44757  0.89659  Biso   1.000  C
  H9       1.0000 0.06777  0.44873  0.86753  Biso   1.000  H
  C19      1.0000 0.17144  0.41196  0.90457  Biso   1.000  C
  C20      1.0000 0.15313  0.37366  0.87020  Biso   1.000  C
  H10      1.0000 0.12337  0.36063  0.85913  Biso   1.000  H
  C21      1.0000 0.25487  0.54326  0.97273  Biso   1.000  C
  C22      1.0000 0.28197  0.52133  0.87673  Biso   1.000  C
  O5       1.0000 0.69552  0.80852  0.26473  Biso   1.000  O
  O6       1.0000 0.72257  0.82192  0.35892  Biso   1.000  O
  C23      1.0000 0.72108  0.80941  0.30556  Biso   1.000  C
  C24      1.0000 0.75252  0.79413  0.28817  Biso   1.000  C
  C25      1.0000 0.78019  0.79187  0.33066  Biso   1.000  C
  H11      1.0000 0.77973  0.80057  0.37067  Biso   1.000  H
  C26      1.0000 0.80850  0.77690  0.31450  Biso   1.000  C
  H12      1.0000 0.82723  0.77567  0.34377  Biso   1.000  H
  C27      1.0000 0.80965  0.76371  0.25616  Biso   1.000  C
  C28      1.0000 0.78168  0.76583  0.21361  Biso   1.000  C
  H13      1.0000 0.78193  0.75707  0.17357  Biso   1.000  H
  C29      1.0000 0.75329  0.78091  0.22993  Biso   1.000  C
  H14      1.0000 0.73443  0.78207  0.20087  Biso   1.000  H
  C30      1.0000 0.83810  0.74530  0.23791  Biso   1.000  C
  C31      1.0000 0.81979  0.70700  0.20354  Biso   1.000  C
  H15      1.0000 0.79003  0.69397  0.19247  Biso   1.000  H
  C32      1.0000 0.92153  0.87660  0.30607  Biso   1.000  C
  C33      1.0000 0.94863  0.85467  0.21007  Biso   1.000  C
  O7       1.0000 0.85815  0.22034  0.59806  Biso   1.000  O
  O8       1.0000 0.84475  0.23399  0.69225  Biso   1.000  O
  C34      1.0000 0.85726  0.24501  0.63889  Biso   1.000  C
  C35      1.0000 0.87254  0.29173  0.62150  Biso   1.000  C
  C36      1.0000 0.87480  0.32166  0.66399  Biso   1.000  C
  H16      1.0000 0.86610  0.31250  0.70400  Biso   1.000  H
  C37      1.0000 0.88977  0.36494  0.64783  Biso   1.000  C
  H17      1.0000 0.89100  0.38490  0.67710  Biso   1.000  H
  C38      1.0000 0.90296  0.37928  0.58949  Biso   1.000  C
  C39      1.0000 0.90084  0.34919  0.54694  Biso   1.000  C
  H18      1.0000 0.90960  0.35820  0.50690  Biso   1.000  H
  C40      1.0000 0.88576  0.30572  0.56326  Biso   1.000  C
  H19      1.0000 0.88460  0.28570  0.53420  Biso   1.000  H
  C41      1.0000 0.92137  0.42614  0.57124  Biso   1.000  C
  C42      1.0000 0.95967  0.44613  0.53687  Biso   1.000  C
  H20      1.0000 0.97270  0.42940  0.52580  Biso   1.000  H
  C43      1.0000 0.79007  0.37827  0.63940  Biso   1.000  C
  C44      1.0000 0.81200  0.42730  0.54340  Biso   1.000  C
  O9       1.0000 0.52482  0.55367  0.93139  Biso   1.000  O
  O10      1.0000 0.51142  0.56732  0.02558  Biso   1.000  O
  C45      1.0000 0.52393  0.57834  0.97222  Biso   1.000  C
  C46      1.0000 0.53921  0.62506  0.95483  Biso   1.000  C
  C47      1.0000 0.54147  0.65499  0.99732  Biso   1.000  C
  H21      1.0000 0.53277  0.64583  0.03733  Biso   1.000  H
  C48      1.0000 0.55644  0.69827  0.98116  Biso   1.000  C
  H22      1.0000 0.55767  0.71823  0.01043  Biso   1.000  H
  C49      1.0000 0.56963  0.71261  0.92282  Biso   1.000  C
  C50      1.0000 0.56751  0.68252  0.88027  Biso   1.000  C
  H23      1.0000 0.57627  0.69153  0.84023  Biso   1.000  H
  C51      1.0000 0.55243  0.63905  0.89659  Biso   1.000  C
  H24      1.0000 0.55127  0.61903  0.86753  Biso   1.000  H
  C52      1.0000 0.58804  0.75947  0.90457  Biso   1.000  C
  C53      1.0000 0.62634  0.77946  0.87020  Biso   1.000  C
  H25      1.0000 0.63937  0.76273  0.85913  Biso   1.000  H
  C54      1.0000 0.45674  0.71160  0.97273  Biso   1.000  C
  C55      1.0000 0.47867  0.76063  0.87673  Biso   1.000  C
  O11      1.0000 0.19148  0.88701  0.26473  Biso   1.000  O
  O12      1.0000 0.17808  0.90066  0.35892  Biso   1.000  O
  C56      1.0000 0.19059  0.91168  0.30556  Biso   1.000  C
  C57      1.0000 0.20587  0.95840  0.28817  Biso   1.000  C
  C58      1.0000 0.20813  0.98833  0.33066  Biso   1.000  C
  H26      1.0000 0.19943  0.97917  0.37067  Biso   1.000  H
  C59      1.0000 0.22310  0.03161  0.31450  Biso   1.000  C
  H27      1.0000 0.22433  0.05157  0.34377  Biso   1.000  H
  C60      1.0000 0.23629  0.04595  0.25616  Biso   1.000  C
  C61      1.0000 0.23417  0.01586  0.21361  Biso   1.000  C
  H28      1.0000 0.24293  0.02487  0.17357  Biso   1.000  H
  C62      1.0000 0.21909  0.97239  0.22993  Biso   1.000  C
  H29      1.0000 0.21793  0.95237  0.20087  Biso   1.000  H
  C63      1.0000 0.25470  0.09281  0.23791  Biso   1.000  C
  C64      1.0000 0.29300  0.11280  0.20354  Biso   1.000  C
  H30      1.0000 0.30603  0.09607  0.19247  Biso   1.000  H
  C65      1.0000 0.12340  0.04494  0.30607  Biso   1.000  C
  C66      1.0000 0.14533  0.09397  0.21007  Biso   1.000  C
  O13      1.0000 0.77966  0.63781  0.59806  Biso   1.000  O
  O14      1.0000 0.76601  0.61076  0.69225  Biso   1.000  O
  C67      1.0000 0.75499  0.61225  0.63889  Biso   1.000  C
  C68      1.0000 0.70827  0.58081  0.62150  Biso   1.000  C
  C69      1.0000 0.67834  0.55314  0.66399  Biso   1.000  C
  H31      1.0000 0.68750  0.55360  0.70400  Biso   1.000  H
  C70      1.0000 0.63506  0.52483  0.64783  Biso   1.000  C
  H32      1.0000 0.61510  0.50610  0.67710  Biso   1.000  H
  C71      1.0000 0.62072  0.52368  0.58949  Biso   1.000  C
  C72      1.0000 0.65081  0.55165  0.54694  Biso   1.000  C
  H33      1.0000 0.64180  0.55140  0.50690  Biso   1.000  H
  C73      1.0000 0.69428  0.58004  0.56326  Biso   1.000  C
  H34      1.0000 0.71430  0.59890  0.53420  Biso   1.000  H
  C74      1.0000 0.57386  0.49523  0.57124  Biso   1.000  C
  C75      1.0000 0.55387  0.51354  0.53687  Biso   1.000  C
  H35      1.0000 0.57060  0.54330  0.52580  Biso   1.000  H
  C76      1.0000 0.62173  0.41180  0.63940  Biso   1.000  C
  C77      1.0000 0.57270  0.38470  0.54340  Biso   1.000  C
  O15      1.0000 0.44633  0.97114  0.93139  Biso   1.000  O
  O16      1.0000 0.43268  0.94409  0.02558  Biso   1.000  O
  C78      1.0000 0.42166  0.94558  0.97222  Biso   1.000  C
  C79      1.0000 0.37494  0.91414  0.95483  Biso   1.000  C
  C80      1.0000 0.34501  0.88647  0.99732  Biso   1.000  C
  H36      1.0000 0.35417  0.88693  0.03733  Biso   1.000  H
  C81      1.0000 0.30173  0.85816  0.98116  Biso   1.000  C
  H37      1.0000 0.28177  0.83943  0.01043  Biso   1.000  H
  C82      1.0000 0.28739  0.85701  0.92282  Biso   1.000  C
  C83      1.0000 0.31748  0.88498  0.88027  Biso   1.000  C
  H38      1.0000 0.30847  0.88473  0.84023  Biso   1.000  H
  C84      1.0000 0.36095  0.91337  0.89659  Biso   1.000  C
  H39      1.0000 0.38097  0.93223  0.86753  Biso   1.000  H
  C85      1.0000 0.24053  0.82856  0.90457  Biso   1.000  C
  C86      1.0000 0.22054  0.84687  0.87020  Biso   1.000  C
  H40      1.0000 0.23727  0.87663  0.85913  Biso   1.000  H
  C87      1.0000 0.28840  0.74513  0.97273  Biso   1.000  C
  C88      1.0000 0.23937  0.71803  0.87673  Biso   1.000  C
  O17      1.0000 0.11299  0.30448  0.26473  Biso   1.000  O
  O18      1.0000 0.09934  0.27743  0.35892  Biso   1.000  O
  C89      1.0000 0.08832  0.27892  0.30556  Biso   1.000  C
  C90      1.0000 0.04160  0.24748  0.28817  Biso   1.000  C
  C91      1.0000 0.01167  0.21981  0.33066  Biso   1.000  C
  H41      1.0000 0.02083  0.22027  0.37067  Biso   1.000  H
  C92      1.0000 0.96839  0.19150  0.31450  Biso   1.000  C
  H42      1.0000 0.94843  0.17277  0.34377  Biso   1.000  H
  C93      1.0000 0.95405  0.19035  0.25616  Biso   1.000  C
  C94      1.0000 0.98414  0.21832  0.21361  Biso   1.000  C
  H43      1.0000 0.97513  0.21807  0.17357  Biso   1.000  H
  C95      1.0000 0.02761  0.24671  0.22993  Biso   1.000  C
  H44      1.0000 0.04763  0.26557  0.20087  Biso   1.000  H
  C96      1.0000 0.90719  0.16190  0.23791  Biso   1.000  C
  C97      1.0000 0.88720  0.18021  0.20354  Biso   1.000  C
  H45      1.0000 0.90393  0.20997  0.19247  Biso   1.000  H
  C98      1.0000 0.95506  0.07847  0.30607  Biso   1.000  C
  C99      1.0000 0.90603  0.05137  0.21007  Biso   1.000  C
  O19      1.0000 0.14185  0.36219  0.40194  Biso   1.000  O
  O20      1.0000 0.15525  0.38924  0.30775  Biso   1.000  O
  C100     1.0000 0.14274  0.38775  0.36111  Biso   1.000  C
  C101     1.0000 0.12746  0.41919  0.37850  Biso   1.000  C
  C102     1.0000 0.12520  0.44686  0.33601  Biso   1.000  C
  H46      1.0000 0.13390  0.44640  0.29600  Biso   1.000  H
  C103     1.0000 0.11023  0.47517  0.35217  Biso   1.000  C
  H47      1.0000 0.10900  0.49390  0.32290  Biso   1.000  H
  C104     1.0000 0.09704  0.47632  0.41051  Biso   1.000  C
  C105     1.0000 0.09916  0.44835  0.45306  Biso   1.000  C
  H48      1.0000 0.09040  0.44860  0.49310  Biso   1.000  H
  C106     1.0000 0.11424  0.41996  0.43674  Biso   1.000  C
  H49      1.0000 0.11540  0.40110  0.46580  Biso   1.000  H
  C107     1.0000 0.07863  0.50477  0.42876  Biso   1.000  C
  C108     1.0000 0.04033  0.48646  0.46313  Biso   1.000  C
  H50      1.0000 0.02730  0.45670  0.47420  Biso   1.000  H
  C109     1.0000 0.20993  0.58820  0.36060  Biso   1.000  C
  C110     1.0000 0.18800  0.61530  0.45660  Biso   1.000  C
  O21      1.0000 0.80852  0.69552  0.73527  Biso   1.000  O
  O22      1.0000 0.82192  0.72257  0.64108  Biso   1.000  O
  C111     1.0000 0.80941  0.72108  0.69444  Biso   1.000  C
  C112     1.0000 0.79413  0.75252  0.71183  Biso   1.000  C
  C113     1.0000 0.79187  0.78019  0.66934  Biso   1.000  C
  H51      1.0000 0.80057  0.77973  0.62933  Biso   1.000  H
  C114     1.0000 0.77690  0.80850  0.68550  Biso   1.000  C
  H52      1.0000 0.77567  0.82723  0.65623  Biso   1.000  H
  C115     1.0000 0.76371  0.80965  0.74384  Biso   1.000  C
  C116     1.0000 0.76583  0.78168  0.78639  Biso   1.000  C
  H53      1.0000 0.75707  0.78193  0.82643  Biso   1.000  H
  C117     1.0000 0.78091  0.75329  0.77007  Biso   1.000  C
  H54      1.0000 0.78207  0.73443  0.79913  Biso   1.000  H
  C118     1.0000 0.74530  0.83810  0.76209  Biso   1.000  C
  C119     1.0000 0.70700  0.81979  0.79646  Biso   1.000  C
  H55      1.0000 0.69397  0.79003  0.80753  Biso   1.000  H
  C120     1.0000 0.87660  0.92153  0.69393  Biso   1.000  C
  C121     1.0000 0.85467  0.94863  0.78993  Biso   1.000  C
  O23      1.0000 0.47518  0.02886  0.06861  Biso   1.000  O
  O24      1.0000 0.48858  0.05591  0.97442  Biso   1.000  O
  C122     1.0000 0.47607  0.05442  0.02778  Biso   1.000  C
  C123     1.0000 0.46079  0.08586  0.04517  Biso   1.000  C
  C124     1.0000 0.45853  0.11353  0.00268  Biso   1.000  C
  H56      1.0000 0.46723  0.11307  0.96267  Biso   1.000  H
  C125     1.0000 0.44356  0.14184  0.01884  Biso   1.000  C
  H57      1.0000 0.44233  0.16057  0.98957  Biso   1.000  H
  C126     1.0000 0.43037  0.14299  0.07718  Biso   1.000  C
  C127     1.0000 0.43249  0.11502  0.11973  Biso   1.000  C
  H58      1.0000 0.42373  0.11527  0.15977  Biso   1.000  H
  C128     1.0000 0.44757  0.08663  0.10341  Biso   1.000  C
  H59      1.0000 0.44873  0.06777  0.13247  Biso   1.000  H
  C129     1.0000 0.41196  0.17144  0.09543  Biso   1.000  C
  C130     1.0000 0.37366  0.15313  0.12980  Biso   1.000  C
  H60      1.0000 0.36063  0.12337  0.14087  Biso   1.000  H
  C131     1.0000 0.54326  0.25487  0.02727  Biso   1.000  C
  C132     1.0000 0.52133  0.28197  0.12327  Biso   1.000  C
  O25      1.0000 0.22034  0.85815  0.40194  Biso   1.000  O
  O26      1.0000 0.23399  0.84475  0.30775  Biso   1.000  O
  C133     1.0000 0.24501  0.85726  0.36111  Biso   1.000  C
  C134     1.0000 0.29173  0.87254  0.37850  Biso   1.000  C
  C135     1.0000 0.32166  0.87480  0.33601  Biso   1.000  C
  H61      1.0000 0.31250  0.86610  0.29600  Biso   1.000  H
  C136     1.0000 0.36494  0.88977  0.35217  Biso   1.000  C
  H62      1.0000 0.38490  0.89100  0.32290  Biso   1.000  H
  C137     1.0000 0.37928  0.90296  0.41051  Biso   1.000  C
  C138     1.0000 0.34919  0.90084  0.45306  Biso   1.000  C
  H63      1.0000 0.35820  0.90960  0.49310  Biso   1.000  H
  C139     1.0000 0.30572  0.88576  0.43674  Biso   1.000  C
  H64      1.0000 0.28570  0.88460  0.46580  Biso   1.000  H
  C140     1.0000 0.42614  0.92137  0.42876  Biso   1.000  C
  C141     1.0000 0.44613  0.95967  0.46313  Biso   1.000  C
  H65      1.0000 0.42940  0.97270  0.47420  Biso   1.000  H
  C142     1.0000 0.37827  0.79007  0.36060  Biso   1.000  C
  C143     1.0000 0.42730  0.81200  0.45660  Biso   1.000  C
  O27      1.0000 0.88701  0.19148  0.73527  Biso   1.000  O
  O28      1.0000 0.90066  0.17808  0.64108  Biso   1.000  O
  C144     1.0000 0.91168  0.19059  0.69444  Biso   1.000  C
  C145     1.0000 0.95840  0.20587  0.71183  Biso   1.000  C
  C146     1.0000 0.98833  0.20813  0.66934  Biso   1.000  C
  H66      1.0000 0.97917  0.19943  0.62933  Biso   1.000  H
  C147     1.0000 0.03161  0.22310  0.68550  Biso   1.000  C
  H67      1.0000 0.05157  0.22433  0.65623  Biso   1.000  H
  C148     1.0000 0.04595  0.23629  0.74384  Biso   1.000  C
  C149     1.0000 0.01586  0.23417  0.78639  Biso   1.000  C
  H68      1.0000 0.02487  0.24293  0.82643  Biso   1.000  H
  C150     1.0000 0.97239  0.21909  0.77007  Biso   1.000  C
  H69      1.0000 0.95237  0.21793  0.79913  Biso   1.000  H
  C151     1.0000 0.09281  0.25470  0.76209  Biso   1.000  C
  C152     1.0000 0.11280  0.29300  0.79646  Biso   1.000  C
  H70      1.0000 0.09607  0.30603  0.80753  Biso   1.000  H
  C153     1.0000 0.04494  0.12340  0.69393  Biso   1.000  C
  C154     1.0000 0.09397  0.14533  0.78993  Biso   1.000  C
  O29      1.0000 0.55367  0.52482  0.06861  Biso   1.000  O
  O30      1.0000 0.56732  0.51142  0.97442  Biso   1.000  O
  C155     1.0000 0.57834  0.52393  0.02778  Biso   1.000  C
  C156     1.0000 0.62506  0.53921  0.04517  Biso   1.000  C
  C157     1.0000 0.65499  0.54147  0.00268  Biso   1.000  C
  H71      1.0000 0.64583  0.53277  0.96267  Biso   1.000  H
  C158     1.0000 0.69827  0.55644  0.01884  Biso   1.000  C
  H72      1.0000 0.71823  0.55767  0.98957  Biso   1.000  H
  C159     1.0000 0.71261  0.56963  0.07718  Biso   1.000  C
  C160     1.0000 0.68252  0.56751  0.11973  Biso   1.000  C
  H73      1.0000 0.69153  0.57627  0.15977  Biso   1.000  H
  C161     1.0000 0.63905  0.55243  0.10341  Biso   1.000  C
  H74      1.0000 0.61903  0.55127  0.13247  Biso   1.000  H
  C162     1.0000 0.75947  0.58804  0.09543  Biso   1.000  C
  C163     1.0000 0.77946  0.62634  0.12980  Biso   1.000  C
  H75      1.0000 0.76273  0.63937  0.14087  Biso   1.000  H
  C164     1.0000 0.71160  0.45674  0.02727  Biso   1.000  C
  C165     1.0000 0.76063  0.47867  0.12327  Biso   1.000  C
  O31      1.0000 0.63781  0.77966  0.40194  Biso   1.000  O
  O32      1.0000 0.61076  0.76601  0.30775  Biso   1.000  O
  C166     1.0000 0.61225  0.75499  0.36111  Biso   1.000  C
  C167     1.0000 0.58081  0.70827  0.37850  Biso   1.000  C
  C168     1.0000 0.55314  0.67834  0.33601  Biso   1.000  C
  H76      1.0000 0.55360  0.68750  0.29600  Biso   1.000  H
  C169     1.0000 0.52483  0.63506  0.35217  Biso   1.000  C
  H77      1.0000 0.50610  0.61510  0.32290  Biso   1.000  H
  C170     1.0000 0.52368  0.62072  0.41051  Biso   1.000  C
  C171     1.0000 0.55165  0.65081  0.45306  Biso   1.000  C
  H78      1.0000 0.55140  0.64180  0.49310  Biso   1.000  H
  C172     1.0000 0.58004  0.69428  0.43674  Biso   1.000  C
  H79      1.0000 0.59890  0.71430  0.46580  Biso   1.000  H
  C173     1.0000 0.49523  0.57386  0.42876  Biso   1.000  C
  C174     1.0000 0.51354  0.55387  0.46313  Biso   1.000  C
  H80      1.0000 0.54330  0.57060  0.47420  Biso   1.000  H
  C175     1.0000 0.41180  0.62173  0.36060  Biso   1.000  C
  C176     1.0000 0.38470  0.57270  0.45660  Biso   1.000  C
  O33      1.0000 0.30448  0.11299  0.73527  Biso   1.000  O
  O34      1.0000 0.27743  0.09934  0.64108  Biso   1.000  O
  C177     1.0000 0.27892  0.08832  0.69444  Biso   1.000  C
  C178     1.0000 0.24748  0.04160  0.71183  Biso   1.000  C
  C179     1.0000 0.21981  0.01167  0.66934  Biso   1.000  C
  H81      1.0000 0.22027  0.02083  0.62933  Biso   1.000  H
  C180     1.0000 0.19150  0.96839  0.68550  Biso   1.000  C
  H82      1.0000 0.17277  0.94843  0.65623  Biso   1.000  H
  C181     1.0000 0.19035  0.95405  0.74384  Biso   1.000  C
  C182     1.0000 0.21832  0.98414  0.78639  Biso   1.000  C
  H83      1.0000 0.21807  0.97513  0.82643  Biso   1.000  H
  C183     1.0000 0.24671  0.02761  0.77007  Biso   1.000  C
  H84      1.0000 0.26557  0.04763  0.79913  Biso   1.000  H
  C184     1.0000 0.16190  0.90719  0.76209  Biso   1.000  C
  C185     1.0000 0.18021  0.88720  0.79646  Biso   1.000  C
  H85      1.0000 0.20997  0.90393  0.80753  Biso   1.000  H
  C186     1.0000 0.07847  0.95506  0.69393  Biso   1.000  C
  C187     1.0000 0.05137  0.90603  0.78993  Biso   1.000  C
  O35      1.0000 0.97114  0.44633  0.06861  Biso   1.000  O
  O36      1.0000 0.94409  0.43268  0.97442  Biso   1.000  O
  C188     1.0000 0.94558  0.42166  0.02778  Biso   1.000  C
  C189     1.0000 0.91414  0.37494  0.04517  Biso   1.000  C
  C190     1.0000 0.88647  0.34501  0.00268  Biso   1.000  C
  H86      1.0000 0.88693  0.35417  0.96267  Biso   1.000  H
  C191     1.0000 0.85816  0.30173  0.01884  Biso   1.000  C
  H87      1.0000 0.83943  0.28177  0.98957  Biso   1.000  H
  C192     1.0000 0.85701  0.28739  0.07718  Biso   1.000  C
  C193     1.0000 0.88498  0.31748  0.11973  Biso   1.000  C
  H88      1.0000 0.88473  0.30847  0.15977  Biso   1.000  H
  C194     1.0000 0.91337  0.36095  0.10341  Biso   1.000  C
  H89      1.0000 0.93223  0.38097  0.13247  Biso   1.000  H
  C195     1.0000 0.82856  0.24053  0.09543  Biso   1.000  C
  C196     1.0000 0.84687  0.22054  0.12980  Biso   1.000  C
  H90      1.0000 0.87663  0.23727  0.14087  Biso   1.000  H
  C197     1.0000 0.74513  0.28840  0.02727  Biso   1.000  C
  C198     1.0000 0.71803  0.23937  0.12327  Biso   1.000  C
  O37      1.0000 0.63781  0.85815  0.40194  Biso   1.000  O
  O38      1.0000 0.61076  0.84475  0.30775  Biso   1.000  O
  C199     1.0000 0.61225  0.85726  0.36111  Biso   1.000  C
  C200     1.0000 0.58081  0.87254  0.37850  Biso   1.000  C
  C201     1.0000 0.55314  0.87480  0.33601  Biso   1.000  C
  H91      1.0000 0.55360  0.86610  0.29600  Biso   1.000  H
  C202     1.0000 0.52483  0.88977  0.35217  Biso   1.000  C
  H92      1.0000 0.50610  0.89100  0.32290  Biso   1.000  H
  C203     1.0000 0.52368  0.90296  0.41051  Biso   1.000  C
  C204     1.0000 0.55165  0.90084  0.45306  Biso   1.000  C
  H93      1.0000 0.55140  0.90960  0.49310  Biso   1.000  H
  C205     1.0000 0.58004  0.88576  0.43674  Biso   1.000  C
  H94      1.0000 0.59890  0.88460  0.46580  Biso   1.000  H
  C206     1.0000 0.49523  0.92137  0.42876  Biso   1.000  C
  C207     1.0000 0.51354  0.95967  0.46313  Biso   1.000  C
  H95      1.0000 0.54330  0.97270  0.47420  Biso   1.000  H
  C208     1.0000 0.41180  0.79007  0.36060  Biso   1.000  C
  C209     1.0000 0.38470  0.81200  0.45660  Biso   1.000  C
  O39      1.0000 0.30448  0.19148  0.73527  Biso   1.000  O
  O40      1.0000 0.27743  0.17808  0.64108  Biso   1.000  O
  C210     1.0000 0.27892  0.19059  0.69444  Biso   1.000  C
  C211     1.0000 0.24748  0.20587  0.71183  Biso   1.000  C
  C212     1.0000 0.21981  0.20813  0.66934  Biso   1.000  C
  H96      1.0000 0.22027  0.19943  0.62933  Biso   1.000  H
  C213     1.0000 0.19150  0.22310  0.68550  Biso   1.000  C
  H97      1.0000 0.17277  0.22433  0.65623  Biso   1.000  H
  C214     1.0000 0.19035  0.23629  0.74384  Biso   1.000  C
  C215     1.0000 0.21832  0.23417  0.78639  Biso   1.000  C
  H98      1.0000 0.21807  0.24293  0.82643  Biso   1.000  H
  C216     1.0000 0.24671  0.21909  0.77007  Biso   1.000  C
  H99      1.0000 0.26557  0.21793  0.79913  Biso   1.000  H
  C217     1.0000 0.16190  0.25470  0.76209  Biso   1.000  C
  C218     1.0000 0.18021  0.29300  0.79646  Biso   1.000  C
  H100     1.0000 0.20997  0.30603  0.80753  Biso   1.000  H
  C219     1.0000 0.07847  0.12340  0.69393  Biso   1.000  C
  C220     1.0000 0.05137  0.14533  0.78993  Biso   1.000  C
  O41      1.0000 0.97114  0.52482  0.06861  Biso   1.000  O
  O42      1.0000 0.94409  0.51142  0.97442  Biso   1.000  O
  C221     1.0000 0.94558  0.52393  0.02778  Biso   1.000  C
  C222     1.0000 0.91414  0.53921  0.04517  Biso   1.000  C
  C223     1.0000 0.88647  0.54147  0.00268  Biso   1.000  C
  H101     1.0000 0.88693  0.53277  0.96267  Biso   1.000  H
  C224     1.0000 0.85816  0.55644  0.01884  Biso   1.000  C
  H102     1.0000 0.83943  0.55767  0.98957  Biso   1.000  H
  C225     1.0000 0.85701  0.56963  0.07718  Biso   1.000  C
  C226     1.0000 0.88498  0.56751  0.11973  Biso   1.000  C
  H103     1.0000 0.88473  0.57627  0.15977  Biso   1.000  H
  C227     1.0000 0.91337  0.55243  0.10341  Biso   1.000  C
  H104     1.0000 0.93223  0.55127  0.13247  Biso   1.000  H
  C228     1.0000 0.82856  0.58804  0.09543  Biso   1.000  C
  C229     1.0000 0.84687  0.62634  0.12980  Biso   1.000  C
  H105     1.0000 0.87663  0.63937  0.14087  Biso   1.000  H
  C230     1.0000 0.74513  0.45674  0.02727  Biso   1.000  C
  C231     1.0000 0.71803  0.47867  0.12327  Biso   1.000  C
  O43      1.0000 0.14185  0.77966  0.40194  Biso   1.000  O
  O44      1.0000 0.15525  0.76601  0.30775  Biso   1.000  O
  C232     1.0000 0.14274  0.75499  0.36111  Biso   1.000  C
  C233     1.0000 0.12746  0.70827  0.37850  Biso   1.000  C
  C234     1.0000 0.12520  0.67834  0.33601  Biso   1.000  C
  H106     1.0000 0.13390  0.68750  0.29600  Biso   1.000  H
  C235     1.0000 0.11023  0.63506  0.35217  Biso   1.000  C
  H107     1.0000 0.10900  0.61510  0.32290  Biso   1.000  H
  C236     1.0000 0.09704  0.62072  0.41051  Biso   1.000  C
  C237     1.0000 0.09916  0.65081  0.45306  Biso   1.000  C
  H108     1.0000 0.09040  0.64180  0.49310  Biso   1.000  H
  C238     1.0000 0.11424  0.69428  0.43674  Biso   1.000  C
  H109     1.0000 0.11540  0.71430  0.46580  Biso   1.000  H
  C239     1.0000 0.07863  0.57386  0.42876  Biso   1.000  C
  C240     1.0000 0.04033  0.55387  0.46313  Biso   1.000  C
  H110     1.0000 0.02730  0.57060  0.47420  Biso   1.000  H
  C241     1.0000 0.20993  0.62173  0.36060  Biso   1.000  C
  C242     1.0000 0.18800  0.57270  0.45660  Biso   1.000  C
  O45      1.0000 0.80852  0.11299  0.73527  Biso   1.000  O
  O46      1.0000 0.82192  0.09934  0.64108  Biso   1.000  O
  C243     1.0000 0.80941  0.08832  0.69444  Biso   1.000  C
  C244     1.0000 0.79413  0.04160  0.71183  Biso   1.000  C
  C245     1.0000 0.79187  0.01167  0.66934  Biso   1.000  C
  H111     1.0000 0.80057  0.02083  0.62933  Biso   1.000  H
  C246     1.0000 0.77690  0.96839  0.68550  Biso   1.000  C
  H112     1.0000 0.77567  0.94843  0.65623  Biso   1.000  H
  C247     1.0000 0.76371  0.95405  0.74384  Biso   1.000  C
  C248     1.0000 0.76583  0.98414  0.78639  Biso   1.000  C
  H113     1.0000 0.75707  0.97513  0.82643  Biso   1.000  H
  C249     1.0000 0.78091  0.02761  0.77007  Biso   1.000  C
  H114     1.0000 0.78207  0.04763  0.79913  Biso   1.000  H
  C250     1.0000 0.74530  0.90719  0.76209  Biso   1.000  C
  C251     1.0000 0.70700  0.88720  0.79646  Biso   1.000  C
  H115     1.0000 0.69397  0.90393  0.80753  Biso   1.000  H
  C252     1.0000 0.87660  0.95506  0.69393  Biso   1.000  C
  C253     1.0000 0.85467  0.90603  0.78993  Biso   1.000  C
  O47      1.0000 0.47518  0.44633  0.06861  Biso   1.000  O
  O48      1.0000 0.48858  0.43268  0.97442  Biso   1.000  O
  C254     1.0000 0.47607  0.42166  0.02778  Biso   1.000  C
  C255     1.0000 0.46079  0.37494  0.04517  Biso   1.000  C
  C256     1.0000 0.45853  0.34501  0.00268  Biso   1.000  C
  H116     1.0000 0.46723  0.35417  0.96267  Biso   1.000  H
  C257     1.0000 0.44356  0.30173  0.01884  Biso   1.000  C
  H117     1.0000 0.44233  0.28177  0.98957  Biso   1.000  H
  C258     1.0000 0.43037  0.28739  0.07718  Biso   1.000  C
  C259     1.0000 0.43249  0.31748  0.11973  Biso   1.000  C
  H118     1.0000 0.42373  0.30847  0.15977  Biso   1.000  H
  C260     1.0000 0.44757  0.36095  0.10341  Biso   1.000  C
  H119     1.0000 0.44873  0.38097  0.13247  Biso   1.000  H
  C261     1.0000 0.41196  0.24053  0.09543  Biso   1.000  C
  C262     1.0000 0.37366  0.22054  0.12980  Biso   1.000  C
  H120     1.0000 0.36063  0.23727  0.14087  Biso   1.000  H
  C263     1.0000 0.54326  0.28840  0.02727  Biso   1.000  C
  C264     1.0000 0.52133  0.23937  0.12327  Biso   1.000  C
  O49      1.0000 0.22034  0.36219  0.40194  Biso   1.000  O
  O50      1.0000 0.23399  0.38924  0.30775  Biso   1.000  O
  C265     1.0000 0.24501  0.38775  0.36111  Biso   1.000  C
  C266     1.0000 0.29173  0.41919  0.37850  Biso   1.000  C
  C267     1.0000 0.32166  0.44686  0.33601  Biso   1.000  C
  H121     1.0000 0.31250  0.44640  0.29600  Biso   1.000  H
  C268     1.0000 0.36494  0.47517  0.35217  Biso   1.000  C
  H122     1.0000 0.38490  0.49390  0.32290  Biso   1.000  H
  C269     1.0000 0.37928  0.47632  0.41051  Biso   1.000  C
  C270     1.0000 0.34919  0.44835  0.45306  Biso   1.000  C
  H123     1.0000 0.35820  0.44860  0.49310  Biso   1.000  H
  C271     1.0000 0.30572  0.41996  0.43674  Biso   1.000  C
  H124     1.0000 0.28570  0.40110  0.46580  Biso   1.000  H
  C272     1.0000 0.42614  0.50477  0.42876  Biso   1.000  C
  C273     1.0000 0.44613  0.48646  0.46313  Biso   1.000  C
  H125     1.0000 0.42940  0.45670  0.47420  Biso   1.000  H
  C274     1.0000 0.37827  0.58820  0.36060  Biso   1.000  C
  C275     1.0000 0.42730  0.61530  0.45660  Biso   1.000  C
  O51      1.0000 0.88701  0.69552  0.73527  Biso   1.000  O
  O52      1.0000 0.90066  0.72257  0.64108  Biso   1.000  O
  C276     1.0000 0.91168  0.72108  0.69444  Biso   1.000  C
  C277     1.0000 0.95840  0.75252  0.71183  Biso   1.000  C
  C278     1.0000 0.98833  0.78019  0.66934  Biso   1.000  C
  H126     1.0000 0.97917  0.77973  0.62933  Biso   1.000  H
  C279     1.0000 0.03161  0.80850  0.68550  Biso   1.000  C
  H127     1.0000 0.05157  0.82723  0.65623  Biso   1.000  H
  C280     1.0000 0.04595  0.80965  0.74384  Biso   1.000  C
  C281     1.0000 0.01586  0.78168  0.78639  Biso   1.000  C
  H128     1.0000 0.02487  0.78193  0.82643  Biso   1.000  H
  C282     1.0000 0.97239  0.75329  0.77007  Biso   1.000  C
  H129     1.0000 0.95237  0.73443  0.79913  Biso   1.000  H
  C283     1.0000 0.09281  0.83810  0.76209  Biso   1.000  C
  C284     1.0000 0.11280  0.81979  0.79646  Biso   1.000  C
  H130     1.0000 0.09607  0.79003  0.80753  Biso   1.000  H
  C285     1.0000 0.04494  0.92153  0.69393  Biso   1.000  C
  C286     1.0000 0.09397  0.94863  0.78993  Biso   1.000  C
  O53      1.0000 0.55367  0.02886  0.06861  Biso   1.000  O
  O54      1.0000 0.56732  0.05591  0.97442  Biso   1.000  O
  C287     1.0000 0.57834  0.05442  0.02778  Biso   1.000  C
  C288     1.0000 0.62506  0.08586  0.04517  Biso   1.000  C
  C289     1.0000 0.65499  0.11353  0.00268  Biso   1.000  C
  H131     1.0000 0.64583  0.11307  0.96267  Biso   1.000  H
  C290     1.0000 0.69827  0.14184  0.01884  Biso   1.000  C
  H132     1.0000 0.71823  0.16057  0.98957  Biso   1.000  H
  C291     1.0000 0.71261  0.14299  0.07718  Biso   1.000  C
  C292     1.0000 0.68252  0.11502  0.11973  Biso   1.000  C
  H133     1.0000 0.69153  0.11527  0.15977  Biso   1.000  H
  C293     1.0000 0.63905  0.08663  0.10341  Biso   1.000  C
  H134     1.0000 0.61903  0.06777  0.13247  Biso   1.000  H
  C294     1.0000 0.75947  0.17144  0.09543  Biso   1.000  C
  C295     1.0000 0.77946  0.15313  0.12980  Biso   1.000  C
  H135     1.0000 0.76273  0.12337  0.14087  Biso   1.000  H
  C296     1.0000 0.71160  0.25487  0.02727  Biso   1.000  C
  C297     1.0000 0.76063  0.28197  0.12327  Biso   1.000  C
  O55      1.0000 0.85815  0.63781  0.59806  Biso   1.000  O
  O56      1.0000 0.84475  0.61076  0.69225  Biso   1.000  O
  C298     1.0000 0.85726  0.61225  0.63889  Biso   1.000  C
  C299     1.0000 0.87254  0.58081  0.62150  Biso   1.000  C
  C300     1.0000 0.87480  0.55314  0.66399  Biso   1.000  C
  H136     1.0000 0.86610  0.55360  0.70400  Biso   1.000  H
  C301     1.0000 0.88977  0.52483  0.64783  Biso   1.000  C
  H137     1.0000 0.89100  0.50610  0.67710  Biso   1.000  H
  C302     1.0000 0.90296  0.52368  0.58949  Biso   1.000  C
  C303     1.0000 0.90084  0.55165  0.54694  Biso   1.000  C
  H138     1.0000 0.90960  0.55140  0.50690  Biso   1.000  H
  C304     1.0000 0.88576  0.58004  0.56326  Biso   1.000  C
  H139     1.0000 0.88460  0.59890  0.53420  Biso   1.000  H
  C305     1.0000 0.92137  0.49523  0.57124  Biso   1.000  C
  C306     1.0000 0.95967  0.51354  0.53687  Biso   1.000  C
  H140     1.0000 0.97270  0.54330  0.52580  Biso   1.000  H
  C307     1.0000 0.79007  0.41180  0.63940  Biso   1.000  C
  C308     1.0000 0.81200  0.38470  0.54340  Biso   1.000  C
  O57      1.0000 0.52482  0.97114  0.93139  Biso   1.000  O
  O58      1.0000 0.51142  0.94409  0.02558  Biso   1.000  O
  C309     1.0000 0.52393  0.94558  0.97222  Biso   1.000  C
  C310     1.0000 0.53921  0.91414  0.95483  Biso   1.000  C
  C311     1.0000 0.54147  0.88647  0.99732  Biso   1.000  C
  H141     1.0000 0.53277  0.88693  0.03733  Biso   1.000  H
  C312     1.0000 0.55644  0.85816  0.98116  Biso   1.000  C
  H142     1.0000 0.55767  0.83943  0.01043  Biso   1.000  H
  C313     1.0000 0.56963  0.85701  0.92282  Biso   1.000  C
  C314     1.0000 0.56751  0.88498  0.88027  Biso   1.000  C
  H143     1.0000 0.57627  0.88473  0.84023  Biso   1.000  H
  C315     1.0000 0.55243  0.91337  0.89659  Biso   1.000  C
  H144     1.0000 0.55127  0.93223  0.86753  Biso   1.000  H
  C316     1.0000 0.58804  0.82856  0.90457  Biso   1.000  C
  C317     1.0000 0.62634  0.84687  0.87020  Biso   1.000  C
  H145     1.0000 0.63937  0.87663  0.85913  Biso   1.000  H
  C318     1.0000 0.45674  0.74513  0.97273  Biso   1.000  C
  C319     1.0000 0.47867  0.71803  0.87673  Biso   1.000  C
  O59      1.0000 0.19148  0.30448  0.26473  Biso   1.000  O
  O60      1.0000 0.17808  0.27743  0.35892  Biso   1.000  O
  C320     1.0000 0.19059  0.27892  0.30556  Biso   1.000  C
  C321     1.0000 0.20587  0.24748  0.28817  Biso   1.000  C
  C322     1.0000 0.20813  0.21981  0.33066  Biso   1.000  C
  H146     1.0000 0.19943  0.22027  0.37067  Biso   1.000  H
  C323     1.0000 0.22310  0.19150  0.31450  Biso   1.000  C
  H147     1.0000 0.22433  0.17277  0.34377  Biso   1.000  H
  C324     1.0000 0.23629  0.19035  0.25616  Biso   1.000  C
  C325     1.0000 0.23417  0.21832  0.21361  Biso   1.000  C
  H148     1.0000 0.24293  0.21807  0.17357  Biso   1.000  H
  C326     1.0000 0.21909  0.24671  0.22993  Biso   1.000  C
  H149     1.0000 0.21793  0.26557  0.20087  Biso   1.000  H
  C327     1.0000 0.25470  0.16190  0.23791  Biso   1.000  C
  C328     1.0000 0.29300  0.18021  0.20354  Biso   1.000  C
  H150     1.0000 0.30603  0.20997  0.19247  Biso   1.000  H
  C329     1.0000 0.12340  0.07847  0.30607  Biso   1.000  C
  C330     1.0000 0.14533  0.05137  0.21007  Biso   1.000  C
  O61      1.0000 0.77966  0.14185  0.59806  Biso   1.000  O
  O62      1.0000 0.76601  0.15525  0.69225  Biso   1.000  O
  C331     1.0000 0.75499  0.14274  0.63889  Biso   1.000  C
  C332     1.0000 0.70827  0.12746  0.62150  Biso   1.000  C
  C333     1.0000 0.67834  0.12520  0.66399  Biso   1.000  C
  H151     1.0000 0.68750  0.13390  0.70400  Biso   1.000  H
  C334     1.0000 0.63506  0.11023  0.64783  Biso   1.000  C
  H152     1.0000 0.61510  0.10900  0.67710  Biso   1.000  H
  C335     1.0000 0.62072  0.09704  0.58949  Biso   1.000  C
  C336     1.0000 0.65081  0.09916  0.54694  Biso   1.000  C
  H153     1.0000 0.64180  0.09040  0.50690  Biso   1.000  H
  C337     1.0000 0.69428  0.11424  0.56326  Biso   1.000  C
  H154     1.0000 0.71430  0.11540  0.53420  Biso   1.000  H
  C338     1.0000 0.57386  0.07863  0.57124  Biso   1.000  C
  C339     1.0000 0.55387  0.04033  0.53687  Biso   1.000  C
  H155     1.0000 0.57060  0.02730  0.52580  Biso   1.000  H
  C340     1.0000 0.62173  0.20993  0.63940  Biso   1.000  C
  C341     1.0000 0.57270  0.18800  0.54340  Biso   1.000  C
  O63      1.0000 0.44633  0.47518  0.93139  Biso   1.000  O
  O64      1.0000 0.43268  0.48858  0.02558  Biso   1.000  O
  C342     1.0000 0.42166  0.47607  0.97222  Biso   1.000  C
  C343     1.0000 0.37494  0.46079  0.95483  Biso   1.000  C
  C344     1.0000 0.34501  0.45853  0.99732  Biso   1.000  C
  H156     1.0000 0.35417  0.46723  0.03733  Biso   1.000  H
  C345     1.0000 0.30173  0.44356  0.98116  Biso   1.000  C
  H157     1.0000 0.28177  0.44233  0.01043  Biso   1.000  H
  C346     1.0000 0.28739  0.43037  0.92282  Biso   1.000  C
  C347     1.0000 0.31748  0.43249  0.88027  Biso   1.000  C
  H158     1.0000 0.30847  0.42373  0.84023  Biso   1.000  H
  C348     1.0000 0.36095  0.44757  0.89659  Biso   1.000  C
  H159     1.0000 0.38097  0.44873  0.86753  Biso   1.000  H
  C349     1.0000 0.24053  0.41196  0.90457  Biso   1.000  C
  C350     1.0000 0.22054  0.37366  0.87020  Biso   1.000  C
  H160     1.0000 0.23727  0.36063  0.85913  Biso   1.000  H
  C351     1.0000 0.28840  0.54326  0.97273  Biso   1.000  C
  C352     1.0000 0.23937  0.52133  0.87673  Biso   1.000  C
  O65      1.0000 0.11299  0.80852  0.26473  Biso   1.000  O
  O66      1.0000 0.09934  0.82192  0.35892  Biso   1.000  O
  C353     1.0000 0.08832  0.80941  0.30556  Biso   1.000  C
  C354     1.0000 0.04160  0.79413  0.28817  Biso   1.000  C
  C355     1.0000 0.01167  0.79187  0.33066  Biso   1.000  C
  H161     1.0000 0.02083  0.80057  0.37067  Biso   1.000  H
  C356     1.0000 0.96839  0.77690  0.31450  Biso   1.000  C
  H162     1.0000 0.94843  0.77567  0.34377  Biso   1.000  H
  C357     1.0000 0.95405  0.76371  0.25616  Biso   1.000  C
  C358     1.0000 0.98414  0.76583  0.21361  Biso   1.000  C
  H163     1.0000 0.97513  0.75707  0.17357  Biso   1.000  H
  C359     1.0000 0.02761  0.78091  0.22993  Biso   1.000  C
  H164     1.0000 0.04763  0.78207  0.20087  Biso   1.000  H
  C360     1.0000 0.90719  0.74530  0.23791  Biso   1.000  C
  C361     1.0000 0.88720  0.70700  0.20354  Biso   1.000  C
  H165     1.0000 0.90393  0.69397  0.19247  Biso   1.000  H
  C362     1.0000 0.95506  0.87660  0.30607  Biso   1.000  C
  C363     1.0000 0.90603  0.85467  0.21007  Biso   1.000  C
  O67      1.0000 0.36219  0.22034  0.59806  Biso   1.000  O
  O68      1.0000 0.38924  0.23399  0.69225  Biso   1.000  O
  C364     1.0000 0.38775  0.24501  0.63889  Biso   1.000  C
  C365     1.0000 0.41919  0.29173  0.62150  Biso   1.000  C
  C366     1.0000 0.44686  0.32166  0.66399  Biso   1.000  C
  H166     1.0000 0.44640  0.31250  0.70400  Biso   1.000  H
  C367     1.0000 0.47517  0.36494  0.64783  Biso   1.000  C
  H167     1.0000 0.49390  0.38490  0.67710  Biso   1.000  H
  C368     1.0000 0.47632  0.37928  0.58949  Biso   1.000  C
  C369     1.0000 0.44835  0.34919  0.54694  Biso   1.000  C
  H168     1.0000 0.44860  0.35820  0.50690  Biso   1.000  H
  C370     1.0000 0.41996  0.30572  0.56326  Biso   1.000  C
  H169     1.0000 0.40110  0.28570  0.53420  Biso   1.000  H
  C371     1.0000 0.50477  0.42614  0.57124  Biso   1.000  C
  C372     1.0000 0.48646  0.44613  0.53687  Biso   1.000  C
  H170     1.0000 0.45670  0.42940  0.52580  Biso   1.000  H
  C373     1.0000 0.58820  0.37827  0.63940  Biso   1.000  C
  C374     1.0000 0.61530  0.42730  0.54340  Biso   1.000  C
  O69      1.0000 0.02886  0.55367  0.93139  Biso   1.000  O
  O70      1.0000 0.05591  0.56732  0.02558  Biso   1.000  O
  C375     1.0000 0.05442  0.57834  0.97222  Biso   1.000  C
  C376     1.0000 0.08586  0.62506  0.95483  Biso   1.000  C
  C377     1.0000 0.11353  0.65499  0.99732  Biso   1.000  C
  H171     1.0000 0.11307  0.64583  0.03733  Biso   1.000  H
  C378     1.0000 0.14184  0.69827  0.98116  Biso   1.000  C
  H172     1.0000 0.16057  0.71823  0.01043  Biso   1.000  H
  C379     1.0000 0.14299  0.71261  0.92282  Biso   1.000  C
  C380     1.0000 0.11502  0.68252  0.88027  Biso   1.000  C
  H173     1.0000 0.11527  0.69153  0.84023  Biso   1.000  H
  C381     1.0000 0.08663  0.63905  0.89659  Biso   1.000  C
  H174     1.0000 0.06777  0.61903  0.86753  Biso   1.000  H
  C382     1.0000 0.17144  0.75947  0.90457  Biso   1.000  C
  C383     1.0000 0.15313  0.77946  0.87020  Biso   1.000  C
  H175     1.0000 0.12337  0.76273  0.85913  Biso   1.000  H
  C384     1.0000 0.25487  0.71160  0.97273  Biso   1.000  C
  C385     1.0000 0.28197  0.76063  0.87673  Biso   1.000  C
  O71      1.0000 0.69552  0.88701  0.26473  Biso   1.000  O
  O72      1.0000 0.72257  0.90066  0.35892  Biso   1.000  O
  C386     1.0000 0.72108  0.91168  0.30556  Biso   1.000  C
  C387     1.0000 0.75252  0.95840  0.28817  Biso   1.000  C
  C388     1.0000 0.78019  0.98833  0.33066  Biso   1.000  C
  H176     1.0000 0.77973  0.97917  0.37067  Biso   1.000  H
  C389     1.0000 0.80850  0.03161  0.31450  Biso   1.000  C
  H177     1.0000 0.82723  0.05157  0.34377  Biso   1.000  H
  C390     1.0000 0.80965  0.04595  0.25616  Biso   1.000  C
  C391     1.0000 0.78168  0.01586  0.21361  Biso   1.000  C
  H178     1.0000 0.78193  0.02487  0.17357  Biso   1.000  H
  C392     1.0000 0.75329  0.97239  0.22993  Biso   1.000  C
  H179     1.0000 0.73443  0.95237  0.20087  Biso   1.000  H
  C393     1.0000 0.83810  0.09281  0.23791  Biso   1.000  C
  C394     1.0000 0.81979  0.11280  0.20354  Biso   1.000  C
  H180     1.0000 0.79003  0.09607  0.19247  Biso   1.000  H
  C395     1.0000 0.92153  0.04494  0.30607  Biso   1.000  C
  C396     1.0000 0.94863  0.09397  0.21007  Biso   1.000  C
  Cu1      1.0000 0.31765  0.15882  0.61112  Biso   1.000  Cu
  Cu2      1.0000 0.98432  0.49216  0.94445  Biso   1.000  Cu
  Cu3      1.0000 0.65098  0.82549  0.27779  Biso   1.000  Cu
  Cu4      1.0000 0.84118  0.15882  0.61112  Biso   1.000  Cu
  Cu5      1.0000 0.50784  0.49216  0.94445  Biso   1.000  Cu
  Cu6      1.0000 0.17451  0.82549  0.27779  Biso   1.000  Cu
  Cu7      1.0000 0.84118  0.68235  0.61112  Biso   1.000  Cu
  Cu8      1.0000 0.50784  0.01568  0.94445  Biso   1.000  Cu
  Cu9      1.0000 0.17451  0.34902  0.27779  Biso   1.000  Cu
  Cu10     1.0000 0.15882  0.31765  0.38888  Biso   1.000  Cu
  Cu11     1.0000 0.82549  0.65098  0.72221  Biso   1.000  Cu
  Cu12     1.0000 0.49216  0.98432  0.05555  Biso   1.000  Cu
  Cu13     1.0000 0.15882  0.84118  0.38888  Biso   1.000  Cu
  Cu14     1.0000 0.82549  0.17451  0.72221  Biso   1.000  Cu
  Cu15     1.0000 0.49216  0.50784  0.05555  Biso   1.000  Cu
  Cu16     1.0000 0.68235  0.84118  0.38888  Biso   1.000  Cu
  Cu17     1.0000 0.34902  0.17451  0.72221  Biso   1.000  Cu
  Cu18     1.0000 0.01568  0.50784  0.05555  Biso   1.000  Cu
  O73      1.0000 0.56772  0.13545  0.62256  Biso   1.000  O
  C397     1.0000 0.51017  0.02034  0.51813  Biso   1.000  C
  C398     1.0000 0.54890  0.09781  0.58864  Biso   1.000  C
  C399     1.0000 0.58812  0.17624  0.59180  Biso   1.000  C
  O74      1.0000 0.23439  0.46878  0.95589  Biso   1.000  O
  C400     1.0000 0.17684  0.35367  0.85146  Biso   1.000  C
  C401     1.0000 0.21557  0.43114  0.92197  Biso   1.000  C
  C402     1.0000 0.25479  0.50957  0.92513  Biso   1.000  C
  O75      1.0000 0.90106  0.80212  0.28923  Biso   1.000  O
  C403     1.0000 0.84350  0.68701  0.18480  Biso   1.000  C
  C404     1.0000 0.88224  0.76448  0.25531  Biso   1.000  C
  C405     1.0000 0.92145  0.84291  0.25847  Biso   1.000  C
  O76      1.0000 0.86455  0.43227  0.62256  Biso   1.000  O
  C406     1.0000 0.97966  0.48983  0.51813  Biso   1.000  C
  C407     1.0000 0.90219  0.45109  0.58864  Biso   1.000  C
  C408     1.0000 0.82376  0.41188  0.59180  Biso   1.000  C
  O77      1.0000 0.53122  0.76561  0.95589  Biso   1.000  O
  C409     1.0000 0.64633  0.82316  0.85146  Biso   1.000  C
  C410     1.0000 0.56886  0.78443  0.92197  Biso   1.000  C
  C411     1.0000 0.49043  0.74521  0.92513  Biso   1.000  C
  O78      1.0000 0.19788  0.09894  0.28923  Biso   1.000  O
  C412     1.0000 0.31299  0.15650  0.18480  Biso   1.000  C
  C413     1.0000 0.23552  0.11776  0.25531  Biso   1.000  C
  C414     1.0000 0.15709  0.07855  0.25847  Biso   1.000  C
  O79      1.0000 0.56772  0.43228  0.62256  Biso   1.000  O
  C415     1.0000 0.51017  0.48983  0.51813  Biso   1.000  C
  C416     1.0000 0.54891  0.45109  0.58864  Biso   1.000  C
  C417     1.0000 0.58812  0.41188  0.59180  Biso   1.000  C
  O80      1.0000 0.23439  0.76561  0.95589  Biso   1.000  O
  C418     1.0000 0.17684  0.82316  0.85146  Biso   1.000  C
  C419     1.0000 0.21557  0.78443  0.92197  Biso   1.000  C
  C420     1.0000 0.25479  0.74521  0.92513  Biso   1.000  C
  O81      1.0000 0.90106  0.09894  0.28923  Biso   1.000  O
  C421     1.0000 0.84350  0.15650  0.18480  Biso   1.000  C
  C422     1.0000 0.88224  0.11776  0.25531  Biso   1.000  C
  C423     1.0000 0.92145  0.07855  0.25847  Biso   1.000  C
  O82      1.0000 0.13545  0.56772  0.37744  Biso   1.000  O
  C424     1.0000 0.02034  0.51017  0.48187  Biso   1.000  C
  C425     1.0000 0.09781  0.54890  0.41136  Biso   1.000  C
  C426     1.0000 0.17624  0.58812  0.40820  Biso   1.000  C
  O83      1.0000 0.80212  0.90106  0.71077  Biso   1.000  O
  C427     1.0000 0.68701  0.84350  0.81520  Biso   1.000  C
  C428     1.0000 0.76448  0.88224  0.74469  Biso   1.000  C
  C429     1.0000 0.84291  0.92145  0.74153  Biso   1.000  C
  O84      1.0000 0.46878  0.23439  0.04411  Biso   1.000  O
  C430     1.0000 0.35367  0.17684  0.14854  Biso   1.000  C
  C431     1.0000 0.43114  0.21557  0.07803  Biso   1.000  C
  C432     1.0000 0.50957  0.25479  0.07487  Biso   1.000  C
  O85      1.0000 0.43228  0.86455  0.37744  Biso   1.000  O
  C433     1.0000 0.48983  0.97966  0.48187  Biso   1.000  C
  C434     1.0000 0.45109  0.90219  0.41136  Biso   1.000  C
  C435     1.0000 0.41188  0.82376  0.40820  Biso   1.000  C
  O86      1.0000 0.09894  0.19788  0.71077  Biso   1.000  O
  C436     1.0000 0.15650  0.31299  0.81520  Biso   1.000  C
  C437     1.0000 0.11776  0.23552  0.74469  Biso   1.000  C
  C438     1.0000 0.07855  0.15709  0.74153  Biso   1.000  C
  O87      1.0000 0.76561  0.53122  0.04411  Biso   1.000  O
  C439     1.0000 0.82316  0.64633  0.14854  Biso   1.000  C
  C440     1.0000 0.78443  0.56886  0.07803  Biso   1.000  C
  C441     1.0000 0.74521  0.49043  0.07487  Biso   1.000  C
  O88      1.0000 0.43228  0.56772  0.37744  Biso   1.000  O
  C442     1.0000 0.48983  0.51017  0.48187  Biso   1.000  C
  C443     1.0000 0.45110  0.54890  0.41136  Biso   1.000  C
  C444     1.0000 0.41188  0.58812  0.40820  Biso   1.000  C
  O89      1.0000 0.09894  0.90106  0.71077  Biso   1.000  O
  C445     1.0000 0.15650  0.84350  0.81520  Biso   1.000  C
  C446     1.0000 0.11776  0.88224  0.74469  Biso   1.000  C
  C447     1.0000 0.07855  0.92145  0.74153  Biso   1.000  C
  O90      1.0000 0.76561  0.23439  0.04411  Biso   1.000  O
  C448     1.0000 0.82316  0.17684  0.14854  Biso   1.000  C
  C449     1.0000 0.78443  0.21557  0.07803  Biso   1.000  C
  C450     1.0000 0.74521  0.25479  0.07487  Biso   1.000  C
