data_image0
_cell_length_a       35.3657
_cell_length_b       35.3657
_cell_length_c       20.224
_cell_angle_alpha    90
_cell_angle_beta     90
_cell_angle_gamma    120

_symmetry_space_group_name_H-M    "P 1"
_symmetry_int_tables_number       1

loop_
  _symmetry_equiv_pos_as_xyz
  'x, y, z'

loop_
  _atom_site_label
  _atom_site_occupancy
  _atom_site_fract_x
  _atom_site_fract_y
  _atom_site_fract_z
  _atom_site_thermal_displace_type
  _atom_site_B_iso_or_equiv
  _atom_site_type_symbol
  O1       1.0000 0.30285  0.11256  0.24098  Biso   1.000  O
  O2       1.0000 0.27831  0.10028  0.13578  Biso   1.000  O
  C1       1.0000 0.27838  0.08882  0.19410  Biso   1.000  C
  C2       1.0000 0.24609  0.04229  0.21240  Biso   1.000  C
  C3       1.0000 0.21895  0.01322  0.16330  Biso   1.000  C
  H1       1.0000 0.22020  0.02280  0.12010  Biso   1.000  H
  C4       1.0000 0.19021  0.96985  0.18000  Biso   1.000  C
  H2       1.0000 0.17140  0.95080  0.14810  Biso   1.000  H
  C5       1.0000 0.18920  0.95490  0.24220  Biso   1.000  C
  C6       1.0000 0.21618  0.98334  0.29120  Biso   1.000  C
  H3       1.0000 0.21520  0.97350  0.33420  Biso   1.000  H
  C7       1.0000 0.24511  0.02758  0.27420  Biso   1.000  C
  H4       1.0000 0.26370  0.04670  0.30620  Biso   1.000  H
  C8       1.0000 0.16078  0.90791  0.26160  Biso   1.000  C
  C9       1.0000 0.17908  0.88747  0.29700  Biso   1.000  C
  H5       1.0000 0.20820  0.90400  0.30940  Biso   1.000  H
  C10      1.0000 0.03850  0.91870  0.20070  Biso   1.000  C
  C11      1.0000 0.09320  0.94950  0.29890  Biso   1.000  C
  O3       1.0000 0.96952  0.44589  0.57431  Biso   1.000  O
  O4       1.0000 0.94498  0.43361  0.46911  Biso   1.000  O
  C12      1.0000 0.94505  0.42215  0.52743  Biso   1.000  C
  C13      1.0000 0.91276  0.37562  0.54573  Biso   1.000  C
  C14      1.0000 0.88562  0.34655  0.49663  Biso   1.000  C
  H6       1.0000 0.88687  0.35613  0.45343  Biso   1.000  H
  C15      1.0000 0.85688  0.30318  0.51333  Biso   1.000  C
  H7       1.0000 0.83807  0.28413  0.48143  Biso   1.000  H
  C16      1.0000 0.85587  0.28823  0.57553  Biso   1.000  C
  C17      1.0000 0.88285  0.31667  0.62453  Biso   1.000  C
  H8       1.0000 0.88187  0.30683  0.66753  Biso   1.000  H
  C18      1.0000 0.91178  0.36091  0.60753  Biso   1.000  C
  H9       1.0000 0.93037  0.38003  0.63953  Biso   1.000  H
  C19      1.0000 0.82745  0.24124  0.59493  Biso   1.000  C
  C20      1.0000 0.84575  0.22080  0.63033  Biso   1.000  C
  H10      1.0000 0.87487  0.23733  0.64273  Biso   1.000  H
  C21      1.0000 0.70517  0.25203  0.53403  Biso   1.000  C
  C22      1.0000 0.75987  0.28283  0.63223  Biso   1.000  C
  O5       1.0000 0.63618  0.77923  0.90765  Biso   1.000  O
  O6       1.0000 0.61164  0.76695  0.80245  Biso   1.000  O
  C23      1.0000 0.61171  0.75549  0.86077  Biso   1.000  C
  C24      1.0000 0.57942  0.70896  0.87907  Biso   1.000  C
  C25      1.0000 0.55228  0.67989  0.82997  Biso   1.000  C
  H11      1.0000 0.55353  0.68947  0.78677  Biso   1.000  H
  C26      1.0000 0.52354  0.63652  0.84667  Biso   1.000  C
  H12      1.0000 0.50473  0.61747  0.81477  Biso   1.000  H
  C27      1.0000 0.52253  0.62157  0.90887  Biso   1.000  C
  C28      1.0000 0.54951  0.65001  0.95787  Biso   1.000  C
  H13      1.0000 0.54853  0.64017  0.00087  Biso   1.000  H
  C29      1.0000 0.57844  0.69425  0.94087  Biso   1.000  C
  H14      1.0000 0.59703  0.71337  0.97287  Biso   1.000  H
  C30      1.0000 0.49411  0.57458  0.92827  Biso   1.000  C
  C31      1.0000 0.51241  0.55414  0.96367  Biso   1.000  C
  H15      1.0000 0.54153  0.57067  0.97607  Biso   1.000  H
  C32      1.0000 0.37183  0.58537  0.86737  Biso   1.000  C
  C33      1.0000 0.42653  0.61617  0.96557  Biso   1.000  C
  O7       1.0000 0.88744  0.19029  0.24098  Biso   1.000  O
  O8       1.0000 0.89972  0.17803  0.13578  Biso   1.000  O
  C34      1.0000 0.91118  0.18956  0.19410  Biso   1.000  C
  C35      1.0000 0.95771  0.20380  0.21240  Biso   1.000  C
  C36      1.0000 0.98678  0.20573  0.16330  Biso   1.000  C
  H16      1.0000 0.97720  0.19740  0.12010  Biso   1.000  H
  C37      1.0000 0.03015  0.22036  0.18000  Biso   1.000  C
  H17      1.0000 0.04920  0.22060  0.14810  Biso   1.000  H
  C38      1.0000 0.04510  0.23430  0.24220  Biso   1.000  C
  C39      1.0000 0.01666  0.23284  0.29120  Biso   1.000  C
  H18      1.0000 0.02650  0.24170  0.33420  Biso   1.000  H
  C40      1.0000 0.97242  0.21753  0.27420  Biso   1.000  C
  H19      1.0000 0.95330  0.21700  0.30620  Biso   1.000  H
  C41      1.0000 0.09209  0.25287  0.26160  Biso   1.000  C
  C42      1.0000 0.11253  0.29161  0.29700  Biso   1.000  C
  H20      1.0000 0.09600  0.30420  0.30940  Biso   1.000  H
  C43      1.0000 0.08130  0.11980  0.20070  Biso   1.000  C
  C44      1.0000 0.05050  0.14370  0.29890  Biso   1.000  C
  O9       1.0000 0.55411  0.52362  0.57431  Biso   1.000  O
  O10      1.0000 0.56639  0.51136  0.46911  Biso   1.000  O
  C45      1.0000 0.57785  0.52289  0.52743  Biso   1.000  C
  C46      1.0000 0.62438  0.53713  0.54573  Biso   1.000  C
  C47      1.0000 0.65345  0.53906  0.49663  Biso   1.000  C
  H21      1.0000 0.64387  0.53073  0.45343  Biso   1.000  H
  C48      1.0000 0.69682  0.55369  0.51333  Biso   1.000  C
  H22      1.0000 0.71587  0.55393  0.48143  Biso   1.000  H
  C49      1.0000 0.71177  0.56763  0.57553  Biso   1.000  C
  C50      1.0000 0.68333  0.56617  0.62453  Biso   1.000  C
  H23      1.0000 0.69317  0.57503  0.66753  Biso   1.000  H
  C51      1.0000 0.63909  0.55086  0.60753  Biso   1.000  C
  H24      1.0000 0.61997  0.55033  0.63953  Biso   1.000  H
  C52      1.0000 0.75876  0.58620  0.59493  Biso   1.000  C
  C53      1.0000 0.77920  0.62494  0.63033  Biso   1.000  C
  H25      1.0000 0.76267  0.63753  0.64273  Biso   1.000  H
  C54      1.0000 0.74797  0.45313  0.53403  Biso   1.000  C
  C55      1.0000 0.71717  0.47703  0.63223  Biso   1.000  C
  O11      1.0000 0.22077  0.85696  0.90765  Biso   1.000  O
  O12      1.0000 0.23305  0.84470  0.80245  Biso   1.000  O
  C56      1.0000 0.24451  0.85623  0.86077  Biso   1.000  C
  C57      1.0000 0.29104  0.87047  0.87907  Biso   1.000  C
  C58      1.0000 0.32011  0.87240  0.82997  Biso   1.000  C
  H26      1.0000 0.31053  0.86407  0.78677  Biso   1.000  H
  C59      1.0000 0.36348  0.88703  0.84667  Biso   1.000  C
  H27      1.0000 0.38253  0.88727  0.81477  Biso   1.000  H
  C60      1.0000 0.37843  0.90097  0.90887  Biso   1.000  C
  C61      1.0000 0.34999  0.89951  0.95787  Biso   1.000  C
  H28      1.0000 0.35983  0.90837  0.00087  Biso   1.000  H
  C62      1.0000 0.30575  0.88420  0.94087  Biso   1.000  C
  H29      1.0000 0.28663  0.88367  0.97287  Biso   1.000  H
  C63      1.0000 0.42542  0.91954  0.92827  Biso   1.000  C
  C64      1.0000 0.44586  0.95828  0.96367  Biso   1.000  C
  H30      1.0000 0.42933  0.97087  0.97607  Biso   1.000  H
  C65      1.0000 0.41463  0.78647  0.86737  Biso   1.000  C
  C66      1.0000 0.38383  0.81037  0.96557  Biso   1.000  C
  O13      1.0000 0.80971  0.69715  0.24098  Biso   1.000  O
  O14      1.0000 0.82197  0.72169  0.13578  Biso   1.000  O
  C67      1.0000 0.81044  0.72162  0.19410  Biso   1.000  C
  C68      1.0000 0.79620  0.75391  0.21240  Biso   1.000  C
  C69      1.0000 0.79427  0.78105  0.16330  Biso   1.000  C
  H31      1.0000 0.80260  0.77980  0.12010  Biso   1.000  H
  C70      1.0000 0.77964  0.80979  0.18000  Biso   1.000  C
  H32      1.0000 0.77940  0.82860  0.14810  Biso   1.000  H
  C71      1.0000 0.76570  0.81080  0.24220  Biso   1.000  C
  C72      1.0000 0.76716  0.78382  0.29120  Biso   1.000  C
  H33      1.0000 0.75830  0.78480  0.33420  Biso   1.000  H
  C73      1.0000 0.78247  0.75489  0.27420  Biso   1.000  C
  H34      1.0000 0.78300  0.73630  0.30620  Biso   1.000  H
  C74      1.0000 0.74713  0.83922  0.26160  Biso   1.000  C
  C75      1.0000 0.70839  0.82092  0.29700  Biso   1.000  C
  H35      1.0000 0.69580  0.79180  0.30940  Biso   1.000  H
  C76      1.0000 0.88020  0.96150  0.20070  Biso   1.000  C
  C77      1.0000 0.85630  0.90680  0.29890  Biso   1.000  C
  O15      1.0000 0.47638  0.03048  0.57431  Biso   1.000  O
  O16      1.0000 0.48864  0.05502  0.46911  Biso   1.000  O
  C78      1.0000 0.47711  0.05495  0.52743  Biso   1.000  C
  C79      1.0000 0.46287  0.08724  0.54573  Biso   1.000  C
  C80      1.0000 0.46094  0.11438  0.49663  Biso   1.000  C
  H36      1.0000 0.46927  0.11313  0.45343  Biso   1.000  H
  C81      1.0000 0.44631  0.14312  0.51333  Biso   1.000  C
  H37      1.0000 0.44607  0.16193  0.48143  Biso   1.000  H
  C82      1.0000 0.43237  0.14413  0.57553  Biso   1.000  C
  C83      1.0000 0.43383  0.11715  0.62453  Biso   1.000  C
  H38      1.0000 0.42497  0.11813  0.66753  Biso   1.000  H
  C84      1.0000 0.44914  0.08822  0.60753  Biso   1.000  C
  H39      1.0000 0.44967  0.06963  0.63953  Biso   1.000  H
  C85      1.0000 0.41380  0.17255  0.59493  Biso   1.000  C
  C86      1.0000 0.37506  0.15425  0.63033  Biso   1.000  C
  H40      1.0000 0.36247  0.12513  0.64273  Biso   1.000  H
  C87      1.0000 0.54687  0.29483  0.53403  Biso   1.000  C
  C88      1.0000 0.52297  0.24013  0.63223  Biso   1.000  C
  O17      1.0000 0.14304  0.36382  0.90765  Biso   1.000  O
  O18      1.0000 0.15530  0.38836  0.80245  Biso   1.000  O
  C89      1.0000 0.14377  0.38829  0.86077  Biso   1.000  C
  C90      1.0000 0.12953  0.42058  0.87907  Biso   1.000  C
  C91      1.0000 0.12760  0.44772  0.82997  Biso   1.000  C
  H41      1.0000 0.13593  0.44647  0.78677  Biso   1.000  H
  C92      1.0000 0.11297  0.47646  0.84667  Biso   1.000  C
  H42      1.0000 0.11273  0.49527  0.81477  Biso   1.000  H
  C93      1.0000 0.09903  0.47747  0.90887  Biso   1.000  C
  C94      1.0000 0.10049  0.45049  0.95787  Biso   1.000  C
  H43      1.0000 0.09163  0.45147  0.00087  Biso   1.000  H
  C95      1.0000 0.11580  0.42156  0.94087  Biso   1.000  C
  H44      1.0000 0.11633  0.40297  0.97287  Biso   1.000  H
  C96      1.0000 0.08046  0.50589  0.92827  Biso   1.000  C
  C97      1.0000 0.04172  0.48759  0.96367  Biso   1.000  C
  H45      1.0000 0.02913  0.45847  0.97607  Biso   1.000  H
  C98      1.0000 0.21353  0.62817  0.86737  Biso   1.000  C
  C99      1.0000 0.18963  0.57347  0.96557  Biso   1.000  C
  O19      1.0000 0.11256  0.30285  0.75902  Biso   1.000  O
  O20      1.0000 0.10028  0.27831  0.86422  Biso   1.000  O
  C100     1.0000 0.08882  0.27838  0.80590  Biso   1.000  C
  C101     1.0000 0.04229  0.24609  0.78760  Biso   1.000  C
  C102     1.0000 0.01322  0.21895  0.83670  Biso   1.000  C
  H46      1.0000 0.02280  0.22020  0.87990  Biso   1.000  H
  C103     1.0000 0.96985  0.19021  0.82000  Biso   1.000  C
  H47      1.0000 0.95080  0.17140  0.85190  Biso   1.000  H
  C104     1.0000 0.95490  0.18920  0.75780  Biso   1.000  C
  C105     1.0000 0.98334  0.21618  0.70880  Biso   1.000  C
  H48      1.0000 0.97350  0.21520  0.66580  Biso   1.000  H
  C106     1.0000 0.02758  0.24511  0.72580  Biso   1.000  C
  H49      1.0000 0.04670  0.26370  0.69380  Biso   1.000  H
  C107     1.0000 0.90791  0.16078  0.73840  Biso   1.000  C
  C108     1.0000 0.88747  0.17908  0.70300  Biso   1.000  C
  H50      1.0000 0.90400  0.20820  0.69060  Biso   1.000  H
  C109     1.0000 0.91870  0.03850  0.79930  Biso   1.000  C
  C110     1.0000 0.94950  0.09320  0.70110  Biso   1.000  C
  O21      1.0000 0.77923  0.63618  0.09235  Biso   1.000  O
  O22      1.0000 0.76695  0.61164  0.19755  Biso   1.000  O
  C111     1.0000 0.75549  0.61171  0.13923  Biso   1.000  C
  C112     1.0000 0.70896  0.57942  0.12093  Biso   1.000  C
  C113     1.0000 0.67989  0.55228  0.17003  Biso   1.000  C
  H51      1.0000 0.68947  0.55353  0.21323  Biso   1.000  H
  C114     1.0000 0.63652  0.52354  0.15333  Biso   1.000  C
  H52      1.0000 0.61747  0.50473  0.18523  Biso   1.000  H
  C115     1.0000 0.62157  0.52253  0.09113  Biso   1.000  C
  C116     1.0000 0.65001  0.54951  0.04213  Biso   1.000  C
  H53      1.0000 0.64017  0.54853  0.99913  Biso   1.000  H
  C117     1.0000 0.69425  0.57844  0.05913  Biso   1.000  C
  H54      1.0000 0.71337  0.59703  0.02713  Biso   1.000  H
  C118     1.0000 0.57458  0.49411  0.07173  Biso   1.000  C
  C119     1.0000 0.55414  0.51241  0.03633  Biso   1.000  C
  H55      1.0000 0.57067  0.54153  0.02393  Biso   1.000  H
  C120     1.0000 0.58537  0.37183  0.13263  Biso   1.000  C
  C121     1.0000 0.61617  0.42653  0.03443  Biso   1.000  C
  O23      1.0000 0.44589  0.96952  0.42569  Biso   1.000  O
  O24      1.0000 0.43361  0.94498  0.53089  Biso   1.000  O
  C122     1.0000 0.42215  0.94505  0.47257  Biso   1.000  C
  C123     1.0000 0.37562  0.91276  0.45427  Biso   1.000  C
  C124     1.0000 0.34655  0.88562  0.50337  Biso   1.000  C
  H56      1.0000 0.35613  0.88687  0.54657  Biso   1.000  H
  C125     1.0000 0.30318  0.85688  0.48667  Biso   1.000  C
  H57      1.0000 0.28413  0.83807  0.51857  Biso   1.000  H
  C126     1.0000 0.28823  0.85587  0.42447  Biso   1.000  C
  C127     1.0000 0.31667  0.88285  0.37547  Biso   1.000  C
  H58      1.0000 0.30683  0.88187  0.33247  Biso   1.000  H
  C128     1.0000 0.36091  0.91178  0.39247  Biso   1.000  C
  H59      1.0000 0.38003  0.93037  0.36047  Biso   1.000  H
  C129     1.0000 0.24124  0.82745  0.40507  Biso   1.000  C
  C130     1.0000 0.22080  0.84575  0.36967  Biso   1.000  C
  H60      1.0000 0.23733  0.87487  0.35727  Biso   1.000  H
  C131     1.0000 0.25203  0.70517  0.46597  Biso   1.000  C
  C132     1.0000 0.28283  0.75987  0.36777  Biso   1.000  C
  O25      1.0000 0.19029  0.88744  0.75902  Biso   1.000  O
  O26      1.0000 0.17803  0.89972  0.86422  Biso   1.000  O
  C133     1.0000 0.18956  0.91118  0.80590  Biso   1.000  C
  C134     1.0000 0.20380  0.95771  0.78760  Biso   1.000  C
  C135     1.0000 0.20573  0.98678  0.83670  Biso   1.000  C
  H61      1.0000 0.19740  0.97720  0.87990  Biso   1.000  H
  C136     1.0000 0.22036  0.03015  0.82000  Biso   1.000  C
  H62      1.0000 0.22060  0.04920  0.85190  Biso   1.000  H
  C137     1.0000 0.23430  0.04510  0.75780  Biso   1.000  C
  C138     1.0000 0.23284  0.01666  0.70880  Biso   1.000  C
  H63      1.0000 0.24170  0.02650  0.66580  Biso   1.000  H
  C139     1.0000 0.21753  0.97242  0.72580  Biso   1.000  C
  H64      1.0000 0.21700  0.95330  0.69380  Biso   1.000  H
  C140     1.0000 0.25287  0.09209  0.73840  Biso   1.000  C
  C141     1.0000 0.29161  0.11253  0.70300  Biso   1.000  C
  H65      1.0000 0.30420  0.09600  0.69060  Biso   1.000  H
  C142     1.0000 0.11980  0.08130  0.79930  Biso   1.000  C
  C143     1.0000 0.14370  0.05050  0.70110  Biso   1.000  C
  O27      1.0000 0.85696  0.22077  0.09235  Biso   1.000  O
  O28      1.0000 0.84470  0.23305  0.19755  Biso   1.000  O
  C144     1.0000 0.85623  0.24451  0.13923  Biso   1.000  C
  C145     1.0000 0.87047  0.29104  0.12093  Biso   1.000  C
  C146     1.0000 0.87240  0.32011  0.17003  Biso   1.000  C
  H66      1.0000 0.86407  0.31053  0.21323  Biso   1.000  H
  C147     1.0000 0.88703  0.36348  0.15333  Biso   1.000  C
  H67      1.0000 0.88727  0.38253  0.18523  Biso   1.000  H
  C148     1.0000 0.90097  0.37843  0.09113  Biso   1.000  C
  C149     1.0000 0.89951  0.34999  0.04213  Biso   1.000  C
  H68      1.0000 0.90837  0.35983  0.99913  Biso   1.000  H
  C150     1.0000 0.88420  0.30575  0.05913  Biso   1.000  C
  H69      1.0000 0.88367  0.28663  0.02713  Biso   1.000  H
  C151     1.0000 0.91954  0.42542  0.07173  Biso   1.000  C
  C152     1.0000 0.95828  0.44586  0.03633  Biso   1.000  C
  H70      1.0000 0.97087  0.42933  0.02393  Biso   1.000  H
  C153     1.0000 0.78647  0.41463  0.13263  Biso   1.000  C
  C154     1.0000 0.81037  0.38383  0.03443  Biso   1.000  C
  O29      1.0000 0.52362  0.55411  0.42569  Biso   1.000  O
  O30      1.0000 0.51136  0.56639  0.53089  Biso   1.000  O
  C155     1.0000 0.52289  0.57785  0.47257  Biso   1.000  C
  C156     1.0000 0.53713  0.62438  0.45427  Biso   1.000  C
  C157     1.0000 0.53906  0.65345  0.50337  Biso   1.000  C
  H71      1.0000 0.53073  0.64387  0.54657  Biso   1.000  H
  C158     1.0000 0.55369  0.69682  0.48667  Biso   1.000  C
  H72      1.0000 0.55393  0.71587  0.51857  Biso   1.000  H
  C159     1.0000 0.56763  0.71177  0.42447  Biso   1.000  C
  C160     1.0000 0.56617  0.68333  0.37547  Biso   1.000  C
  H73      1.0000 0.57503  0.69317  0.33247  Biso   1.000  H
  C161     1.0000 0.55086  0.63909  0.39247  Biso   1.000  C
  H74      1.0000 0.55033  0.61997  0.36047  Biso   1.000  H
  C162     1.0000 0.58620  0.75876  0.40507  Biso   1.000  C
  C163     1.0000 0.62494  0.77920  0.36967  Biso   1.000  C
  H75      1.0000 0.63753  0.76267  0.35727  Biso   1.000  H
  C164     1.0000 0.45313  0.74797  0.46597  Biso   1.000  C
  C165     1.0000 0.47703  0.71717  0.36777  Biso   1.000  C
  O31      1.0000 0.69715  0.80971  0.75902  Biso   1.000  O
  O32      1.0000 0.72169  0.82197  0.86422  Biso   1.000  O
  C166     1.0000 0.72162  0.81044  0.80590  Biso   1.000  C
  C167     1.0000 0.75391  0.79620  0.78760  Biso   1.000  C
  C168     1.0000 0.78105  0.79427  0.83670  Biso   1.000  C
  H76      1.0000 0.77980  0.80260  0.87990  Biso   1.000  H
  C169     1.0000 0.80979  0.77964  0.82000  Biso   1.000  C
  H77      1.0000 0.82860  0.77940  0.85190  Biso   1.000  H
  C170     1.0000 0.81080  0.76570  0.75780  Biso   1.000  C
  C171     1.0000 0.78382  0.76716  0.70880  Biso   1.000  C
  H78      1.0000 0.78480  0.75830  0.66580  Biso   1.000  H
  C172     1.0000 0.75489  0.78247  0.72580  Biso   1.000  C
  H79      1.0000 0.73630  0.78300  0.69380  Biso   1.000  H
  C173     1.0000 0.83922  0.74713  0.73840  Biso   1.000  C
  C174     1.0000 0.82092  0.70839  0.70300  Biso   1.000  C
  H80      1.0000 0.79180  0.69580  0.69060  Biso   1.000  H
  C175     1.0000 0.96150  0.88020  0.79930  Biso   1.000  C
  C176     1.0000 0.90680  0.85630  0.70110  Biso   1.000  C
  O33      1.0000 0.36382  0.14304  0.09235  Biso   1.000  O
  O34      1.0000 0.38836  0.15530  0.19755  Biso   1.000  O
  C177     1.0000 0.38829  0.14377  0.13923  Biso   1.000  C
  C178     1.0000 0.42058  0.12953  0.12093  Biso   1.000  C
  C179     1.0000 0.44772  0.12760  0.17003  Biso   1.000  C
  H81      1.0000 0.44647  0.13593  0.21323  Biso   1.000  H
  C180     1.0000 0.47646  0.11297  0.15333  Biso   1.000  C
  H82      1.0000 0.49527  0.11273  0.18523  Biso   1.000  H
  C181     1.0000 0.47747  0.09903  0.09113  Biso   1.000  C
  C182     1.0000 0.45049  0.10049  0.04213  Biso   1.000  C
  H83      1.0000 0.45147  0.09163  0.99913  Biso   1.000  H
  C183     1.0000 0.42156  0.11580  0.05913  Biso   1.000  C
  H84      1.0000 0.40297  0.11633  0.02713  Biso   1.000  H
  C184     1.0000 0.50589  0.08046  0.07173  Biso   1.000  C
  C185     1.0000 0.48759  0.04172  0.03633  Biso   1.000  C
  H85      1.0000 0.45847  0.02913  0.02393  Biso   1.000  H
  C186     1.0000 0.62817  0.21353  0.13263  Biso   1.000  C
  C187     1.0000 0.57347  0.18963  0.03443  Biso   1.000  C
  O35      1.0000 0.03048  0.47638  0.42569  Biso   1.000  O
  O36      1.0000 0.05502  0.48864  0.53089  Biso   1.000  O
  C188     1.0000 0.05495  0.47711  0.47257  Biso   1.000  C
  C189     1.0000 0.08724  0.46287  0.45427  Biso   1.000  C
  C190     1.0000 0.11438  0.46094  0.50337  Biso   1.000  C
  H86      1.0000 0.11313  0.46927  0.54657  Biso   1.000  H
  C191     1.0000 0.14312  0.44631  0.48667  Biso   1.000  C
  H87      1.0000 0.16193  0.44607  0.51857  Biso   1.000  H
  C192     1.0000 0.14413  0.43237  0.42447  Biso   1.000  C
  C193     1.0000 0.11715  0.43383  0.37547  Biso   1.000  C
  H88      1.0000 0.11813  0.42497  0.33247  Biso   1.000  H
  C194     1.0000 0.08822  0.44914  0.39247  Biso   1.000  C
  H89      1.0000 0.06963  0.44967  0.36047  Biso   1.000  H
  C195     1.0000 0.17255  0.41380  0.40507  Biso   1.000  C
  C196     1.0000 0.15425  0.37506  0.36967  Biso   1.000  C
  H90      1.0000 0.12513  0.36247  0.35727  Biso   1.000  H
  C197     1.0000 0.29483  0.54687  0.46597  Biso   1.000  C
  C198     1.0000 0.24013  0.52297  0.36777  Biso   1.000  C
  O37      1.0000 0.69715  0.88744  0.75902  Biso   1.000  O
  O38      1.0000 0.72169  0.89972  0.86422  Biso   1.000  O
  C199     1.0000 0.72162  0.91118  0.80590  Biso   1.000  C
  C200     1.0000 0.75391  0.95771  0.78760  Biso   1.000  C
  C201     1.0000 0.78105  0.98678  0.83670  Biso   1.000  C
  H91      1.0000 0.77980  0.97720  0.87990  Biso   1.000  H
  C202     1.0000 0.80979  0.03015  0.82000  Biso   1.000  C
  H92      1.0000 0.82860  0.04920  0.85190  Biso   1.000  H
  C203     1.0000 0.81080  0.04510  0.75780  Biso   1.000  C
  C204     1.0000 0.78382  0.01666  0.70880  Biso   1.000  C
  H93      1.0000 0.78480  0.02650  0.66580  Biso   1.000  H
  C205     1.0000 0.75489  0.97242  0.72580  Biso   1.000  C
  H94      1.0000 0.73630  0.95330  0.69380  Biso   1.000  H
  C206     1.0000 0.83922  0.09209  0.73840  Biso   1.000  C
  C207     1.0000 0.82092  0.11253  0.70300  Biso   1.000  C
  H95      1.0000 0.79180  0.09600  0.69060  Biso   1.000  H
  C208     1.0000 0.96150  0.08130  0.79930  Biso   1.000  C
  C209     1.0000 0.90680  0.05050  0.70110  Biso   1.000  C
  O39      1.0000 0.36382  0.22077  0.09235  Biso   1.000  O
  O40      1.0000 0.38836  0.23305  0.19755  Biso   1.000  O
  C210     1.0000 0.38829  0.24451  0.13923  Biso   1.000  C
  C211     1.0000 0.42058  0.29104  0.12093  Biso   1.000  C
  C212     1.0000 0.44772  0.32011  0.17003  Biso   1.000  C
  H96      1.0000 0.44647  0.31053  0.21323  Biso   1.000  H
  C213     1.0000 0.47646  0.36348  0.15333  Biso   1.000  C
  H97      1.0000 0.49527  0.38253  0.18523  Biso   1.000  H
  C214     1.0000 0.47747  0.37843  0.09113  Biso   1.000  C
  C215     1.0000 0.45049  0.34999  0.04213  Biso   1.000  C
  H98      1.0000 0.45147  0.35983  0.99913  Biso   1.000  H
  C216     1.0000 0.42156  0.30575  0.05913  Biso   1.000  C
  H99      1.0000 0.40297  0.28663  0.02713  Biso   1.000  H
  C217     1.0000 0.50589  0.42542  0.07173  Biso   1.000  C
  C218     1.0000 0.48759  0.44586  0.03633  Biso   1.000  C
  H100     1.0000 0.45847  0.42933  0.02393  Biso   1.000  H
  C219     1.0000 0.62817  0.41463  0.13263  Biso   1.000  C
  C220     1.0000 0.57347  0.38383  0.03443  Biso   1.000  C
  O41      1.0000 0.03048  0.55411  0.42569  Biso   1.000  O
  O42      1.0000 0.05502  0.56639  0.53089  Biso   1.000  O
  C221     1.0000 0.05495  0.57785  0.47257  Biso   1.000  C
  C222     1.0000 0.08724  0.62438  0.45427  Biso   1.000  C
  C223     1.0000 0.11438  0.65345  0.50337  Biso   1.000  C
  H101     1.0000 0.11313  0.64387  0.54657  Biso   1.000  H
  C224     1.0000 0.14312  0.69682  0.48667  Biso   1.000  C
  H102     1.0000 0.16193  0.71587  0.51857  Biso   1.000  H
  C225     1.0000 0.14413  0.71177  0.42447  Biso   1.000  C
  C226     1.0000 0.11715  0.68333  0.37547  Biso   1.000  C
  H103     1.0000 0.11813  0.69317  0.33247  Biso   1.000  H
  C227     1.0000 0.08822  0.63909  0.39247  Biso   1.000  C
  H104     1.0000 0.06963  0.61997  0.36047  Biso   1.000  H
  C228     1.0000 0.17255  0.75876  0.40507  Biso   1.000  C
  C229     1.0000 0.15425  0.77920  0.36967  Biso   1.000  C
  H105     1.0000 0.12513  0.76267  0.35727  Biso   1.000  H
  C230     1.0000 0.29483  0.74797  0.46597  Biso   1.000  C
  C231     1.0000 0.24013  0.71717  0.36777  Biso   1.000  C
  O43      1.0000 0.11256  0.80971  0.75902  Biso   1.000  O
  O44      1.0000 0.10028  0.82197  0.86422  Biso   1.000  O
  C232     1.0000 0.08882  0.81044  0.80590  Biso   1.000  C
  C233     1.0000 0.04229  0.79620  0.78760  Biso   1.000  C
  C234     1.0000 0.01322  0.79427  0.83670  Biso   1.000  C
  H106     1.0000 0.02280  0.80260  0.87990  Biso   1.000  H
  C235     1.0000 0.96985  0.77964  0.82000  Biso   1.000  C
  H107     1.0000 0.95080  0.77940  0.85190  Biso   1.000  H
  C236     1.0000 0.95490  0.76570  0.75780  Biso   1.000  C
  C237     1.0000 0.98334  0.76716  0.70880  Biso   1.000  C
  H108     1.0000 0.97350  0.75830  0.66580  Biso   1.000  H
  C238     1.0000 0.02758  0.78247  0.72580  Biso   1.000  C
  H109     1.0000 0.04670  0.78300  0.69380  Biso   1.000  H
  C239     1.0000 0.90791  0.74713  0.73840  Biso   1.000  C
  C240     1.0000 0.88747  0.70839  0.70300  Biso   1.000  C
  H110     1.0000 0.90400  0.69580  0.69060  Biso   1.000  H
  C241     1.0000 0.91870  0.88020  0.79930  Biso   1.000  C
  C242     1.0000 0.94950  0.85630  0.70110  Biso   1.000  C
  O45      1.0000 0.77923  0.14304  0.09235  Biso   1.000  O
  O46      1.0000 0.76695  0.15530  0.19755  Biso   1.000  O
  C243     1.0000 0.75549  0.14377  0.13923  Biso   1.000  C
  C244     1.0000 0.70896  0.12953  0.12093  Biso   1.000  C
  C245     1.0000 0.67989  0.12760  0.17003  Biso   1.000  C
  H111     1.0000 0.68947  0.13593  0.21323  Biso   1.000  H
  C246     1.0000 0.63652  0.11297  0.15333  Biso   1.000  C
  H112     1.0000 0.61747  0.11273  0.18523  Biso   1.000  H
  C247     1.0000 0.62157  0.09903  0.09113  Biso   1.000  C
  C248     1.0000 0.65001  0.10049  0.04213  Biso   1.000  C
  H113     1.0000 0.64017  0.09163  0.99913  Biso   1.000  H
  C249     1.0000 0.69425  0.11580  0.05913  Biso   1.000  C
  H114     1.0000 0.71337  0.11633  0.02713  Biso   1.000  H
  C250     1.0000 0.57458  0.08046  0.07173  Biso   1.000  C
  C251     1.0000 0.55414  0.04172  0.03633  Biso   1.000  C
  H115     1.0000 0.57067  0.02913  0.02393  Biso   1.000  H
  C252     1.0000 0.58537  0.21353  0.13263  Biso   1.000  C
  C253     1.0000 0.61617  0.18963  0.03443  Biso   1.000  C
  O47      1.0000 0.44589  0.47638  0.42569  Biso   1.000  O
  O48      1.0000 0.43361  0.48864  0.53089  Biso   1.000  O
  C254     1.0000 0.42215  0.47711  0.47257  Biso   1.000  C
  C255     1.0000 0.37562  0.46287  0.45427  Biso   1.000  C
  C256     1.0000 0.34655  0.46094  0.50337  Biso   1.000  C
  H116     1.0000 0.35613  0.46927  0.54657  Biso   1.000  H
  C257     1.0000 0.30318  0.44631  0.48667  Biso   1.000  C
  H117     1.0000 0.28413  0.44607  0.51857  Biso   1.000  H
  C258     1.0000 0.28823  0.43237  0.42447  Biso   1.000  C
  C259     1.0000 0.31667  0.43383  0.37547  Biso   1.000  C
  H118     1.0000 0.30683  0.42497  0.33247  Biso   1.000  H
  C260     1.0000 0.36091  0.44914  0.39247  Biso   1.000  C
  H119     1.0000 0.38003  0.44967  0.36047  Biso   1.000  H
  C261     1.0000 0.24124  0.41380  0.40507  Biso   1.000  C
  C262     1.0000 0.22080  0.37506  0.36967  Biso   1.000  C
  H120     1.0000 0.23733  0.36247  0.35727  Biso   1.000  H
  C263     1.0000 0.25203  0.54687  0.46597  Biso   1.000  C
  C264     1.0000 0.28283  0.52297  0.36777  Biso   1.000  C
  O49      1.0000 0.19029  0.30285  0.75902  Biso   1.000  O
  O50      1.0000 0.17803  0.27831  0.86422  Biso   1.000  O
  C265     1.0000 0.18956  0.27838  0.80590  Biso   1.000  C
  C266     1.0000 0.20380  0.24609  0.78760  Biso   1.000  C
  C267     1.0000 0.20573  0.21895  0.83670  Biso   1.000  C
  H121     1.0000 0.19740  0.22020  0.87990  Biso   1.000  H
  C268     1.0000 0.22036  0.19021  0.82000  Biso   1.000  C
  H122     1.0000 0.22060  0.17140  0.85190  Biso   1.000  H
  C269     1.0000 0.23430  0.18920  0.75780  Biso   1.000  C
  C270     1.0000 0.23284  0.21618  0.70880  Biso   1.000  C
  H123     1.0000 0.24170  0.21520  0.66580  Biso   1.000  H
  C271     1.0000 0.21753  0.24511  0.72580  Biso   1.000  C
  H124     1.0000 0.21700  0.26370  0.69380  Biso   1.000  H
  C272     1.0000 0.25287  0.16078  0.73840  Biso   1.000  C
  C273     1.0000 0.29161  0.17908  0.70300  Biso   1.000  C
  H125     1.0000 0.30420  0.20820  0.69060  Biso   1.000  H
  C274     1.0000 0.11980  0.03850  0.79930  Biso   1.000  C
  C275     1.0000 0.14370  0.09320  0.70110  Biso   1.000  C
  O51      1.0000 0.85696  0.63618  0.09235  Biso   1.000  O
  O52      1.0000 0.84470  0.61164  0.19755  Biso   1.000  O
  C276     1.0000 0.85623  0.61171  0.13923  Biso   1.000  C
  C277     1.0000 0.87047  0.57942  0.12093  Biso   1.000  C
  C278     1.0000 0.87240  0.55228  0.17003  Biso   1.000  C
  H126     1.0000 0.86407  0.55353  0.21323  Biso   1.000  H
  C279     1.0000 0.88703  0.52354  0.15333  Biso   1.000  C
  H127     1.0000 0.88727  0.50473  0.18523  Biso   1.000  H
  C280     1.0000 0.90097  0.52253  0.09113  Biso   1.000  C
  C281     1.0000 0.89951  0.54951  0.04213  Biso   1.000  C
  H128     1.0000 0.90837  0.54853  0.99913  Biso   1.000  H
  C282     1.0000 0.88420  0.57844  0.05913  Biso   1.000  C
  H129     1.0000 0.88367  0.59703  0.02713  Biso   1.000  H
  C283     1.0000 0.91954  0.49411  0.07173  Biso   1.000  C
  C284     1.0000 0.95828  0.51241  0.03633  Biso   1.000  C
  H130     1.0000 0.97087  0.54153  0.02393  Biso   1.000  H
  C285     1.0000 0.78647  0.37183  0.13263  Biso   1.000  C
  C286     1.0000 0.81037  0.42653  0.03443  Biso   1.000  C
  O53      1.0000 0.52362  0.96952  0.42569  Biso   1.000  O
  O54      1.0000 0.51136  0.94498  0.53089  Biso   1.000  O
  C287     1.0000 0.52289  0.94505  0.47257  Biso   1.000  C
  C288     1.0000 0.53713  0.91276  0.45427  Biso   1.000  C
  C289     1.0000 0.53906  0.88562  0.50337  Biso   1.000  C
  H131     1.0000 0.53073  0.88687  0.54657  Biso   1.000  H
  C290     1.0000 0.55369  0.85688  0.48667  Biso   1.000  C
  H132     1.0000 0.55393  0.83807  0.51857  Biso   1.000  H
  C291     1.0000 0.56763  0.85587  0.42447  Biso   1.000  C
  C292     1.0000 0.56617  0.88285  0.37547  Biso   1.000  C
  H133     1.0000 0.57503  0.88187  0.33247  Biso   1.000  H
  C293     1.0000 0.55086  0.91178  0.39247  Biso   1.000  C
  H134     1.0000 0.55033  0.93037  0.36047  Biso   1.000  H
  C294     1.0000 0.58620  0.82745  0.40507  Biso   1.000  C
  C295     1.0000 0.62494  0.84575  0.36967  Biso   1.000  C
  H135     1.0000 0.63753  0.87487  0.35727  Biso   1.000  H
  C296     1.0000 0.45313  0.70517  0.46597  Biso   1.000  C
  C297     1.0000 0.47703  0.75987  0.36777  Biso   1.000  C
  O55      1.0000 0.88744  0.69715  0.24098  Biso   1.000  O
  O56      1.0000 0.89972  0.72169  0.13578  Biso   1.000  O
  C298     1.0000 0.91118  0.72162  0.19410  Biso   1.000  C
  C299     1.0000 0.95771  0.75391  0.21240  Biso   1.000  C
  C300     1.0000 0.98678  0.78105  0.16330  Biso   1.000  C
  H136     1.0000 0.97720  0.77980  0.12010  Biso   1.000  H
  C301     1.0000 0.03015  0.80979  0.18000  Biso   1.000  C
  H137     1.0000 0.04920  0.82860  0.14810  Biso   1.000  H
  C302     1.0000 0.04510  0.81080  0.24220  Biso   1.000  C
  C303     1.0000 0.01666  0.78382  0.29120  Biso   1.000  C
  H138     1.0000 0.02650  0.78480  0.33420  Biso   1.000  H
  C304     1.0000 0.97242  0.75489  0.27420  Biso   1.000  C
  H139     1.0000 0.95330  0.73630  0.30620  Biso   1.000  H
  C305     1.0000 0.09209  0.83922  0.26160  Biso   1.000  C
  C306     1.0000 0.11253  0.82092  0.29700  Biso   1.000  C
  H140     1.0000 0.09600  0.79180  0.30940  Biso   1.000  H
  C307     1.0000 0.08130  0.96150  0.20070  Biso   1.000  C
  C308     1.0000 0.05050  0.90680  0.29890  Biso   1.000  C
  O57      1.0000 0.55411  0.03048  0.57431  Biso   1.000  O
  O58      1.0000 0.56639  0.05502  0.46911  Biso   1.000  O
  C309     1.0000 0.57785  0.05495  0.52743  Biso   1.000  C
  C310     1.0000 0.62438  0.08724  0.54573  Biso   1.000  C
  C311     1.0000 0.65345  0.11438  0.49663  Biso   1.000  C
  H141     1.0000 0.64387  0.11313  0.45343  Biso   1.000  H
  C312     1.0000 0.69682  0.14312  0.51333  Biso   1.000  C
  H142     1.0000 0.71587  0.16193  0.48143  Biso   1.000  H
  C313     1.0000 0.71177  0.14413  0.57553  Biso   1.000  C
  C314     1.0000 0.68333  0.11715  0.62453  Biso   1.000  C
  H143     1.0000 0.69317  0.11813  0.66753  Biso   1.000  H
  C315     1.0000 0.63909  0.08822  0.60753  Biso   1.000  C
  H144     1.0000 0.61997  0.06963  0.63953  Biso   1.000  H
  C316     1.0000 0.75876  0.17255  0.59493  Biso   1.000  C
  C317     1.0000 0.77920  0.15425  0.63033  Biso   1.000  C
  H145     1.0000 0.76267  0.12513  0.64273  Biso   1.000  H
  C318     1.0000 0.74797  0.29483  0.53403  Biso   1.000  C
  C319     1.0000 0.71717  0.24013  0.63223  Biso   1.000  C
  O59      1.0000 0.22077  0.36382  0.90765  Biso   1.000  O
  O60      1.0000 0.23305  0.38836  0.80245  Biso   1.000  O
  C320     1.0000 0.24451  0.38829  0.86077  Biso   1.000  C
  C321     1.0000 0.29104  0.42058  0.87907  Biso   1.000  C
  C322     1.0000 0.32011  0.44772  0.82997  Biso   1.000  C
  H146     1.0000 0.31053  0.44647  0.78677  Biso   1.000  H
  C323     1.0000 0.36348  0.47646  0.84667  Biso   1.000  C
  H147     1.0000 0.38253  0.49527  0.81477  Biso   1.000  H
  C324     1.0000 0.37843  0.47747  0.90887  Biso   1.000  C
  C325     1.0000 0.34999  0.45049  0.95787  Biso   1.000  C
  H148     1.0000 0.35983  0.45147  0.00087  Biso   1.000  H
  C326     1.0000 0.30575  0.42156  0.94087  Biso   1.000  C
  H149     1.0000 0.28663  0.40297  0.97287  Biso   1.000  H
  C327     1.0000 0.42542  0.50589  0.92827  Biso   1.000  C
  C328     1.0000 0.44586  0.48759  0.96367  Biso   1.000  C
  H150     1.0000 0.42933  0.45847  0.97607  Biso   1.000  H
  C329     1.0000 0.41463  0.62817  0.86737  Biso   1.000  C
  C330     1.0000 0.38383  0.57347  0.96557  Biso   1.000  C
  O61      1.0000 0.80971  0.11256  0.24098  Biso   1.000  O
  O62      1.0000 0.82197  0.10028  0.13578  Biso   1.000  O
  C331     1.0000 0.81044  0.08882  0.19410  Biso   1.000  C
  C332     1.0000 0.79620  0.04229  0.21240  Biso   1.000  C
  C333     1.0000 0.79427  0.01322  0.16330  Biso   1.000  C
  H151     1.0000 0.80260  0.02280  0.12010  Biso   1.000  H
  C334     1.0000 0.77964  0.96985  0.18000  Biso   1.000  C
  H152     1.0000 0.77940  0.95080  0.14810  Biso   1.000  H
  C335     1.0000 0.76570  0.95490  0.24220  Biso   1.000  C
  C336     1.0000 0.76716  0.98334  0.29120  Biso   1.000  C
  H153     1.0000 0.75830  0.97350  0.33420  Biso   1.000  H
  C337     1.0000 0.78247  0.02758  0.27420  Biso   1.000  C
  H154     1.0000 0.78300  0.04670  0.30620  Biso   1.000  H
  C338     1.0000 0.74713  0.90791  0.26160  Biso   1.000  C
  C339     1.0000 0.70839  0.88747  0.29700  Biso   1.000  C
  H155     1.0000 0.69580  0.90400  0.30940  Biso   1.000  H
  C340     1.0000 0.88020  0.91870  0.20070  Biso   1.000  C
  C341     1.0000 0.85630  0.94950  0.29890  Biso   1.000  C
  O63      1.0000 0.47638  0.44589  0.57431  Biso   1.000  O
  O64      1.0000 0.48864  0.43361  0.46911  Biso   1.000  O
  C342     1.0000 0.47711  0.42215  0.52743  Biso   1.000  C
  C343     1.0000 0.46287  0.37562  0.54573  Biso   1.000  C
  C344     1.0000 0.46094  0.34655  0.49663  Biso   1.000  C
  H156     1.0000 0.46927  0.35613  0.45343  Biso   1.000  H
  C345     1.0000 0.44631  0.30318  0.51333  Biso   1.000  C
  H157     1.0000 0.44607  0.28413  0.48143  Biso   1.000  H
  C346     1.0000 0.43237  0.28823  0.57553  Biso   1.000  C
  C347     1.0000 0.43383  0.31667  0.62453  Biso   1.000  C
  H158     1.0000 0.42497  0.30683  0.66753  Biso   1.000  H
  C348     1.0000 0.44914  0.36091  0.60753  Biso   1.000  C
  H159     1.0000 0.44967  0.38003  0.63953  Biso   1.000  H
  C349     1.0000 0.41380  0.24124  0.59493  Biso   1.000  C
  C350     1.0000 0.37506  0.22080  0.63033  Biso   1.000  C
  H160     1.0000 0.36247  0.23733  0.64273  Biso   1.000  H
  C351     1.0000 0.54687  0.25203  0.53403  Biso   1.000  C
  C352     1.0000 0.52297  0.28283  0.63223  Biso   1.000  C
  O65      1.0000 0.14304  0.77923  0.90765  Biso   1.000  O
  O66      1.0000 0.15530  0.76695  0.80245  Biso   1.000  O
  C353     1.0000 0.14377  0.75549  0.86077  Biso   1.000  C
  C354     1.0000 0.12953  0.70896  0.87907  Biso   1.000  C
  C355     1.0000 0.12760  0.67989  0.82997  Biso   1.000  C
  H161     1.0000 0.13593  0.68947  0.78677  Biso   1.000  H
  C356     1.0000 0.11297  0.63652  0.84667  Biso   1.000  C
  H162     1.0000 0.11273  0.61747  0.81477  Biso   1.000  H
  C357     1.0000 0.09903  0.62157  0.90887  Biso   1.000  C
  C358     1.0000 0.10049  0.65001  0.95787  Biso   1.000  C
  H163     1.0000 0.09163  0.64017  0.00087  Biso   1.000  H
  C359     1.0000 0.11580  0.69425  0.94087  Biso   1.000  C
  H164     1.0000 0.11633  0.71337  0.97287  Biso   1.000  H
  C360     1.0000 0.08046  0.57458  0.92827  Biso   1.000  C
  C361     1.0000 0.04172  0.55414  0.96367  Biso   1.000  C
  H165     1.0000 0.02913  0.57067  0.97607  Biso   1.000  H
  C362     1.0000 0.21353  0.58537  0.86737  Biso   1.000  C
  C363     1.0000 0.18963  0.61617  0.96557  Biso   1.000  C
  O67      1.0000 0.30285  0.19029  0.24098  Biso   1.000  O
  O68      1.0000 0.27831  0.17803  0.13578  Biso   1.000  O
  C364     1.0000 0.27838  0.18956  0.19410  Biso   1.000  C
  C365     1.0000 0.24609  0.20380  0.21240  Biso   1.000  C
  C366     1.0000 0.21895  0.20573  0.16330  Biso   1.000  C
  H166     1.0000 0.22020  0.19740  0.12010  Biso   1.000  H
  C367     1.0000 0.19021  0.22036  0.18000  Biso   1.000  C
  H167     1.0000 0.17140  0.22060  0.14810  Biso   1.000  H
  C368     1.0000 0.18920  0.23430  0.24220  Biso   1.000  C
  C369     1.0000 0.21618  0.23284  0.29120  Biso   1.000  C
  H168     1.0000 0.21520  0.24170  0.33420  Biso   1.000  H
  C370     1.0000 0.24511  0.21753  0.27420  Biso   1.000  C
  H169     1.0000 0.26370  0.21700  0.30620  Biso   1.000  H
  C371     1.0000 0.16078  0.25287  0.26160  Biso   1.000  C
  C372     1.0000 0.17908  0.29161  0.29700  Biso   1.000  C
  H170     1.0000 0.20820  0.30420  0.30940  Biso   1.000  H
  C373     1.0000 0.03850  0.11980  0.20070  Biso   1.000  C
  C374     1.0000 0.09320  0.14370  0.29890  Biso   1.000  C
  O69      1.0000 0.96952  0.52362  0.57431  Biso   1.000  O
  O70      1.0000 0.94498  0.51136  0.46911  Biso   1.000  O
  C375     1.0000 0.94505  0.52289  0.52743  Biso   1.000  C
  C376     1.0000 0.91276  0.53713  0.54573  Biso   1.000  C
  C377     1.0000 0.88562  0.53906  0.49663  Biso   1.000  C
  H171     1.0000 0.88687  0.53073  0.45343  Biso   1.000  H
  C378     1.0000 0.85688  0.55369  0.51333  Biso   1.000  C
  H172     1.0000 0.83807  0.55393  0.48143  Biso   1.000  H
  C379     1.0000 0.85587  0.56763  0.57553  Biso   1.000  C
  C380     1.0000 0.88285  0.56617  0.62453  Biso   1.000  C
  H173     1.0000 0.88187  0.57503  0.66753  Biso   1.000  H
  C381     1.0000 0.91178  0.55086  0.60753  Biso   1.000  C
  H174     1.0000 0.93037  0.55033  0.63953  Biso   1.000  H
  C382     1.0000 0.82745  0.58620  0.59493  Biso   1.000  C
  C383     1.0000 0.84575  0.62494  0.63033  Biso   1.000  C
  H175     1.0000 0.87487  0.63753  0.64273  Biso   1.000  H
  C384     1.0000 0.70517  0.45313  0.53403  Biso   1.000  C
  C385     1.0000 0.75987  0.47703  0.63223  Biso   1.000  C
  O71      1.0000 0.63618  0.85696  0.90765  Biso   1.000  O
  O72      1.0000 0.61164  0.84470  0.80245  Biso   1.000  O
  C386     1.0000 0.61171  0.85623  0.86077  Biso   1.000  C
  C387     1.0000 0.57942  0.87047  0.87907  Biso   1.000  C
  C388     1.0000 0.55228  0.87240  0.82997  Biso   1.000  C
  H176     1.0000 0.55353  0.86407  0.78677  Biso   1.000  H
  C389     1.0000 0.52354  0.88703  0.84667  Biso   1.000  C
  H177     1.0000 0.50473  0.88727  0.81477  Biso   1.000  H
  C390     1.0000 0.52253  0.90097  0.90887  Biso   1.000  C
  C391     1.0000 0.54951  0.89951  0.95787  Biso   1.000  C
  H178     1.0000 0.54853  0.90837  0.00087  Biso   1.000  H
  C392     1.0000 0.57844  0.88420  0.94087  Biso   1.000  C
  H179     1.0000 0.59703  0.88367  0.97287  Biso   1.000  H
  C393     1.0000 0.49411  0.91954  0.92827  Biso   1.000  C
  C394     1.0000 0.51241  0.95828  0.96367  Biso   1.000  C
  H180     1.0000 0.54153  0.97087  0.97607  Biso   1.000  H
  C395     1.0000 0.37183  0.78647  0.86737  Biso   1.000  C
  C396     1.0000 0.42653  0.81037  0.96557  Biso   1.000  C
  Cu1      1.0000 0.31916  0.15958  0.10496  Biso   1.000  Cu
  Cu2      1.0000 0.98583  0.49291  0.43829  Biso   1.000  Cu
  Cu3      1.0000 0.65249  0.82625  0.77163  Biso   1.000  Cu
  Cu4      1.0000 0.84042  0.15958  0.10496  Biso   1.000  Cu
  Cu5      1.0000 0.50709  0.49291  0.43829  Biso   1.000  Cu
  Cu6      1.0000 0.17375  0.82625  0.77163  Biso   1.000  Cu
  Cu7      1.0000 0.84042  0.68084  0.10496  Biso   1.000  Cu
  Cu8      1.0000 0.50709  0.01417  0.43829  Biso   1.000  Cu
  Cu9      1.0000 0.17375  0.34751  0.77163  Biso   1.000  Cu
  Cu10     1.0000 0.15958  0.31916  0.89504  Biso   1.000  Cu
  Cu11     1.0000 0.82625  0.65249  0.22837  Biso   1.000  Cu
  Cu12     1.0000 0.49291  0.98583  0.56171  Biso   1.000  Cu
  Cu13     1.0000 0.15958  0.84042  0.89504  Biso   1.000  Cu
  Cu14     1.0000 0.82625  0.17375  0.22837  Biso   1.000  Cu
  Cu15     1.0000 0.49291  0.50709  0.56171  Biso   1.000  Cu
  Cu16     1.0000 0.68084  0.84042  0.89504  Biso   1.000  Cu
  Cu17     1.0000 0.34751  0.17375  0.22837  Biso   1.000  Cu
  Cu18     1.0000 0.01417  0.50709  0.56171  Biso   1.000  Cu
  O73      1.0000 0.09785  0.90215  0.20540  Biso   1.000  O
  C397     1.0000 0.15634  0.84366  0.31480  Biso   1.000  C
  C398     1.0000 0.11684  0.88316  0.24340  Biso   1.000  C
  C399     1.0000 0.07790  0.92210  0.23860  Biso   1.000  C
  O74      1.0000 0.76452  0.23548  0.53873  Biso   1.000  O
  C400     1.0000 0.82301  0.17699  0.64813  Biso   1.000  C
  C401     1.0000 0.78351  0.21649  0.57673  Biso   1.000  C
  C402     1.0000 0.74457  0.25543  0.57193  Biso   1.000  C
  O75      1.0000 0.43118  0.56882  0.87207  Biso   1.000  O
  C403     1.0000 0.48967  0.51033  0.98147  Biso   1.000  C
  C404     1.0000 0.45017  0.54983  0.91007  Biso   1.000  C
  C405     1.0000 0.41123  0.58877  0.90527  Biso   1.000  C
  O76      1.0000 0.09785  0.19570  0.20540  Biso   1.000  O
  C406     1.0000 0.15634  0.31268  0.31480  Biso   1.000  C
  C407     1.0000 0.11684  0.23368  0.24340  Biso   1.000  C
  C408     1.0000 0.07790  0.15580  0.23860  Biso   1.000  C
  O77      1.0000 0.76452  0.52903  0.53873  Biso   1.000  O
  C409     1.0000 0.82301  0.64601  0.64813  Biso   1.000  C
  C410     1.0000 0.78351  0.56701  0.57673  Biso   1.000  C
  C411     1.0000 0.74457  0.48913  0.57193  Biso   1.000  C
  O78      1.0000 0.43118  0.86237  0.87207  Biso   1.000  O
  C412     1.0000 0.48967  0.97935  0.98147  Biso   1.000  C
  C413     1.0000 0.45017  0.90035  0.91007  Biso   1.000  C
  C414     1.0000 0.41123  0.82247  0.90527  Biso   1.000  C
  O79      1.0000 0.80430  0.90215  0.20540  Biso   1.000  O
  C415     1.0000 0.68732  0.84366  0.31480  Biso   1.000  C
  C416     1.0000 0.76632  0.88316  0.24340  Biso   1.000  C
  C417     1.0000 0.84420  0.92210  0.23860  Biso   1.000  C
  O80      1.0000 0.47097  0.23548  0.53873  Biso   1.000  O
  C418     1.0000 0.35399  0.17699  0.64813  Biso   1.000  C
  C419     1.0000 0.43299  0.21649  0.57673  Biso   1.000  C
  C420     1.0000 0.51087  0.25543  0.57193  Biso   1.000  C
  O81      1.0000 0.13763  0.56882  0.87207  Biso   1.000  O
  C421     1.0000 0.02065  0.51033  0.98147  Biso   1.000  C
  C422     1.0000 0.09965  0.54983  0.91007  Biso   1.000  C
  C423     1.0000 0.17753  0.58877  0.90527  Biso   1.000  C
  O82      1.0000 0.90215  0.09785  0.79460  Biso   1.000  O
  C424     1.0000 0.84366  0.15634  0.68520  Biso   1.000  C
  C425     1.0000 0.88316  0.11684  0.75660  Biso   1.000  C
  C426     1.0000 0.92210  0.07790  0.76140  Biso   1.000  C
  O83      1.0000 0.56882  0.43118  0.12793  Biso   1.000  O
  C427     1.0000 0.51033  0.48967  0.01853  Biso   1.000  C
  C428     1.0000 0.54983  0.45017  0.08993  Biso   1.000  C
  C429     1.0000 0.58877  0.41123  0.09473  Biso   1.000  C
  O84      1.0000 0.23548  0.76452  0.46127  Biso   1.000  O
  C430     1.0000 0.17699  0.82301  0.35187  Biso   1.000  C
  C431     1.0000 0.21649  0.78351  0.42327  Biso   1.000  C
  C432     1.0000 0.25543  0.74457  0.42807  Biso   1.000  C
  O85      1.0000 0.19570  0.09785  0.79460  Biso   1.000  O
  C433     1.0000 0.31268  0.15634  0.68520  Biso   1.000  C
  C434     1.0000 0.23368  0.11684  0.75660  Biso   1.000  C
  C435     1.0000 0.15580  0.07790  0.76140  Biso   1.000  C
  O86      1.0000 0.86237  0.43118  0.12793  Biso   1.000  O
  C436     1.0000 0.97935  0.48967  0.01853  Biso   1.000  C
  C437     1.0000 0.90035  0.45017  0.08993  Biso   1.000  C
  C438     1.0000 0.82247  0.41123  0.09473  Biso   1.000  C
  O87      1.0000 0.52903  0.76452  0.46127  Biso   1.000  O
  C439     1.0000 0.64601  0.82301  0.35187  Biso   1.000  C
  C440     1.0000 0.56701  0.78351  0.42327  Biso   1.000  C
  C441     1.0000 0.48913  0.74457  0.42807  Biso   1.000  C
  O88      1.0000 0.90215  0.80430  0.79460  Biso   1.000  O
  C442     1.0000 0.84366  0.68732  0.68520  Biso   1.000  C
  C443     1.0000 0.88316  0.76632  0.75660  Biso   1.000  C
  C444     1.0000 0.92210  0.84420  0.76140  Biso   1.000  C
  O89      1.0000 0.56882  0.13763  0.12793  Biso   1.000  O
  C445     1.0000 0.51033  0.02065  0.01853  Biso   1.000  C
  C446     1.0000 0.54983  0.09965  0.08993  Biso   1.000  C
  C447     1.0000 0.58877  0.17753  0.09473  Biso   1.000  C
  O90      1.0000 0.23548  0.47097  0.46127  Biso   1.000  O
  C448     1.0000 0.17699  0.35399  0.35187  Biso   1.000  C
  C449     1.0000 0.21649  0.43299  0.42327  Biso   1.000  C
  C450     1.0000 0.25543  0.51087  0.42807  Biso   1.000  C
