data_image0
_cell_length_a       35.2906
_cell_length_b       35.2906
_cell_length_c       20.5612
_cell_angle_alpha    90
_cell_angle_beta     90
_cell_angle_gamma    120

_symmetry_space_group_name_H-M    "P 1"
_symmetry_int_tables_number       1

loop_
  _symmetry_equiv_pos_as_xyz
  'x, y, z'

loop_
  _atom_site_label
  _atom_site_occupancy
  _atom_site_fract_x
  _atom_site_fract_y
  _atom_site_fract_z
  _atom_site_thermal_displace_type
  _atom_site_B_iso_or_equiv
  _atom_site_type_symbol
  O1       1.0000 0.55389  0.52396  0.57299  Biso   1.000  O
  O2       1.0000 0.56656  0.51144  0.47023  Biso   1.000  O
  C1       1.0000 0.57818  0.52324  0.52826  Biso   1.000  C
  C2       1.0000 0.62463  0.53782  0.54585  Biso   1.000  C
  C3       1.0000 0.65350  0.53877  0.49941  Biso   1.000  C
  H1       1.0000 0.64350  0.52910  0.45640  Biso   1.000  H
  C4       1.0000 0.69701  0.55376  0.51524  Biso   1.000  C
  H2       1.0000 0.71670  0.55460  0.48290  Biso   1.000  H
  C5       1.0000 0.71177  0.56740  0.57781  Biso   1.000  C
  C6       1.0000 0.68273  0.56584  0.62429  Biso   1.000  C
  H3       1.0000 0.69250  0.57490  0.66750  Biso   1.000  H
  C7       1.0000 0.63918  0.55111  0.60825  Biso   1.000  C
  H4       1.0000 0.61950  0.55020  0.64050  Biso   1.000  H
  C8       1.0000 0.75914  0.58680  0.59522  Biso   1.000  C
  C9       1.0000 0.77872  0.62478  0.63110  Biso   1.000  C
  H5       1.0000 0.76160  0.63730  0.64420  Biso   1.000  H
  C10      1.0000 0.74340  0.45510  0.52190  Biso   1.000  C
  C11      1.0000 0.75770  0.47510  0.63010  Biso   1.000  C
  O3       1.0000 0.22056  0.85729  0.90632  Biso   1.000  O
  O4       1.0000 0.23323  0.84477  0.80356  Biso   1.000  O
  C12      1.0000 0.24485  0.85657  0.86159  Biso   1.000  C
  C13      1.0000 0.29130  0.87115  0.87918  Biso   1.000  C
  C14      1.0000 0.32017  0.87210  0.83274  Biso   1.000  C
  H6       1.0000 0.31017  0.86243  0.78973  Biso   1.000  H
  C15      1.0000 0.36368  0.88709  0.84857  Biso   1.000  C
  H7       1.0000 0.38337  0.88793  0.81623  Biso   1.000  H
  C16      1.0000 0.37844  0.90073  0.91114  Biso   1.000  C
  C17      1.0000 0.34940  0.89917  0.95762  Biso   1.000  C
  H8       1.0000 0.35917  0.90823  0.00083  Biso   1.000  H
  C18      1.0000 0.30585  0.88444  0.94158  Biso   1.000  C
  H9       1.0000 0.28617  0.88353  0.97383  Biso   1.000  H
  C19      1.0000 0.42581  0.92013  0.92855  Biso   1.000  C
  C20      1.0000 0.44539  0.95811  0.96443  Biso   1.000  C
  H10      1.0000 0.42827  0.97063  0.97753  Biso   1.000  H
  C21      1.0000 0.41007  0.78843  0.85523  Biso   1.000  C
  C22      1.0000 0.42437  0.80843  0.96343  Biso   1.000  C
  O5       1.0000 0.88722  0.19063  0.23966  Biso   1.000  O
  O6       1.0000 0.89989  0.17811  0.13690  Biso   1.000  O
  C23      1.0000 0.91151  0.18991  0.19493  Biso   1.000  C
  C24      1.0000 0.95796  0.20449  0.21252  Biso   1.000  C
  C25      1.0000 0.98683  0.20544  0.16608  Biso   1.000  C
  H11      1.0000 0.97683  0.19577  0.12307  Biso   1.000  H
  C26      1.0000 0.03034  0.22043  0.18191  Biso   1.000  C
  H12      1.0000 0.05003  0.22127  0.14957  Biso   1.000  H
  C27      1.0000 0.04510  0.23407  0.24448  Biso   1.000  C
  C28      1.0000 0.01606  0.23251  0.29096  Biso   1.000  C
  H13      1.0000 0.02583  0.24157  0.33417  Biso   1.000  H
  C29      1.0000 0.97251  0.21778  0.27492  Biso   1.000  C
  H14      1.0000 0.95283  0.21687  0.30717  Biso   1.000  H
  C30      1.0000 0.09247  0.25347  0.26189  Biso   1.000  C
  C31      1.0000 0.11205  0.29145  0.29777  Biso   1.000  C
  H15      1.0000 0.09493  0.30397  0.31087  Biso   1.000  H
  C32      1.0000 0.07673  0.12177  0.18857  Biso   1.000  C
  C33      1.0000 0.09103  0.14177  0.29677  Biso   1.000  C
  O7       1.0000 0.47604  0.02993  0.57299  Biso   1.000  O
  O8       1.0000 0.48856  0.05512  0.47023  Biso   1.000  O
  C34      1.0000 0.47676  0.05494  0.52826  Biso   1.000  C
  C35      1.0000 0.46218  0.08681  0.54585  Biso   1.000  C
  C36      1.0000 0.46123  0.11473  0.49941  Biso   1.000  C
  H16      1.0000 0.47090  0.11440  0.45640  Biso   1.000  H
  C37      1.0000 0.44624  0.14325  0.51524  Biso   1.000  C
  H17      1.0000 0.44540  0.16210  0.48290  Biso   1.000  H
  C38      1.0000 0.43260  0.14437  0.57781  Biso   1.000  C
  C39      1.0000 0.43416  0.11689  0.62429  Biso   1.000  C
  H18      1.0000 0.42510  0.11760  0.66750  Biso   1.000  H
  C40      1.0000 0.44889  0.08807  0.60825  Biso   1.000  C
  H19      1.0000 0.44980  0.06930  0.64050  Biso   1.000  H
  C41      1.0000 0.41320  0.17234  0.59522  Biso   1.000  C
  C42      1.0000 0.37522  0.15394  0.63110  Biso   1.000  C
  H20      1.0000 0.36270  0.12430  0.64420  Biso   1.000  H
  C43      1.0000 0.54490  0.28830  0.52190  Biso   1.000  C
  C44      1.0000 0.52490  0.28260  0.63010  Biso   1.000  C
  O9       1.0000 0.14271  0.36326  0.90632  Biso   1.000  O
  O10      1.0000 0.15523  0.38845  0.80356  Biso   1.000  O
  C45      1.0000 0.14343  0.38827  0.86159  Biso   1.000  C
  C46      1.0000 0.12885  0.42014  0.87918  Biso   1.000  C
  C47      1.0000 0.12790  0.44806  0.83274  Biso   1.000  C
  H21      1.0000 0.13757  0.44773  0.78973  Biso   1.000  H
  C48      1.0000 0.11291  0.47658  0.84857  Biso   1.000  C
  H22      1.0000 0.11207  0.49543  0.81623  Biso   1.000  H
  C49      1.0000 0.09927  0.47770  0.91114  Biso   1.000  C
  C50      1.0000 0.10083  0.45022  0.95762  Biso   1.000  C
  H23      1.0000 0.09177  0.45093  0.00083  Biso   1.000  H
  C51      1.0000 0.11556  0.42140  0.94158  Biso   1.000  C
  H24      1.0000 0.11647  0.40263  0.97383  Biso   1.000  H
  C52      1.0000 0.07987  0.50567  0.92855  Biso   1.000  C
  C53      1.0000 0.04189  0.48727  0.96443  Biso   1.000  C
  H25      1.0000 0.02937  0.45763  0.97753  Biso   1.000  H
  C54      1.0000 0.21157  0.62163  0.85523  Biso   1.000  C
  C55      1.0000 0.19157  0.61593  0.96343  Biso   1.000  C
  O11      1.0000 0.80937  0.69660  0.23966  Biso   1.000  O
  O12      1.0000 0.82189  0.72179  0.13690  Biso   1.000  O
  C56      1.0000 0.81009  0.72161  0.19493  Biso   1.000  C
  C57      1.0000 0.79551  0.75348  0.21252  Biso   1.000  C
  C58      1.0000 0.79456  0.78140  0.16608  Biso   1.000  C
  H26      1.0000 0.80423  0.78107  0.12307  Biso   1.000  H
  C59      1.0000 0.77957  0.80992  0.18191  Biso   1.000  C
  H27      1.0000 0.77873  0.82877  0.14957  Biso   1.000  H
  C60      1.0000 0.76593  0.81104  0.24448  Biso   1.000  C
  C61      1.0000 0.76749  0.78356  0.29096  Biso   1.000  C
  H28      1.0000 0.75843  0.78427  0.33417  Biso   1.000  H
  C62      1.0000 0.78222  0.75474  0.27492  Biso   1.000  C
  H29      1.0000 0.78313  0.73597  0.30717  Biso   1.000  H
  C63      1.0000 0.74653  0.83901  0.26189  Biso   1.000  C
  C64      1.0000 0.70855  0.82061  0.29777  Biso   1.000  C
  H30      1.0000 0.69603  0.79097  0.31087  Biso   1.000  H
  C65      1.0000 0.87823  0.95497  0.18857  Biso   1.000  C
  C66      1.0000 0.85823  0.94927  0.29677  Biso   1.000  C
  O13      1.0000 0.97007  0.44611  0.57299  Biso   1.000  O
  O14      1.0000 0.94488  0.43344  0.47023  Biso   1.000  O
  C67      1.0000 0.94506  0.42182  0.52826  Biso   1.000  C
  C68      1.0000 0.91319  0.37537  0.54585  Biso   1.000  C
  C69      1.0000 0.88527  0.34650  0.49941  Biso   1.000  C
  H31      1.0000 0.88560  0.35650  0.45640  Biso   1.000  H
  C70      1.0000 0.85675  0.30299  0.51524  Biso   1.000  C
  H32      1.0000 0.83790  0.28330  0.48290  Biso   1.000  H
  C71      1.0000 0.85563  0.28823  0.57781  Biso   1.000  C
  C72      1.0000 0.88311  0.31727  0.62429  Biso   1.000  C
  H33      1.0000 0.88240  0.30750  0.66750  Biso   1.000  H
  C73      1.0000 0.91193  0.36082  0.60825  Biso   1.000  C
  H34      1.0000 0.93070  0.38050  0.64050  Biso   1.000  H
  C74      1.0000 0.82766  0.24086  0.59522  Biso   1.000  C
  C75      1.0000 0.84606  0.22128  0.63110  Biso   1.000  C
  H35      1.0000 0.87570  0.23840  0.64420  Biso   1.000  H
  C76      1.0000 0.71170  0.25660  0.52190  Biso   1.000  C
  C77      1.0000 0.71740  0.24230  0.63010  Biso   1.000  C
  O15      1.0000 0.63674  0.77944  0.90632  Biso   1.000  O
  O16      1.0000 0.61155  0.76677  0.80356  Biso   1.000  O
  C78      1.0000 0.61173  0.75515  0.86159  Biso   1.000  C
  C79      1.0000 0.57986  0.70870  0.87918  Biso   1.000  C
  C80      1.0000 0.55194  0.67983  0.83274  Biso   1.000  C
  H36      1.0000 0.55227  0.68983  0.78973  Biso   1.000  H
  C81      1.0000 0.52342  0.63632  0.84857  Biso   1.000  C
  H37      1.0000 0.50457  0.61663  0.81623  Biso   1.000  H
  C82      1.0000 0.52230  0.62156  0.91114  Biso   1.000  C
  C83      1.0000 0.54978  0.65060  0.95762  Biso   1.000  C
  H38      1.0000 0.54907  0.64083  0.00083  Biso   1.000  H
  C84      1.0000 0.57860  0.69415  0.94158  Biso   1.000  C
  H39      1.0000 0.59737  0.71383  0.97383  Biso   1.000  H
  C85      1.0000 0.49433  0.57419  0.92855  Biso   1.000  C
  C86      1.0000 0.51273  0.55461  0.96443  Biso   1.000  C
  H40      1.0000 0.54237  0.57173  0.97753  Biso   1.000  H
  C87      1.0000 0.37837  0.58993  0.85523  Biso   1.000  C
  C88      1.0000 0.38407  0.57563  0.96343  Biso   1.000  C
  O17      1.0000 0.30340  0.11278  0.23966  Biso   1.000  O
  O18      1.0000 0.27821  0.10011  0.13690  Biso   1.000  O
  C89      1.0000 0.27839  0.08849  0.19493  Biso   1.000  C
  C90      1.0000 0.24652  0.04204  0.21252  Biso   1.000  C
  C91      1.0000 0.21860  0.01317  0.16608  Biso   1.000  C
  H41      1.0000 0.21893  0.02317  0.12307  Biso   1.000  H
  C92      1.0000 0.19008  0.96966  0.18191  Biso   1.000  C
  H42      1.0000 0.17123  0.94997  0.14957  Biso   1.000  H
  C93      1.0000 0.18896  0.95490  0.24448  Biso   1.000  C
  C94      1.0000 0.21644  0.98394  0.29096  Biso   1.000  C
  H43      1.0000 0.21573  0.97417  0.33417  Biso   1.000  H
  C95      1.0000 0.24526  0.02749  0.27492  Biso   1.000  C
  H44      1.0000 0.26403  0.04717  0.30717  Biso   1.000  H
  C96      1.0000 0.16099  0.90753  0.26189  Biso   1.000  C
  C97      1.0000 0.17939  0.88795  0.29777  Biso   1.000  C
  H45      1.0000 0.20903  0.90507  0.31087  Biso   1.000  H
  C98      1.0000 0.04503  0.92327  0.18857  Biso   1.000  C
  C99      1.0000 0.05073  0.90897  0.29677  Biso   1.000  C
  O19      1.0000 0.52396  0.55389  0.42701  Biso   1.000  O
  O20      1.0000 0.51144  0.56656  0.52977  Biso   1.000  O
  C100     1.0000 0.52324  0.57818  0.47174  Biso   1.000  C
  C101     1.0000 0.53782  0.62463  0.45415  Biso   1.000  C
  C102     1.0000 0.53877  0.65350  0.50059  Biso   1.000  C
  H46      1.0000 0.52910  0.64350  0.54360  Biso   1.000  H
  C103     1.0000 0.55376  0.69701  0.48476  Biso   1.000  C
  H47      1.0000 0.55460  0.71670  0.51710  Biso   1.000  H
  C104     1.0000 0.56740  0.71177  0.42219  Biso   1.000  C
  C105     1.0000 0.56584  0.68273  0.37571  Biso   1.000  C
  H48      1.0000 0.57490  0.69250  0.33250  Biso   1.000  H
  C106     1.0000 0.55111  0.63918  0.39175  Biso   1.000  C
  H49      1.0000 0.55020  0.61950  0.35950  Biso   1.000  H
  C107     1.0000 0.58680  0.75914  0.40478  Biso   1.000  C
  C108     1.0000 0.62478  0.77872  0.36890  Biso   1.000  C
  H50      1.0000 0.63730  0.76160  0.35580  Biso   1.000  H
  C109     1.0000 0.45510  0.74340  0.47810  Biso   1.000  C
  C110     1.0000 0.47510  0.75770  0.36990  Biso   1.000  C
  O21      1.0000 0.19063  0.88722  0.76034  Biso   1.000  O
  O22      1.0000 0.17811  0.89989  0.86310  Biso   1.000  O
  C111     1.0000 0.18991  0.91151  0.80507  Biso   1.000  C
  C112     1.0000 0.20449  0.95796  0.78748  Biso   1.000  C
  C113     1.0000 0.20544  0.98683  0.83392  Biso   1.000  C
  H51      1.0000 0.19577  0.97683  0.87693  Biso   1.000  H
  C114     1.0000 0.22043  0.03034  0.81809  Biso   1.000  C
  H52      1.0000 0.22127  0.05003  0.85043  Biso   1.000  H
  C115     1.0000 0.23407  0.04510  0.75552  Biso   1.000  C
  C116     1.0000 0.23251  0.01606  0.70904  Biso   1.000  C
  H53      1.0000 0.24157  0.02583  0.66583  Biso   1.000  H
  C117     1.0000 0.21778  0.97251  0.72508  Biso   1.000  C
  H54      1.0000 0.21687  0.95283  0.69283  Biso   1.000  H
  C118     1.0000 0.25347  0.09247  0.73811  Biso   1.000  C
  C119     1.0000 0.29145  0.11205  0.70223  Biso   1.000  C
  H55      1.0000 0.30397  0.09493  0.68913  Biso   1.000  H
  C120     1.0000 0.12177  0.07673  0.81143  Biso   1.000  C
  C121     1.0000 0.14177  0.09103  0.70323  Biso   1.000  C
  O23      1.0000 0.85729  0.22056  0.09368  Biso   1.000  O
  O24      1.0000 0.84477  0.23323  0.19644  Biso   1.000  O
  C122     1.0000 0.85657  0.24485  0.13841  Biso   1.000  C
  C123     1.0000 0.87115  0.29130  0.12082  Biso   1.000  C
  C124     1.0000 0.87210  0.32017  0.16726  Biso   1.000  C
  H56      1.0000 0.86243  0.31017  0.21027  Biso   1.000  H
  C125     1.0000 0.88709  0.36368  0.15143  Biso   1.000  C
  H57      1.0000 0.88793  0.38337  0.18377  Biso   1.000  H
  C126     1.0000 0.90073  0.37844  0.08886  Biso   1.000  C
  C127     1.0000 0.89917  0.34940  0.04238  Biso   1.000  C
  H58      1.0000 0.90823  0.35917  0.99917  Biso   1.000  H
  C128     1.0000 0.88444  0.30585  0.05842  Biso   1.000  C
  H59      1.0000 0.88353  0.28617  0.02617  Biso   1.000  H
  C129     1.0000 0.92013  0.42581  0.07145  Biso   1.000  C
  C130     1.0000 0.95811  0.44539  0.03557  Biso   1.000  C
  H60      1.0000 0.97063  0.42827  0.02247  Biso   1.000  H
  C131     1.0000 0.78843  0.41007  0.14477  Biso   1.000  C
  C132     1.0000 0.80843  0.42437  0.03657  Biso   1.000  C
  O25      1.0000 0.02993  0.47604  0.42701  Biso   1.000  O
  O26      1.0000 0.05512  0.48856  0.52977  Biso   1.000  O
  C133     1.0000 0.05494  0.47676  0.47174  Biso   1.000  C
  C134     1.0000 0.08681  0.46218  0.45415  Biso   1.000  C
  C135     1.0000 0.11473  0.46123  0.50059  Biso   1.000  C
  H61      1.0000 0.11440  0.47090  0.54360  Biso   1.000  H
  C136     1.0000 0.14325  0.44624  0.48476  Biso   1.000  C
  H62      1.0000 0.16210  0.44540  0.51710  Biso   1.000  H
  C137     1.0000 0.14437  0.43260  0.42219  Biso   1.000  C
  C138     1.0000 0.11689  0.43416  0.37571  Biso   1.000  C
  H63      1.0000 0.11760  0.42510  0.33250  Biso   1.000  H
  C139     1.0000 0.08807  0.44889  0.39175  Biso   1.000  C
  H64      1.0000 0.06930  0.44980  0.35950  Biso   1.000  H
  C140     1.0000 0.17234  0.41320  0.40478  Biso   1.000  C
  C141     1.0000 0.15394  0.37522  0.36890  Biso   1.000  C
  H65      1.0000 0.12430  0.36270  0.35580  Biso   1.000  H
  C142     1.0000 0.28830  0.54490  0.47810  Biso   1.000  C
  C143     1.0000 0.28260  0.52490  0.36990  Biso   1.000  C
  O27      1.0000 0.69660  0.80937  0.76034  Biso   1.000  O
  O28      1.0000 0.72179  0.82189  0.86310  Biso   1.000  O
  C144     1.0000 0.72161  0.81009  0.80507  Biso   1.000  C
  C145     1.0000 0.75348  0.79551  0.78748  Biso   1.000  C
  C146     1.0000 0.78140  0.79456  0.83392  Biso   1.000  C
  H66      1.0000 0.78107  0.80423  0.87693  Biso   1.000  H
  C147     1.0000 0.80992  0.77957  0.81809  Biso   1.000  C
  H67      1.0000 0.82877  0.77873  0.85043  Biso   1.000  H
  C148     1.0000 0.81104  0.76593  0.75552  Biso   1.000  C
  C149     1.0000 0.78356  0.76749  0.70904  Biso   1.000  C
  H68      1.0000 0.78427  0.75843  0.66583  Biso   1.000  H
  C150     1.0000 0.75474  0.78222  0.72508  Biso   1.000  C
  H69      1.0000 0.73597  0.78313  0.69283  Biso   1.000  H
  C151     1.0000 0.83901  0.74653  0.73811  Biso   1.000  C
  C152     1.0000 0.82061  0.70855  0.70223  Biso   1.000  C
  H70      1.0000 0.79097  0.69603  0.68913  Biso   1.000  H
  C153     1.0000 0.95497  0.87823  0.81143  Biso   1.000  C
  C154     1.0000 0.94927  0.85823  0.70323  Biso   1.000  C
  O29      1.0000 0.36326  0.14271  0.09368  Biso   1.000  O
  O30      1.0000 0.38845  0.15523  0.19644  Biso   1.000  O
  C155     1.0000 0.38827  0.14343  0.13841  Biso   1.000  C
  C156     1.0000 0.42014  0.12885  0.12082  Biso   1.000  C
  C157     1.0000 0.44806  0.12790  0.16726  Biso   1.000  C
  H71      1.0000 0.44773  0.13757  0.21027  Biso   1.000  H
  C158     1.0000 0.47658  0.11291  0.15143  Biso   1.000  C
  H72      1.0000 0.49543  0.11207  0.18377  Biso   1.000  H
  C159     1.0000 0.47770  0.09927  0.08886  Biso   1.000  C
  C160     1.0000 0.45022  0.10083  0.04238  Biso   1.000  C
  H73      1.0000 0.45093  0.09177  0.99917  Biso   1.000  H
  C161     1.0000 0.42140  0.11556  0.05842  Biso   1.000  C
  H74      1.0000 0.40263  0.11647  0.02617  Biso   1.000  H
  C162     1.0000 0.50567  0.07987  0.07145  Biso   1.000  C
  C163     1.0000 0.48727  0.04189  0.03557  Biso   1.000  C
  H75      1.0000 0.45763  0.02937  0.02247  Biso   1.000  H
  C164     1.0000 0.62163  0.21157  0.14477  Biso   1.000  C
  C165     1.0000 0.61593  0.19157  0.03657  Biso   1.000  C
  O31      1.0000 0.44611  0.97007  0.42701  Biso   1.000  O
  O32      1.0000 0.43344  0.94488  0.52977  Biso   1.000  O
  C166     1.0000 0.42182  0.94506  0.47174  Biso   1.000  C
  C167     1.0000 0.37537  0.91319  0.45415  Biso   1.000  C
  C168     1.0000 0.34650  0.88527  0.50059  Biso   1.000  C
  H76      1.0000 0.35650  0.88560  0.54360  Biso   1.000  H
  C169     1.0000 0.30299  0.85675  0.48476  Biso   1.000  C
  H77      1.0000 0.28330  0.83790  0.51710  Biso   1.000  H
  C170     1.0000 0.28823  0.85563  0.42219  Biso   1.000  C
  C171     1.0000 0.31727  0.88311  0.37571  Biso   1.000  C
  H78      1.0000 0.30750  0.88240  0.33250  Biso   1.000  H
  C172     1.0000 0.36082  0.91193  0.39175  Biso   1.000  C
  H79      1.0000 0.38050  0.93070  0.35950  Biso   1.000  H
  C173     1.0000 0.24086  0.82766  0.40478  Biso   1.000  C
  C174     1.0000 0.22128  0.84606  0.36890  Biso   1.000  C
  H80      1.0000 0.23840  0.87570  0.35580  Biso   1.000  H
  C175     1.0000 0.25660  0.71170  0.47810  Biso   1.000  C
  C176     1.0000 0.24230  0.71740  0.36990  Biso   1.000  C
  O33      1.0000 0.11278  0.30340  0.76034  Biso   1.000  O
  O34      1.0000 0.10011  0.27821  0.86310  Biso   1.000  O
  C177     1.0000 0.08849  0.27839  0.80507  Biso   1.000  C
  C178     1.0000 0.04204  0.24652  0.78748  Biso   1.000  C
  C179     1.0000 0.01317  0.21860  0.83392  Biso   1.000  C
  H81      1.0000 0.02317  0.21893  0.87693  Biso   1.000  H
  C180     1.0000 0.96966  0.19008  0.81809  Biso   1.000  C
  H82      1.0000 0.94997  0.17123  0.85043  Biso   1.000  H
  C181     1.0000 0.95490  0.18896  0.75552  Biso   1.000  C
  C182     1.0000 0.98394  0.21644  0.70904  Biso   1.000  C
  H83      1.0000 0.97417  0.21573  0.66583  Biso   1.000  H
  C183     1.0000 0.02749  0.24526  0.72508  Biso   1.000  C
  H84      1.0000 0.04717  0.26403  0.69283  Biso   1.000  H
  C184     1.0000 0.90753  0.16099  0.73811  Biso   1.000  C
  C185     1.0000 0.88795  0.17939  0.70223  Biso   1.000  C
  H85      1.0000 0.90507  0.20903  0.68913  Biso   1.000  H
  C186     1.0000 0.92327  0.04503  0.81143  Biso   1.000  C
  C187     1.0000 0.90897  0.05073  0.70323  Biso   1.000  C
  O35      1.0000 0.77944  0.63674  0.09368  Biso   1.000  O
  O36      1.0000 0.76677  0.61155  0.19644  Biso   1.000  O
  C188     1.0000 0.75515  0.61173  0.13841  Biso   1.000  C
  C189     1.0000 0.70870  0.57986  0.12082  Biso   1.000  C
  C190     1.0000 0.67983  0.55194  0.16726  Biso   1.000  C
  H86      1.0000 0.68983  0.55227  0.21027  Biso   1.000  H
  C191     1.0000 0.63632  0.52342  0.15143  Biso   1.000  C
  H87      1.0000 0.61663  0.50457  0.18377  Biso   1.000  H
  C192     1.0000 0.62156  0.52230  0.08886  Biso   1.000  C
  C193     1.0000 0.65060  0.54978  0.04238  Biso   1.000  C
  H88      1.0000 0.64083  0.54907  0.99917  Biso   1.000  H
  C194     1.0000 0.69415  0.57860  0.05842  Biso   1.000  C
  H89      1.0000 0.71383  0.59737  0.02617  Biso   1.000  H
  C195     1.0000 0.57419  0.49433  0.07145  Biso   1.000  C
  C196     1.0000 0.55461  0.51273  0.03557  Biso   1.000  C
  H90      1.0000 0.57173  0.54237  0.02247  Biso   1.000  H
  C197     1.0000 0.58993  0.37837  0.14477  Biso   1.000  C
  C198     1.0000 0.57563  0.38407  0.03657  Biso   1.000  C
  O37      1.0000 0.44611  0.47604  0.42701  Biso   1.000  O
  O38      1.0000 0.43344  0.48856  0.52977  Biso   1.000  O
  C199     1.0000 0.42182  0.47676  0.47174  Biso   1.000  C
  C200     1.0000 0.37537  0.46218  0.45415  Biso   1.000  C
  C201     1.0000 0.34650  0.46123  0.50059  Biso   1.000  C
  H91      1.0000 0.35650  0.47090  0.54360  Biso   1.000  H
  C202     1.0000 0.30299  0.44624  0.48476  Biso   1.000  C
  H92      1.0000 0.28330  0.44540  0.51710  Biso   1.000  H
  C203     1.0000 0.28823  0.43260  0.42219  Biso   1.000  C
  C204     1.0000 0.31727  0.43416  0.37571  Biso   1.000  C
  H93      1.0000 0.30750  0.42510  0.33250  Biso   1.000  H
  C205     1.0000 0.36082  0.44889  0.39175  Biso   1.000  C
  H94      1.0000 0.38050  0.44980  0.35950  Biso   1.000  H
  C206     1.0000 0.24086  0.41320  0.40478  Biso   1.000  C
  C207     1.0000 0.22128  0.37522  0.36890  Biso   1.000  C
  H95      1.0000 0.23840  0.36270  0.35580  Biso   1.000  H
  C208     1.0000 0.25660  0.54490  0.47810  Biso   1.000  C
  C209     1.0000 0.24230  0.52490  0.36990  Biso   1.000  C
  O39      1.0000 0.11278  0.80937  0.76034  Biso   1.000  O
  O40      1.0000 0.10011  0.82189  0.86310  Biso   1.000  O
  C210     1.0000 0.08849  0.81009  0.80507  Biso   1.000  C
  C211     1.0000 0.04204  0.79551  0.78748  Biso   1.000  C
  C212     1.0000 0.01317  0.79456  0.83392  Biso   1.000  C
  H96      1.0000 0.02317  0.80423  0.87693  Biso   1.000  H
  C213     1.0000 0.96966  0.77957  0.81809  Biso   1.000  C
  H97      1.0000 0.94997  0.77873  0.85043  Biso   1.000  H
  C214     1.0000 0.95490  0.76593  0.75552  Biso   1.000  C
  C215     1.0000 0.98394  0.76749  0.70904  Biso   1.000  C
  H98      1.0000 0.97417  0.75843  0.66583  Biso   1.000  H
  C216     1.0000 0.02749  0.78222  0.72508  Biso   1.000  C
  H99      1.0000 0.04717  0.78313  0.69283  Biso   1.000  H
  C217     1.0000 0.90753  0.74653  0.73811  Biso   1.000  C
  C218     1.0000 0.88795  0.70855  0.70223  Biso   1.000  C
  H100     1.0000 0.90507  0.69603  0.68913  Biso   1.000  H
  C219     1.0000 0.92327  0.87823  0.81143  Biso   1.000  C
  C220     1.0000 0.90897  0.85823  0.70323  Biso   1.000  C
  O41      1.0000 0.77944  0.14271  0.09368  Biso   1.000  O
  O42      1.0000 0.76677  0.15523  0.19644  Biso   1.000  O
  C221     1.0000 0.75515  0.14343  0.13841  Biso   1.000  C
  C222     1.0000 0.70870  0.12885  0.12082  Biso   1.000  C
  C223     1.0000 0.67983  0.12790  0.16726  Biso   1.000  C
  H101     1.0000 0.68983  0.13757  0.21027  Biso   1.000  H
  C224     1.0000 0.63632  0.11291  0.15143  Biso   1.000  C
  H102     1.0000 0.61663  0.11207  0.18377  Biso   1.000  H
  C225     1.0000 0.62156  0.09927  0.08886  Biso   1.000  C
  C226     1.0000 0.65060  0.10083  0.04238  Biso   1.000  C
  H103     1.0000 0.64083  0.09177  0.99917  Biso   1.000  H
  C227     1.0000 0.69415  0.11556  0.05842  Biso   1.000  C
  H104     1.0000 0.71383  0.11647  0.02617  Biso   1.000  H
  C228     1.0000 0.57419  0.07987  0.07145  Biso   1.000  C
  C229     1.0000 0.55461  0.04189  0.03557  Biso   1.000  C
  H105     1.0000 0.57173  0.02937  0.02247  Biso   1.000  H
  C230     1.0000 0.58993  0.21157  0.14477  Biso   1.000  C
  C231     1.0000 0.57563  0.19157  0.03657  Biso   1.000  C
  O43      1.0000 0.52396  0.97007  0.42701  Biso   1.000  O
  O44      1.0000 0.51144  0.94488  0.52977  Biso   1.000  O
  C232     1.0000 0.52324  0.94506  0.47174  Biso   1.000  C
  C233     1.0000 0.53782  0.91319  0.45415  Biso   1.000  C
  C234     1.0000 0.53877  0.88527  0.50059  Biso   1.000  C
  H106     1.0000 0.52910  0.88560  0.54360  Biso   1.000  H
  C235     1.0000 0.55376  0.85675  0.48476  Biso   1.000  C
  H107     1.0000 0.55460  0.83790  0.51710  Biso   1.000  H
  C236     1.0000 0.56740  0.85563  0.42219  Biso   1.000  C
  C237     1.0000 0.56584  0.88311  0.37571  Biso   1.000  C
  H108     1.0000 0.57490  0.88240  0.33250  Biso   1.000  H
  C238     1.0000 0.55111  0.91193  0.39175  Biso   1.000  C
  H109     1.0000 0.55020  0.93070  0.35950  Biso   1.000  H
  C239     1.0000 0.58680  0.82766  0.40478  Biso   1.000  C
  C240     1.0000 0.62478  0.84606  0.36890  Biso   1.000  C
  H110     1.0000 0.63730  0.87570  0.35580  Biso   1.000  H
  C241     1.0000 0.45510  0.71170  0.47810  Biso   1.000  C
  C242     1.0000 0.47510  0.71740  0.36990  Biso   1.000  C
  O45      1.0000 0.19063  0.30340  0.76034  Biso   1.000  O
  O46      1.0000 0.17811  0.27821  0.86310  Biso   1.000  O
  C243     1.0000 0.18991  0.27839  0.80507  Biso   1.000  C
  C244     1.0000 0.20449  0.24652  0.78748  Biso   1.000  C
  C245     1.0000 0.20544  0.21860  0.83392  Biso   1.000  C
  H111     1.0000 0.19577  0.21893  0.87693  Biso   1.000  H
  C246     1.0000 0.22043  0.19008  0.81809  Biso   1.000  C
  H112     1.0000 0.22127  0.17123  0.85043  Biso   1.000  H
  C247     1.0000 0.23407  0.18896  0.75552  Biso   1.000  C
  C248     1.0000 0.23251  0.21644  0.70904  Biso   1.000  C
  H113     1.0000 0.24157  0.21573  0.66583  Biso   1.000  H
  C249     1.0000 0.21778  0.24526  0.72508  Biso   1.000  C
  H114     1.0000 0.21687  0.26403  0.69283  Biso   1.000  H
  C250     1.0000 0.25347  0.16099  0.73811  Biso   1.000  C
  C251     1.0000 0.29145  0.17939  0.70223  Biso   1.000  C
  H115     1.0000 0.30397  0.20903  0.68913  Biso   1.000  H
  C252     1.0000 0.12177  0.04503  0.81143  Biso   1.000  C
  C253     1.0000 0.14177  0.05073  0.70323  Biso   1.000  C
  O47      1.0000 0.85729  0.63674  0.09368  Biso   1.000  O
  O48      1.0000 0.84477  0.61155  0.19644  Biso   1.000  O
  C254     1.0000 0.85657  0.61173  0.13841  Biso   1.000  C
  C255     1.0000 0.87115  0.57986  0.12082  Biso   1.000  C
  C256     1.0000 0.87210  0.55194  0.16726  Biso   1.000  C
  H116     1.0000 0.86243  0.55227  0.21027  Biso   1.000  H
  C257     1.0000 0.88709  0.52342  0.15143  Biso   1.000  C
  H117     1.0000 0.88793  0.50457  0.18377  Biso   1.000  H
  C258     1.0000 0.90073  0.52230  0.08886  Biso   1.000  C
  C259     1.0000 0.89917  0.54978  0.04238  Biso   1.000  C
  H118     1.0000 0.90823  0.54907  0.99917  Biso   1.000  H
  C260     1.0000 0.88444  0.57860  0.05842  Biso   1.000  C
  H119     1.0000 0.88353  0.59737  0.02617  Biso   1.000  H
  C261     1.0000 0.92013  0.49433  0.07145  Biso   1.000  C
  C262     1.0000 0.95811  0.51273  0.03557  Biso   1.000  C
  H120     1.0000 0.97063  0.54237  0.02247  Biso   1.000  H
  C263     1.0000 0.78843  0.37837  0.14477  Biso   1.000  C
  C264     1.0000 0.80843  0.38407  0.03657  Biso   1.000  C
  O49      1.0000 0.02993  0.55389  0.42701  Biso   1.000  O
  O50      1.0000 0.05512  0.56656  0.52977  Biso   1.000  O
  C265     1.0000 0.05494  0.57818  0.47174  Biso   1.000  C
  C266     1.0000 0.08681  0.62463  0.45415  Biso   1.000  C
  C267     1.0000 0.11473  0.65350  0.50059  Biso   1.000  C
  H121     1.0000 0.11440  0.64350  0.54360  Biso   1.000  H
  C268     1.0000 0.14325  0.69701  0.48476  Biso   1.000  C
  H122     1.0000 0.16210  0.71670  0.51710  Biso   1.000  H
  C269     1.0000 0.14437  0.71177  0.42219  Biso   1.000  C
  C270     1.0000 0.11689  0.68273  0.37571  Biso   1.000  C
  H123     1.0000 0.11760  0.69250  0.33250  Biso   1.000  H
  C271     1.0000 0.08807  0.63918  0.39175  Biso   1.000  C
  H124     1.0000 0.06930  0.61950  0.35950  Biso   1.000  H
  C272     1.0000 0.17234  0.75914  0.40478  Biso   1.000  C
  C273     1.0000 0.15394  0.77872  0.36890  Biso   1.000  C
  H125     1.0000 0.12430  0.76160  0.35580  Biso   1.000  H
  C274     1.0000 0.28830  0.74340  0.47810  Biso   1.000  C
  C275     1.0000 0.28260  0.75770  0.36990  Biso   1.000  C
  O51      1.0000 0.69660  0.88722  0.76034  Biso   1.000  O
  O52      1.0000 0.72179  0.89989  0.86310  Biso   1.000  O
  C276     1.0000 0.72161  0.91151  0.80507  Biso   1.000  C
  C277     1.0000 0.75348  0.95796  0.78748  Biso   1.000  C
  C278     1.0000 0.78140  0.98683  0.83392  Biso   1.000  C
  H126     1.0000 0.78107  0.97683  0.87693  Biso   1.000  H
  C279     1.0000 0.80992  0.03034  0.81809  Biso   1.000  C
  H127     1.0000 0.82877  0.05003  0.85043  Biso   1.000  H
  C280     1.0000 0.81104  0.04510  0.75552  Biso   1.000  C
  C281     1.0000 0.78356  0.01606  0.70904  Biso   1.000  C
  H128     1.0000 0.78427  0.02583  0.66583  Biso   1.000  H
  C282     1.0000 0.75474  0.97251  0.72508  Biso   1.000  C
  H129     1.0000 0.73597  0.95283  0.69283  Biso   1.000  H
  C283     1.0000 0.83901  0.09247  0.73811  Biso   1.000  C
  C284     1.0000 0.82061  0.11205  0.70223  Biso   1.000  C
  H130     1.0000 0.79097  0.09493  0.68913  Biso   1.000  H
  C285     1.0000 0.95497  0.07673  0.81143  Biso   1.000  C
  C286     1.0000 0.94927  0.09103  0.70323  Biso   1.000  C
  O53      1.0000 0.36326  0.22056  0.09368  Biso   1.000  O
  O54      1.0000 0.38845  0.23323  0.19644  Biso   1.000  O
  C287     1.0000 0.38827  0.24485  0.13841  Biso   1.000  C
  C288     1.0000 0.42014  0.29130  0.12082  Biso   1.000  C
  C289     1.0000 0.44806  0.32017  0.16726  Biso   1.000  C
  H131     1.0000 0.44773  0.31017  0.21027  Biso   1.000  H
  C290     1.0000 0.47658  0.36368  0.15143  Biso   1.000  C
  H132     1.0000 0.49543  0.38337  0.18377  Biso   1.000  H
  C291     1.0000 0.47770  0.37844  0.08886  Biso   1.000  C
  C292     1.0000 0.45022  0.34940  0.04238  Biso   1.000  C
  H133     1.0000 0.45093  0.35917  0.99917  Biso   1.000  H
  C293     1.0000 0.42140  0.30585  0.05842  Biso   1.000  C
  H134     1.0000 0.40263  0.28617  0.02617  Biso   1.000  H
  C294     1.0000 0.50567  0.42581  0.07145  Biso   1.000  C
  C295     1.0000 0.48727  0.44539  0.03557  Biso   1.000  C
  H135     1.0000 0.45763  0.42827  0.02247  Biso   1.000  H
  C296     1.0000 0.62163  0.41007  0.14477  Biso   1.000  C
  C297     1.0000 0.61593  0.42437  0.03657  Biso   1.000  C
  O55      1.0000 0.47604  0.44611  0.57299  Biso   1.000  O
  O56      1.0000 0.48856  0.43344  0.47023  Biso   1.000  O
  C298     1.0000 0.47676  0.42182  0.52826  Biso   1.000  C
  C299     1.0000 0.46218  0.37537  0.54585  Biso   1.000  C
  C300     1.0000 0.46123  0.34650  0.49941  Biso   1.000  C
  H136     1.0000 0.47090  0.35650  0.45640  Biso   1.000  H
  C301     1.0000 0.44624  0.30299  0.51524  Biso   1.000  C
  H137     1.0000 0.44540  0.28330  0.48290  Biso   1.000  H
  C302     1.0000 0.43260  0.28823  0.57781  Biso   1.000  C
  C303     1.0000 0.43416  0.31727  0.62429  Biso   1.000  C
  H138     1.0000 0.42510  0.30750  0.66750  Biso   1.000  H
  C304     1.0000 0.44889  0.36082  0.60825  Biso   1.000  C
  H139     1.0000 0.44980  0.38050  0.64050  Biso   1.000  H
  C305     1.0000 0.41320  0.24086  0.59522  Biso   1.000  C
  C306     1.0000 0.37522  0.22128  0.63110  Biso   1.000  C
  H140     1.0000 0.36270  0.23840  0.64420  Biso   1.000  H
  C307     1.0000 0.54490  0.25660  0.52190  Biso   1.000  C
  C308     1.0000 0.52490  0.24230  0.63010  Biso   1.000  C
  O57      1.0000 0.14271  0.77944  0.90632  Biso   1.000  O
  O58      1.0000 0.15523  0.76677  0.80356  Biso   1.000  O
  C309     1.0000 0.14343  0.75515  0.86159  Biso   1.000  C
  C310     1.0000 0.12885  0.70870  0.87918  Biso   1.000  C
  C311     1.0000 0.12790  0.67983  0.83274  Biso   1.000  C
  H141     1.0000 0.13757  0.68983  0.78973  Biso   1.000  H
  C312     1.0000 0.11291  0.63632  0.84857  Biso   1.000  C
  H142     1.0000 0.11207  0.61663  0.81623  Biso   1.000  H
  C313     1.0000 0.09927  0.62156  0.91114  Biso   1.000  C
  C314     1.0000 0.10083  0.65060  0.95762  Biso   1.000  C
  H143     1.0000 0.09177  0.64083  0.00083  Biso   1.000  H
  C315     1.0000 0.11556  0.69415  0.94158  Biso   1.000  C
  H144     1.0000 0.11647  0.71383  0.97383  Biso   1.000  H
  C316     1.0000 0.07987  0.57419  0.92855  Biso   1.000  C
  C317     1.0000 0.04189  0.55461  0.96443  Biso   1.000  C
  H145     1.0000 0.02937  0.57173  0.97753  Biso   1.000  H
  C318     1.0000 0.21157  0.58993  0.85523  Biso   1.000  C
  C319     1.0000 0.19157  0.57563  0.96343  Biso   1.000  C
  O59      1.0000 0.80937  0.11278  0.23966  Biso   1.000  O
  O60      1.0000 0.82189  0.10011  0.13690  Biso   1.000  O
  C320     1.0000 0.81009  0.08849  0.19493  Biso   1.000  C
  C321     1.0000 0.79551  0.04204  0.21252  Biso   1.000  C
  C322     1.0000 0.79456  0.01317  0.16608  Biso   1.000  C
  H146     1.0000 0.80423  0.02317  0.12307  Biso   1.000  H
  C323     1.0000 0.77957  0.96966  0.18191  Biso   1.000  C
  H147     1.0000 0.77873  0.94997  0.14957  Biso   1.000  H
  C324     1.0000 0.76593  0.95490  0.24448  Biso   1.000  C
  C325     1.0000 0.76749  0.98394  0.29096  Biso   1.000  C
  H148     1.0000 0.75843  0.97417  0.33417  Biso   1.000  H
  C326     1.0000 0.78222  0.02749  0.27492  Biso   1.000  C
  H149     1.0000 0.78313  0.04717  0.30717  Biso   1.000  H
  C327     1.0000 0.74653  0.90753  0.26189  Biso   1.000  C
  C328     1.0000 0.70855  0.88795  0.29777  Biso   1.000  C
  H150     1.0000 0.69603  0.90507  0.31087  Biso   1.000  H
  C329     1.0000 0.87823  0.92327  0.18857  Biso   1.000  C
  C330     1.0000 0.85823  0.90897  0.29677  Biso   1.000  C
  O61      1.0000 0.97007  0.52396  0.57299  Biso   1.000  O
  O62      1.0000 0.94488  0.51144  0.47023  Biso   1.000  O
  C331     1.0000 0.94506  0.52324  0.52826  Biso   1.000  C
  C332     1.0000 0.91319  0.53782  0.54585  Biso   1.000  C
  C333     1.0000 0.88527  0.53877  0.49941  Biso   1.000  C
  H151     1.0000 0.88560  0.52910  0.45640  Biso   1.000  H
  C334     1.0000 0.85675  0.55376  0.51524  Biso   1.000  C
  H152     1.0000 0.83790  0.55460  0.48290  Biso   1.000  H
  C335     1.0000 0.85563  0.56740  0.57781  Biso   1.000  C
  C336     1.0000 0.88311  0.56584  0.62429  Biso   1.000  C
  H153     1.0000 0.88240  0.57490  0.66750  Biso   1.000  H
  C337     1.0000 0.91193  0.55111  0.60825  Biso   1.000  C
  H154     1.0000 0.93070  0.55020  0.64050  Biso   1.000  H
  C338     1.0000 0.82766  0.58680  0.59522  Biso   1.000  C
  C339     1.0000 0.84606  0.62478  0.63110  Biso   1.000  C
  H155     1.0000 0.87570  0.63730  0.64420  Biso   1.000  H
  C340     1.0000 0.71170  0.45510  0.52190  Biso   1.000  C
  C341     1.0000 0.71740  0.47510  0.63010  Biso   1.000  C
  O63      1.0000 0.63674  0.85729  0.90632  Biso   1.000  O
  O64      1.0000 0.61155  0.84477  0.80356  Biso   1.000  O
  C342     1.0000 0.61173  0.85657  0.86159  Biso   1.000  C
  C343     1.0000 0.57986  0.87115  0.87918  Biso   1.000  C
  C344     1.0000 0.55194  0.87210  0.83274  Biso   1.000  C
  H156     1.0000 0.55227  0.86243  0.78973  Biso   1.000  H
  C345     1.0000 0.52342  0.88709  0.84857  Biso   1.000  C
  H157     1.0000 0.50457  0.88793  0.81623  Biso   1.000  H
  C346     1.0000 0.52230  0.90073  0.91114  Biso   1.000  C
  C347     1.0000 0.54978  0.89917  0.95762  Biso   1.000  C
  H158     1.0000 0.54907  0.90823  0.00083  Biso   1.000  H
  C348     1.0000 0.57860  0.88444  0.94158  Biso   1.000  C
  H159     1.0000 0.59737  0.88353  0.97383  Biso   1.000  H
  C349     1.0000 0.49433  0.92013  0.92855  Biso   1.000  C
  C350     1.0000 0.51273  0.95811  0.96443  Biso   1.000  C
  H160     1.0000 0.54237  0.97063  0.97753  Biso   1.000  H
  C351     1.0000 0.37837  0.78843  0.85523  Biso   1.000  C
  C352     1.0000 0.38407  0.80843  0.96343  Biso   1.000  C
  O65      1.0000 0.30340  0.19063  0.23966  Biso   1.000  O
  O66      1.0000 0.27821  0.17811  0.13690  Biso   1.000  O
  C353     1.0000 0.27839  0.18991  0.19493  Biso   1.000  C
  C354     1.0000 0.24652  0.20449  0.21252  Biso   1.000  C
  C355     1.0000 0.21860  0.20544  0.16608  Biso   1.000  C
  H161     1.0000 0.21893  0.19577  0.12307  Biso   1.000  H
  C356     1.0000 0.19008  0.22043  0.18191  Biso   1.000  C
  H162     1.0000 0.17123  0.22127  0.14957  Biso   1.000  H
  C357     1.0000 0.18896  0.23407  0.24448  Biso   1.000  C
  C358     1.0000 0.21644  0.23251  0.29096  Biso   1.000  C
  H163     1.0000 0.21573  0.24157  0.33417  Biso   1.000  H
  C359     1.0000 0.24526  0.21778  0.27492  Biso   1.000  C
  H164     1.0000 0.26403  0.21687  0.30717  Biso   1.000  H
  C360     1.0000 0.16099  0.25347  0.26189  Biso   1.000  C
  C361     1.0000 0.17939  0.29145  0.29777  Biso   1.000  C
  H165     1.0000 0.20903  0.30397  0.31087  Biso   1.000  H
  C362     1.0000 0.04503  0.12177  0.18857  Biso   1.000  C
  C363     1.0000 0.05073  0.14177  0.29677  Biso   1.000  C
  O67      1.0000 0.55389  0.02993  0.57299  Biso   1.000  O
  O68      1.0000 0.56656  0.05512  0.47023  Biso   1.000  O
  C364     1.0000 0.57818  0.05494  0.52826  Biso   1.000  C
  C365     1.0000 0.62463  0.08681  0.54585  Biso   1.000  C
  C366     1.0000 0.65350  0.11473  0.49941  Biso   1.000  C
  H166     1.0000 0.64350  0.11440  0.45640  Biso   1.000  H
  C367     1.0000 0.69701  0.14325  0.51524  Biso   1.000  C
  H167     1.0000 0.71670  0.16210  0.48290  Biso   1.000  H
  C368     1.0000 0.71177  0.14437  0.57781  Biso   1.000  C
  C369     1.0000 0.68273  0.11689  0.62429  Biso   1.000  C
  H168     1.0000 0.69250  0.11760  0.66750  Biso   1.000  H
  C370     1.0000 0.63918  0.08807  0.60825  Biso   1.000  C
  H169     1.0000 0.61950  0.06930  0.64050  Biso   1.000  H
  C371     1.0000 0.75914  0.17234  0.59522  Biso   1.000  C
  C372     1.0000 0.77872  0.15394  0.63110  Biso   1.000  C
  H170     1.0000 0.76160  0.12430  0.64420  Biso   1.000  H
  C373     1.0000 0.74340  0.28830  0.52190  Biso   1.000  C
  C374     1.0000 0.75770  0.28260  0.63010  Biso   1.000  C
  O69      1.0000 0.22056  0.36326  0.90632  Biso   1.000  O
  O70      1.0000 0.23323  0.38845  0.80356  Biso   1.000  O
  C375     1.0000 0.24485  0.38827  0.86159  Biso   1.000  C
  C376     1.0000 0.29130  0.42014  0.87918  Biso   1.000  C
  C377     1.0000 0.32017  0.44806  0.83274  Biso   1.000  C
  H171     1.0000 0.31017  0.44773  0.78973  Biso   1.000  H
  C378     1.0000 0.36368  0.47658  0.84857  Biso   1.000  C
  H172     1.0000 0.38337  0.49543  0.81623  Biso   1.000  H
  C379     1.0000 0.37844  0.47770  0.91114  Biso   1.000  C
  C380     1.0000 0.34940  0.45022  0.95762  Biso   1.000  C
  H173     1.0000 0.35917  0.45093  0.00083  Biso   1.000  H
  C381     1.0000 0.30585  0.42140  0.94158  Biso   1.000  C
  H174     1.0000 0.28617  0.40263  0.97383  Biso   1.000  H
  C382     1.0000 0.42581  0.50567  0.92855  Biso   1.000  C
  C383     1.0000 0.44539  0.48727  0.96443  Biso   1.000  C
  H175     1.0000 0.42827  0.45763  0.97753  Biso   1.000  H
  C384     1.0000 0.41007  0.62163  0.85523  Biso   1.000  C
  C385     1.0000 0.42437  0.61593  0.96343  Biso   1.000  C
  O71      1.0000 0.88722  0.69660  0.23966  Biso   1.000  O
  O72      1.0000 0.89989  0.72179  0.13690  Biso   1.000  O
  C386     1.0000 0.91151  0.72161  0.19493  Biso   1.000  C
  C387     1.0000 0.95796  0.75348  0.21252  Biso   1.000  C
  C388     1.0000 0.98683  0.78140  0.16608  Biso   1.000  C
  H176     1.0000 0.97683  0.78107  0.12307  Biso   1.000  H
  C389     1.0000 0.03034  0.80992  0.18191  Biso   1.000  C
  H177     1.0000 0.05003  0.82877  0.14957  Biso   1.000  H
  C390     1.0000 0.04510  0.81104  0.24448  Biso   1.000  C
  C391     1.0000 0.01606  0.78356  0.29096  Biso   1.000  C
  H178     1.0000 0.02583  0.78427  0.33417  Biso   1.000  H
  C392     1.0000 0.97251  0.75474  0.27492  Biso   1.000  C
  H179     1.0000 0.95283  0.73597  0.30717  Biso   1.000  H
  C393     1.0000 0.09247  0.83901  0.26189  Biso   1.000  C
  C394     1.0000 0.11205  0.82061  0.29777  Biso   1.000  C
  H180     1.0000 0.09493  0.79097  0.31087  Biso   1.000  H
  C395     1.0000 0.07673  0.95497  0.18857  Biso   1.000  C
  C396     1.0000 0.09103  0.94927  0.29677  Biso   1.000  C
  Cu1      1.0000 0.49264  0.50736  0.56018  Biso   1.000  Cu
  Cu2      1.0000 0.15931  0.84069  0.89351  Biso   1.000  Cu
  Cu3      1.0000 0.82597  0.17403  0.22685  Biso   1.000  Cu
  Cu4      1.0000 0.49264  0.98528  0.56018  Biso   1.000  Cu
  Cu5      1.0000 0.15931  0.31861  0.89351  Biso   1.000  Cu
  Cu6      1.0000 0.82597  0.65195  0.22685  Biso   1.000  Cu
  Cu7      1.0000 0.01472  0.50736  0.56018  Biso   1.000  Cu
  Cu8      1.0000 0.68139  0.84069  0.89351  Biso   1.000  Cu
  Cu9      1.0000 0.34805  0.17403  0.22685  Biso   1.000  Cu
  Cu10     1.0000 0.50736  0.49264  0.43982  Biso   1.000  Cu
  Cu11     1.0000 0.17403  0.82597  0.77315  Biso   1.000  Cu
  Cu12     1.0000 0.84069  0.15931  0.10649  Biso   1.000  Cu
  Cu13     1.0000 0.98528  0.49264  0.43982  Biso   1.000  Cu
  Cu14     1.0000 0.65195  0.82597  0.77315  Biso   1.000  Cu
  Cu15     1.0000 0.31861  0.15931  0.10649  Biso   1.000  Cu
  Cu16     1.0000 0.50736  0.01472  0.43982  Biso   1.000  Cu
  Cu17     1.0000 0.17403  0.34805  0.77315  Biso   1.000  Cu
  Cu18     1.0000 0.84069  0.68139  0.10649  Biso   1.000  Cu
  O73      1.0000 0.76439  0.52878  0.54215  Biso   1.000  O
  C397     1.0000 0.82287  0.64574  0.64910  Biso   1.000  C
  C398     1.0000 0.78372  0.56745  0.57620  Biso   1.000  C
  C399     1.0000 0.74470  0.48940  0.57290  Biso   1.000  C
  O74      1.0000 0.43106  0.86211  0.87548  Biso   1.000  O
  C400     1.0000 0.48954  0.97907  0.98243  Biso   1.000  C
  C401     1.0000 0.45039  0.90078  0.90953  Biso   1.000  C
  C402     1.0000 0.41137  0.82273  0.90623  Biso   1.000  C
  O75      1.0000 0.09772  0.19545  0.20882  Biso   1.000  O
  C403     1.0000 0.15620  0.31241  0.31577  Biso   1.000  C
  C404     1.0000 0.11706  0.23412  0.24287  Biso   1.000  C
  C405     1.0000 0.07803  0.15607  0.23957  Biso   1.000  C
  O76      1.0000 0.47122  0.23561  0.54215  Biso   1.000  O
  C406     1.0000 0.35426  0.17713  0.64910  Biso   1.000  C
  C407     1.0000 0.43255  0.21628  0.57620  Biso   1.000  C
  C408     1.0000 0.51060  0.25530  0.57290  Biso   1.000  C
  O77      1.0000 0.13789  0.56894  0.87548  Biso   1.000  O
  C409     1.0000 0.02093  0.51046  0.98243  Biso   1.000  C
  C410     1.0000 0.09922  0.54961  0.90953  Biso   1.000  C
  C411     1.0000 0.17727  0.58863  0.90623  Biso   1.000  C
  O78      1.0000 0.80455  0.90228  0.20882  Biso   1.000  O
  C412     1.0000 0.68759  0.84380  0.31577  Biso   1.000  C
  C413     1.0000 0.76588  0.88294  0.24287  Biso   1.000  C
  C414     1.0000 0.84393  0.92197  0.23957  Biso   1.000  C
  O79      1.0000 0.76439  0.23561  0.54215  Biso   1.000  O
  C415     1.0000 0.82287  0.17713  0.64910  Biso   1.000  C
  C416     1.0000 0.78372  0.21628  0.57620  Biso   1.000  C
  C417     1.0000 0.74470  0.25530  0.57290  Biso   1.000  C
  O80      1.0000 0.43106  0.56894  0.87548  Biso   1.000  O
  C418     1.0000 0.48954  0.51046  0.98243  Biso   1.000  C
  C419     1.0000 0.45039  0.54961  0.90953  Biso   1.000  C
  C420     1.0000 0.41137  0.58863  0.90623  Biso   1.000  C
  O81      1.0000 0.09772  0.90228  0.20882  Biso   1.000  O
  C421     1.0000 0.15620  0.84380  0.31577  Biso   1.000  C
  C422     1.0000 0.11706  0.88294  0.24287  Biso   1.000  C
  C423     1.0000 0.07803  0.92197  0.23957  Biso   1.000  C
  O82      1.0000 0.52878  0.76439  0.45785  Biso   1.000  O
  C424     1.0000 0.64574  0.82287  0.35090  Biso   1.000  C
  C425     1.0000 0.56745  0.78372  0.42380  Biso   1.000  C
  C426     1.0000 0.48940  0.74470  0.42710  Biso   1.000  C
  O83      1.0000 0.19545  0.09772  0.79118  Biso   1.000  O
  C427     1.0000 0.31241  0.15620  0.68423  Biso   1.000  C
  C428     1.0000 0.23412  0.11706  0.75713  Biso   1.000  C
  C429     1.0000 0.15607  0.07803  0.76043  Biso   1.000  C
  O84      1.0000 0.86211  0.43106  0.12452  Biso   1.000  O
  C430     1.0000 0.97907  0.48954  0.01757  Biso   1.000  C
  C431     1.0000 0.90078  0.45039  0.09047  Biso   1.000  C
  C432     1.0000 0.82273  0.41137  0.09377  Biso   1.000  C
  O85      1.0000 0.23561  0.47122  0.45785  Biso   1.000  O
  C433     1.0000 0.17713  0.35426  0.35090  Biso   1.000  C
  C434     1.0000 0.21628  0.43255  0.42380  Biso   1.000  C
  C435     1.0000 0.25530  0.51060  0.42710  Biso   1.000  C
  O86      1.0000 0.90228  0.80455  0.79118  Biso   1.000  O
  C436     1.0000 0.84380  0.68759  0.68423  Biso   1.000  C
  C437     1.0000 0.88294  0.76588  0.75713  Biso   1.000  C
  C438     1.0000 0.92197  0.84393  0.76043  Biso   1.000  C
  O87      1.0000 0.56894  0.13789  0.12452  Biso   1.000  O
  C439     1.0000 0.51046  0.02093  0.01757  Biso   1.000  C
  C440     1.0000 0.54961  0.09922  0.09047  Biso   1.000  C
  C441     1.0000 0.58863  0.17727  0.09377  Biso   1.000  C
  O88      1.0000 0.23561  0.76439  0.45785  Biso   1.000  O
  C442     1.0000 0.17713  0.82287  0.35090  Biso   1.000  C
  C443     1.0000 0.21628  0.78372  0.42380  Biso   1.000  C
  C444     1.0000 0.25530  0.74470  0.42710  Biso   1.000  C
  O89      1.0000 0.90228  0.09772  0.79118  Biso   1.000  O
  C445     1.0000 0.84380  0.15620  0.68423  Biso   1.000  C
  C446     1.0000 0.88294  0.11706  0.75713  Biso   1.000  C
  C447     1.0000 0.92197  0.07803  0.76043  Biso   1.000  C
  O90      1.0000 0.56894  0.43106  0.12452  Biso   1.000  O
  C448     1.0000 0.51046  0.48954  0.01757  Biso   1.000  C
  C449     1.0000 0.54961  0.45039  0.09047  Biso   1.000  C
  C450     1.0000 0.58863  0.41137  0.09377  Biso   1.000  C
