data_image0
_cell_length_a       35.5735
_cell_length_b       35.5735
_cell_length_c       18.282
_cell_angle_alpha    90
_cell_angle_beta     90
_cell_angle_gamma    120

_symmetry_space_group_name_H-M    "P 1"
_symmetry_int_tables_number       1

loop_
  _symmetry_equiv_pos_as_xyz
  'x, y, z'

loop_
  _atom_site_label
  _atom_site_occupancy
  _atom_site_fract_x
  _atom_site_fract_y
  _atom_site_fract_z
  _atom_site_thermal_displace_type
  _atom_site_B_iso_or_equiv
  _atom_site_type_symbol
  O1       1.0000 0.47746  0.44556  0.57996  Biso   1.000  O
  O2       1.0000 0.48852  0.43413  0.46319  Biso   1.000  O
  C1       1.0000 0.47783  0.42225  0.52710  Biso   1.000  C
  C2       1.0000 0.46436  0.37618  0.54624  Biso   1.000  C
  C3       1.0000 0.46365  0.34819  0.49340  Biso   1.000  C
  H1       1.0000 0.47240  0.35820  0.44480  Biso   1.000  H
  C4       1.0000 0.44993  0.30468  0.51150  Biso   1.000  C
  H2       1.0000 0.45090  0.28600  0.47540  Biso   1.000  H
  C5       1.0000 0.43547  0.28927  0.57890  Biso   1.000  C
  C6       1.0000 0.43668  0.31751  0.63270  Biso   1.000  C
  H3       1.0000 0.42770  0.30740  0.68130  Biso   1.000  H
  C7       1.0000 0.45123  0.36073  0.61470  Biso   1.000  C
  H4       1.0000 0.45190  0.37990  0.65160  Biso   1.000  H
  C8       1.0000 0.41615  0.24204  0.59700  Biso   1.000  C
  C9       1.0000 0.37654  0.22145  0.63120  Biso   1.000  C
  H5       1.0000 0.36290  0.23780  0.64270  Biso   1.000  H
  C10      1.0000 0.55020  0.25580  0.53850  Biso   1.000  C
  C11      1.0000 0.52110  0.27880  0.64010  Biso   1.000  C
  O3       1.0000 0.14413  0.77889  0.91329  Biso   1.000  O
  O4       1.0000 0.15519  0.76746  0.79652  Biso   1.000  O
  C12      1.0000 0.14450  0.75558  0.86043  Biso   1.000  C
  C13      1.0000 0.13103  0.70951  0.87957  Biso   1.000  C
  C14      1.0000 0.13032  0.68152  0.82673  Biso   1.000  C
  H6       1.0000 0.13907  0.69153  0.77813  Biso   1.000  H
  C15      1.0000 0.11660  0.63801  0.84483  Biso   1.000  C
  H7       1.0000 0.11757  0.61933  0.80873  Biso   1.000  H
  C16      1.0000 0.10214  0.62260  0.91223  Biso   1.000  C
  C17      1.0000 0.10335  0.65084  0.96603  Biso   1.000  C
  H8       1.0000 0.09437  0.64073  0.01463  Biso   1.000  H
  C18      1.0000 0.11790  0.69406  0.94803  Biso   1.000  C
  H9       1.0000 0.11857  0.71323  0.98493  Biso   1.000  H
  C19      1.0000 0.08282  0.57537  0.93033  Biso   1.000  C
  C20      1.0000 0.04321  0.55478  0.96453  Biso   1.000  C
  H10      1.0000 0.02957  0.57113  0.97603  Biso   1.000  H
  C21      1.0000 0.21687  0.58913  0.87183  Biso   1.000  C
  C22      1.0000 0.18777  0.61213  0.97343  Biso   1.000  C
  O5       1.0000 0.81079  0.11223  0.24663  Biso   1.000  O
  O6       1.0000 0.82185  0.10080  0.12986  Biso   1.000  O
  C23      1.0000 0.81116  0.08892  0.19377  Biso   1.000  C
  C24      1.0000 0.79769  0.04285  0.21291  Biso   1.000  C
  C25      1.0000 0.79698  0.01486  0.16007  Biso   1.000  C
  H11      1.0000 0.80573  0.02487  0.11147  Biso   1.000  H
  C26      1.0000 0.78326  0.97135  0.17817  Biso   1.000  C
  H12      1.0000 0.78423  0.95267  0.14207  Biso   1.000  H
  C27      1.0000 0.76880  0.95594  0.24557  Biso   1.000  C
  C28      1.0000 0.77001  0.98418  0.29937  Biso   1.000  C
  H13      1.0000 0.76103  0.97407  0.34797  Biso   1.000  H
  C29      1.0000 0.78456  0.02740  0.28137  Biso   1.000  C
  H14      1.0000 0.78523  0.04657  0.31827  Biso   1.000  H
  C30      1.0000 0.74948  0.90871  0.26367  Biso   1.000  C
  C31      1.0000 0.70987  0.88812  0.29787  Biso   1.000  C
  H15      1.0000 0.69623  0.90447  0.30937  Biso   1.000  H
  C32      1.0000 0.88353  0.92247  0.20517  Biso   1.000  C
  C33      1.0000 0.85443  0.94547  0.30677  Biso   1.000  C
  O7       1.0000 0.55444  0.03190  0.57996  Biso   1.000  O
  O8       1.0000 0.56587  0.05439  0.46319  Biso   1.000  O
  C34      1.0000 0.57775  0.05558  0.52710  Biso   1.000  C
  C35      1.0000 0.62382  0.08818  0.54624  Biso   1.000  C
  C36      1.0000 0.65181  0.11546  0.49340  Biso   1.000  C
  H16      1.0000 0.64180  0.11420  0.44480  Biso   1.000  H
  C37      1.0000 0.69532  0.14525  0.51150  Biso   1.000  C
  H17      1.0000 0.71400  0.16490  0.47540  Biso   1.000  H
  C38      1.0000 0.71073  0.14620  0.57890  Biso   1.000  C
  C39      1.0000 0.68249  0.11917  0.63270  Biso   1.000  C
  H18      1.0000 0.69260  0.12030  0.68130  Biso   1.000  H
  C40      1.0000 0.63927  0.09050  0.61470  Biso   1.000  C
  H19      1.0000 0.62010  0.07200  0.65160  Biso   1.000  H
  C41      1.0000 0.75796  0.17411  0.59700  Biso   1.000  C
  C42      1.0000 0.77855  0.15509  0.63120  Biso   1.000  C
  H20      1.0000 0.76220  0.12510  0.64270  Biso   1.000  H
  C43      1.0000 0.74420  0.29440  0.53850  Biso   1.000  C
  C44      1.0000 0.72120  0.24230  0.64010  Biso   1.000  C
  O9       1.0000 0.22111  0.36523  0.91329  Biso   1.000  O
  O10      1.0000 0.23254  0.38772  0.79652  Biso   1.000  O
  C45      1.0000 0.24442  0.38891  0.86043  Biso   1.000  C
  C46      1.0000 0.29049  0.42151  0.87957  Biso   1.000  C
  C47      1.0000 0.31848  0.44879  0.82673  Biso   1.000  C
  H21      1.0000 0.30847  0.44753  0.77813  Biso   1.000  H
  C48      1.0000 0.36199  0.47858  0.84483  Biso   1.000  C
  H22      1.0000 0.38067  0.49823  0.80873  Biso   1.000  H
  C49      1.0000 0.37740  0.47953  0.91223  Biso   1.000  C
  C50      1.0000 0.34916  0.45250  0.96603  Biso   1.000  C
  H23      1.0000 0.35927  0.45363  0.01463  Biso   1.000  H
  C51      1.0000 0.30594  0.42383  0.94803  Biso   1.000  C
  H24      1.0000 0.28677  0.40533  0.98493  Biso   1.000  H
  C52      1.0000 0.42463  0.50744  0.93033  Biso   1.000  C
  C53      1.0000 0.44522  0.48842  0.96453  Biso   1.000  C
  H25      1.0000 0.42887  0.45843  0.97603  Biso   1.000  H
  C54      1.0000 0.41087  0.62773  0.87183  Biso   1.000  C
  C55      1.0000 0.38787  0.57563  0.97343  Biso   1.000  C
  O11      1.0000 0.88777  0.69857  0.24663  Biso   1.000  O
  O12      1.0000 0.89920  0.72106  0.12986  Biso   1.000  O
  C56      1.0000 0.91108  0.72225  0.19377  Biso   1.000  C
  C57      1.0000 0.95715  0.75485  0.21291  Biso   1.000  C
  C58      1.0000 0.98514  0.78213  0.16007  Biso   1.000  C
  H26      1.0000 0.97513  0.78087  0.11147  Biso   1.000  H
  C59      1.0000 0.02865  0.81192  0.17817  Biso   1.000  C
  H27      1.0000 0.04733  0.83157  0.14207  Biso   1.000  H
  C60      1.0000 0.04406  0.81287  0.24557  Biso   1.000  C
  C61      1.0000 0.01582  0.78584  0.29937  Biso   1.000  C
  H28      1.0000 0.02593  0.78697  0.34797  Biso   1.000  H
  C62      1.0000 0.97260  0.75717  0.28137  Biso   1.000  C
  H29      1.0000 0.95343  0.73867  0.31827  Biso   1.000  H
  C63      1.0000 0.09129  0.84078  0.26367  Biso   1.000  C
  C64      1.0000 0.11188  0.82176  0.29787  Biso   1.000  C
  H30      1.0000 0.09553  0.79177  0.30937  Biso   1.000  H
  C65      1.0000 0.07753  0.96107  0.20517  Biso   1.000  C
  C66      1.0000 0.05453  0.90897  0.30677  Biso   1.000  C
  O13      1.0000 0.96810  0.52254  0.57996  Biso   1.000  O
  O14      1.0000 0.94561  0.51148  0.46319  Biso   1.000  O
  C67      1.0000 0.94442  0.52217  0.52710  Biso   1.000  C
  C68      1.0000 0.91182  0.53564  0.54624  Biso   1.000  C
  C69      1.0000 0.88454  0.53635  0.49340  Biso   1.000  C
  H31      1.0000 0.88580  0.52760  0.44480  Biso   1.000  H
  C70      1.0000 0.85475  0.55007  0.51150  Biso   1.000  C
  H32      1.0000 0.83510  0.54910  0.47540  Biso   1.000  H
  C71      1.0000 0.85380  0.56453  0.57890  Biso   1.000  C
  C72      1.0000 0.88083  0.56332  0.63270  Biso   1.000  C
  H33      1.0000 0.87970  0.57230  0.68130  Biso   1.000  H
  C73      1.0000 0.90950  0.54877  0.61470  Biso   1.000  C
  H34      1.0000 0.92800  0.54810  0.65160  Biso   1.000  H
  C74      1.0000 0.82589  0.58385  0.59700  Biso   1.000  C
  C75      1.0000 0.84491  0.62346  0.63120  Biso   1.000  C
  H35      1.0000 0.87490  0.63710  0.64270  Biso   1.000  H
  C76      1.0000 0.70560  0.44980  0.53850  Biso   1.000  C
  C77      1.0000 0.75770  0.47890  0.64010  Biso   1.000  C
  O15      1.0000 0.63477  0.85587  0.91329  Biso   1.000  O
  O16      1.0000 0.61228  0.84481  0.79652  Biso   1.000  O
  C78      1.0000 0.61109  0.85550  0.86043  Biso   1.000  C
  C79      1.0000 0.57849  0.86897  0.87957  Biso   1.000  C
  C80      1.0000 0.55121  0.86968  0.82673  Biso   1.000  C
  H36      1.0000 0.55247  0.86093  0.77813  Biso   1.000  H
  C81      1.0000 0.52142  0.88340  0.84483  Biso   1.000  C
  H37      1.0000 0.50177  0.88243  0.80873  Biso   1.000  H
  C82      1.0000 0.52047  0.89786  0.91223  Biso   1.000  C
  C83      1.0000 0.54750  0.89665  0.96603  Biso   1.000  C
  H38      1.0000 0.54637  0.90563  0.01463  Biso   1.000  H
  C84      1.0000 0.57617  0.88210  0.94803  Biso   1.000  C
  H39      1.0000 0.59467  0.88143  0.98493  Biso   1.000  H
  C85      1.0000 0.49256  0.91718  0.93033  Biso   1.000  C
  C86      1.0000 0.51158  0.95679  0.96453  Biso   1.000  C
  H40      1.0000 0.54157  0.97043  0.97603  Biso   1.000  H
  C87      1.0000 0.37227  0.78313  0.87183  Biso   1.000  C
  C88      1.0000 0.42437  0.81223  0.97343  Biso   1.000  C
  O17      1.0000 0.30143  0.18921  0.24663  Biso   1.000  O
  O18      1.0000 0.27894  0.17815  0.12986  Biso   1.000  O
  C89      1.0000 0.27775  0.18884  0.19377  Biso   1.000  C
  C90      1.0000 0.24515  0.20231  0.21291  Biso   1.000  C
  C91      1.0000 0.21787  0.20302  0.16007  Biso   1.000  C
  H41      1.0000 0.21913  0.19427  0.11147  Biso   1.000  H
  C92      1.0000 0.18808  0.21674  0.17817  Biso   1.000  C
  H42      1.0000 0.16843  0.21577  0.14207  Biso   1.000  H
  C93      1.0000 0.18713  0.23120  0.24557  Biso   1.000  C
  C94      1.0000 0.21416  0.22999  0.29937  Biso   1.000  C
  H43      1.0000 0.21303  0.23897  0.34797  Biso   1.000  H
  C95      1.0000 0.24283  0.21544  0.28137  Biso   1.000  C
  H44      1.0000 0.26133  0.21477  0.31827  Biso   1.000  H
  C96      1.0000 0.15922  0.25052  0.26367  Biso   1.000  C
  C97      1.0000 0.17824  0.29013  0.29787  Biso   1.000  C
  H45      1.0000 0.20823  0.30377  0.30937  Biso   1.000  H
  C98      1.0000 0.03893  0.11647  0.20517  Biso   1.000  C
  C99      1.0000 0.09103  0.14557  0.30677  Biso   1.000  C
  O19      1.0000 0.44556  0.47746  0.42004  Biso   1.000  O
  O20      1.0000 0.43413  0.48852  0.53681  Biso   1.000  O
  C100     1.0000 0.42225  0.47783  0.47290  Biso   1.000  C
  C101     1.0000 0.37618  0.46436  0.45376  Biso   1.000  C
  C102     1.0000 0.34819  0.46365  0.50660  Biso   1.000  C
  H46      1.0000 0.35820  0.47240  0.55520  Biso   1.000  H
  C103     1.0000 0.30468  0.44993  0.48850  Biso   1.000  C
  H47      1.0000 0.28600  0.45090  0.52460  Biso   1.000  H
  C104     1.0000 0.28927  0.43547  0.42110  Biso   1.000  C
  C105     1.0000 0.31751  0.43668  0.36730  Biso   1.000  C
  H48      1.0000 0.30740  0.42770  0.31870  Biso   1.000  H
  C106     1.0000 0.36073  0.45123  0.38530  Biso   1.000  C
  H49      1.0000 0.37990  0.45190  0.34840  Biso   1.000  H
  C107     1.0000 0.24204  0.41615  0.40300  Biso   1.000  C
  C108     1.0000 0.22145  0.37654  0.36880  Biso   1.000  C
  H50      1.0000 0.23780  0.36290  0.35730  Biso   1.000  H
  C109     1.0000 0.25580  0.55020  0.46150  Biso   1.000  C
  C110     1.0000 0.27880  0.52110  0.35990  Biso   1.000  C
  O21      1.0000 0.11223  0.81079  0.75337  Biso   1.000  O
  O22      1.0000 0.10080  0.82185  0.87014  Biso   1.000  O
  C111     1.0000 0.08892  0.81116  0.80623  Biso   1.000  C
  C112     1.0000 0.04285  0.79769  0.78709  Biso   1.000  C
  C113     1.0000 0.01486  0.79698  0.83993  Biso   1.000  C
  H51      1.0000 0.02487  0.80573  0.88853  Biso   1.000  H
  C114     1.0000 0.97135  0.78326  0.82183  Biso   1.000  C
  H52      1.0000 0.95267  0.78423  0.85793  Biso   1.000  H
  C115     1.0000 0.95594  0.76880  0.75443  Biso   1.000  C
  C116     1.0000 0.98418  0.77001  0.70063  Biso   1.000  C
  H53      1.0000 0.97407  0.76103  0.65203  Biso   1.000  H
  C117     1.0000 0.02740  0.78456  0.71863  Biso   1.000  C
  H54      1.0000 0.04657  0.78523  0.68173  Biso   1.000  H
  C118     1.0000 0.90871  0.74948  0.73633  Biso   1.000  C
  C119     1.0000 0.88812  0.70987  0.70213  Biso   1.000  C
  H55      1.0000 0.90447  0.69623  0.69063  Biso   1.000  H
  C120     1.0000 0.92247  0.88353  0.79483  Biso   1.000  C
  C121     1.0000 0.94547  0.85443  0.69323  Biso   1.000  C
  O23      1.0000 0.77889  0.14413  0.08671  Biso   1.000  O
  O24      1.0000 0.76746  0.15519  0.20348  Biso   1.000  O
  C122     1.0000 0.75558  0.14450  0.13957  Biso   1.000  C
  C123     1.0000 0.70951  0.13103  0.12043  Biso   1.000  C
  C124     1.0000 0.68152  0.13032  0.17327  Biso   1.000  C
  H56      1.0000 0.69153  0.13907  0.22187  Biso   1.000  H
  C125     1.0000 0.63801  0.11660  0.15517  Biso   1.000  C
  H57      1.0000 0.61933  0.11757  0.19127  Biso   1.000  H
  C126     1.0000 0.62260  0.10214  0.08777  Biso   1.000  C
  C127     1.0000 0.65084  0.10335  0.03397  Biso   1.000  C
  H58      1.0000 0.64073  0.09437  0.98537  Biso   1.000  H
  C128     1.0000 0.69406  0.11790  0.05197  Biso   1.000  C
  H59      1.0000 0.71323  0.11857  0.01507  Biso   1.000  H
  C129     1.0000 0.57537  0.08282  0.06967  Biso   1.000  C
  C130     1.0000 0.55478  0.04321  0.03547  Biso   1.000  C
  H60      1.0000 0.57113  0.02957  0.02397  Biso   1.000  H
  C131     1.0000 0.58913  0.21687  0.12817  Biso   1.000  C
  C132     1.0000 0.61213  0.18777  0.02657  Biso   1.000  C
  O25      1.0000 0.03190  0.55444  0.42004  Biso   1.000  O
  O26      1.0000 0.05439  0.56587  0.53681  Biso   1.000  O
  C133     1.0000 0.05558  0.57775  0.47290  Biso   1.000  C
  C134     1.0000 0.08818  0.62382  0.45376  Biso   1.000  C
  C135     1.0000 0.11546  0.65181  0.50660  Biso   1.000  C
  H61      1.0000 0.11420  0.64180  0.55520  Biso   1.000  H
  C136     1.0000 0.14525  0.69532  0.48850  Biso   1.000  C
  H62      1.0000 0.16490  0.71400  0.52460  Biso   1.000  H
  C137     1.0000 0.14620  0.71073  0.42110  Biso   1.000  C
  C138     1.0000 0.11917  0.68249  0.36730  Biso   1.000  C
  H63      1.0000 0.12030  0.69260  0.31870  Biso   1.000  H
  C139     1.0000 0.09050  0.63927  0.38530  Biso   1.000  C
  H64      1.0000 0.07200  0.62010  0.34840  Biso   1.000  H
  C140     1.0000 0.17411  0.75796  0.40300  Biso   1.000  C
  C141     1.0000 0.15509  0.77855  0.36880  Biso   1.000  C
  H65      1.0000 0.12510  0.76220  0.35730  Biso   1.000  H
  C142     1.0000 0.29440  0.74420  0.46150  Biso   1.000  C
  C143     1.0000 0.24230  0.72120  0.35990  Biso   1.000  C
  O27      1.0000 0.69857  0.88777  0.75337  Biso   1.000  O
  O28      1.0000 0.72106  0.89920  0.87014  Biso   1.000  O
  C144     1.0000 0.72225  0.91108  0.80623  Biso   1.000  C
  C145     1.0000 0.75485  0.95715  0.78709  Biso   1.000  C
  C146     1.0000 0.78213  0.98514  0.83993  Biso   1.000  C
  H66      1.0000 0.78087  0.97513  0.88853  Biso   1.000  H
  C147     1.0000 0.81192  0.02865  0.82183  Biso   1.000  C
  H67      1.0000 0.83157  0.04733  0.85793  Biso   1.000  H
  C148     1.0000 0.81287  0.04406  0.75443  Biso   1.000  C
  C149     1.0000 0.78584  0.01582  0.70063  Biso   1.000  C
  H68      1.0000 0.78697  0.02593  0.65203  Biso   1.000  H
  C150     1.0000 0.75717  0.97260  0.71863  Biso   1.000  C
  H69      1.0000 0.73867  0.95343  0.68173  Biso   1.000  H
  C151     1.0000 0.84078  0.09129  0.73633  Biso   1.000  C
  C152     1.0000 0.82176  0.11188  0.70213  Biso   1.000  C
  H70      1.0000 0.79177  0.09553  0.69063  Biso   1.000  H
  C153     1.0000 0.96107  0.07753  0.79483  Biso   1.000  C
  C154     1.0000 0.90897  0.05453  0.69323  Biso   1.000  C
  O29      1.0000 0.36523  0.22111  0.08671  Biso   1.000  O
  O30      1.0000 0.38772  0.23254  0.20348  Biso   1.000  O
  C155     1.0000 0.38891  0.24442  0.13957  Biso   1.000  C
  C156     1.0000 0.42151  0.29049  0.12043  Biso   1.000  C
  C157     1.0000 0.44879  0.31848  0.17327  Biso   1.000  C
  H71      1.0000 0.44753  0.30847  0.22187  Biso   1.000  H
  C158     1.0000 0.47858  0.36199  0.15517  Biso   1.000  C
  H72      1.0000 0.49823  0.38067  0.19127  Biso   1.000  H
  C159     1.0000 0.47953  0.37740  0.08777  Biso   1.000  C
  C160     1.0000 0.45250  0.34916  0.03397  Biso   1.000  C
  H73      1.0000 0.45363  0.35927  0.98537  Biso   1.000  H
  C161     1.0000 0.42383  0.30594  0.05197  Biso   1.000  C
  H74      1.0000 0.40533  0.28677  0.01507  Biso   1.000  H
  C162     1.0000 0.50744  0.42463  0.06967  Biso   1.000  C
  C163     1.0000 0.48842  0.44522  0.03547  Biso   1.000  C
  H75      1.0000 0.45843  0.42887  0.02397  Biso   1.000  H
  C164     1.0000 0.62773  0.41087  0.12817  Biso   1.000  C
  C165     1.0000 0.57563  0.38787  0.02657  Biso   1.000  C
  O31      1.0000 0.52254  0.96810  0.42004  Biso   1.000  O
  O32      1.0000 0.51148  0.94561  0.53681  Biso   1.000  O
  C166     1.0000 0.52217  0.94442  0.47290  Biso   1.000  C
  C167     1.0000 0.53564  0.91182  0.45376  Biso   1.000  C
  C168     1.0000 0.53635  0.88454  0.50660  Biso   1.000  C
  H76      1.0000 0.52760  0.88580  0.55520  Biso   1.000  H
  C169     1.0000 0.55007  0.85475  0.48850  Biso   1.000  C
  H77      1.0000 0.54910  0.83510  0.52460  Biso   1.000  H
  C170     1.0000 0.56453  0.85380  0.42110  Biso   1.000  C
  C171     1.0000 0.56332  0.88083  0.36730  Biso   1.000  C
  H78      1.0000 0.57230  0.87970  0.31870  Biso   1.000  H
  C172     1.0000 0.54877  0.90950  0.38530  Biso   1.000  C
  H79      1.0000 0.54810  0.92800  0.34840  Biso   1.000  H
  C173     1.0000 0.58385  0.82589  0.40300  Biso   1.000  C
  C174     1.0000 0.62346  0.84491  0.36880  Biso   1.000  C
  H80      1.0000 0.63710  0.87490  0.35730  Biso   1.000  H
  C175     1.0000 0.44980  0.70560  0.46150  Biso   1.000  C
  C176     1.0000 0.47890  0.75770  0.35990  Biso   1.000  C
  O33      1.0000 0.18921  0.30143  0.75337  Biso   1.000  O
  O34      1.0000 0.17815  0.27894  0.87014  Biso   1.000  O
  C177     1.0000 0.18884  0.27775  0.80623  Biso   1.000  C
  C178     1.0000 0.20231  0.24515  0.78709  Biso   1.000  C
  C179     1.0000 0.20302  0.21787  0.83993  Biso   1.000  C
  H81      1.0000 0.19427  0.21913  0.88853  Biso   1.000  H
  C180     1.0000 0.21674  0.18808  0.82183  Biso   1.000  C
  H82      1.0000 0.21577  0.16843  0.85793  Biso   1.000  H
  C181     1.0000 0.23120  0.18713  0.75443  Biso   1.000  C
  C182     1.0000 0.22999  0.21416  0.70063  Biso   1.000  C
  H83      1.0000 0.23897  0.21303  0.65203  Biso   1.000  H
  C183     1.0000 0.21544  0.24283  0.71863  Biso   1.000  C
  H84      1.0000 0.21477  0.26133  0.68173  Biso   1.000  H
  C184     1.0000 0.25052  0.15922  0.73633  Biso   1.000  C
  C185     1.0000 0.29013  0.17824  0.70213  Biso   1.000  C
  H85      1.0000 0.30377  0.20823  0.69063  Biso   1.000  H
  C186     1.0000 0.11647  0.03893  0.79483  Biso   1.000  C
  C187     1.0000 0.14557  0.09103  0.69323  Biso   1.000  C
  O35      1.0000 0.85587  0.63477  0.08671  Biso   1.000  O
  O36      1.0000 0.84481  0.61228  0.20348  Biso   1.000  O
  C188     1.0000 0.85550  0.61109  0.13957  Biso   1.000  C
  C189     1.0000 0.86897  0.57849  0.12043  Biso   1.000  C
  C190     1.0000 0.86968  0.55121  0.17327  Biso   1.000  C
  H86      1.0000 0.86093  0.55247  0.22187  Biso   1.000  H
  C191     1.0000 0.88340  0.52142  0.15517  Biso   1.000  C
  H87      1.0000 0.88243  0.50177  0.19127  Biso   1.000  H
  C192     1.0000 0.89786  0.52047  0.08777  Biso   1.000  C
  C193     1.0000 0.89665  0.54750  0.03397  Biso   1.000  C
  H88      1.0000 0.90563  0.54637  0.98537  Biso   1.000  H
  C194     1.0000 0.88210  0.57617  0.05197  Biso   1.000  C
  H89      1.0000 0.88143  0.59467  0.01507  Biso   1.000  H
  C195     1.0000 0.91718  0.49256  0.06967  Biso   1.000  C
  C196     1.0000 0.95679  0.51158  0.03547  Biso   1.000  C
  H90      1.0000 0.97043  0.54157  0.02397  Biso   1.000  H
  C197     1.0000 0.78313  0.37227  0.12817  Biso   1.000  C
  C198     1.0000 0.81223  0.42437  0.02657  Biso   1.000  C
  O37      1.0000 0.52254  0.55444  0.42004  Biso   1.000  O
  O38      1.0000 0.51148  0.56587  0.53681  Biso   1.000  O
  C199     1.0000 0.52217  0.57775  0.47290  Biso   1.000  C
  C200     1.0000 0.53564  0.62382  0.45376  Biso   1.000  C
  C201     1.0000 0.53635  0.65181  0.50660  Biso   1.000  C
  H91      1.0000 0.52760  0.64180  0.55520  Biso   1.000  H
  C202     1.0000 0.55007  0.69532  0.48850  Biso   1.000  C
  H92      1.0000 0.54910  0.71400  0.52460  Biso   1.000  H
  C203     1.0000 0.56453  0.71073  0.42110  Biso   1.000  C
  C204     1.0000 0.56332  0.68249  0.36730  Biso   1.000  C
  H93      1.0000 0.57230  0.69260  0.31870  Biso   1.000  H
  C205     1.0000 0.54877  0.63927  0.38530  Biso   1.000  C
  H94      1.0000 0.54810  0.62010  0.34840  Biso   1.000  H
  C206     1.0000 0.58385  0.75796  0.40300  Biso   1.000  C
  C207     1.0000 0.62346  0.77855  0.36880  Biso   1.000  C
  H95      1.0000 0.63710  0.76220  0.35730  Biso   1.000  H
  C208     1.0000 0.44980  0.74420  0.46150  Biso   1.000  C
  C209     1.0000 0.47890  0.72120  0.35990  Biso   1.000  C
  O39      1.0000 0.18921  0.88777  0.75337  Biso   1.000  O
  O40      1.0000 0.17815  0.89920  0.87014  Biso   1.000  O
  C210     1.0000 0.18884  0.91108  0.80623  Biso   1.000  C
  C211     1.0000 0.20231  0.95715  0.78709  Biso   1.000  C
  C212     1.0000 0.20302  0.98514  0.83993  Biso   1.000  C
  H96      1.0000 0.19427  0.97513  0.88853  Biso   1.000  H
  C213     1.0000 0.21674  0.02865  0.82183  Biso   1.000  C
  H97      1.0000 0.21577  0.04733  0.85793  Biso   1.000  H
  C214     1.0000 0.23120  0.04406  0.75443  Biso   1.000  C
  C215     1.0000 0.22999  0.01582  0.70063  Biso   1.000  C
  H98      1.0000 0.23897  0.02593  0.65203  Biso   1.000  H
  C216     1.0000 0.21544  0.97260  0.71863  Biso   1.000  C
  H99      1.0000 0.21477  0.95343  0.68173  Biso   1.000  H
  C217     1.0000 0.25052  0.09129  0.73633  Biso   1.000  C
  C218     1.0000 0.29013  0.11188  0.70213  Biso   1.000  C
  H100     1.0000 0.30377  0.09553  0.69063  Biso   1.000  H
  C219     1.0000 0.11647  0.07753  0.79483  Biso   1.000  C
  C220     1.0000 0.14557  0.05453  0.69323  Biso   1.000  C
  O41      1.0000 0.85587  0.22111  0.08671  Biso   1.000  O
  O42      1.0000 0.84481  0.23254  0.20348  Biso   1.000  O
  C221     1.0000 0.85550  0.24442  0.13957  Biso   1.000  C
  C222     1.0000 0.86897  0.29049  0.12043  Biso   1.000  C
  C223     1.0000 0.86968  0.31848  0.17327  Biso   1.000  C
  H101     1.0000 0.86093  0.30847  0.22187  Biso   1.000  H
  C224     1.0000 0.88340  0.36199  0.15517  Biso   1.000  C
  H102     1.0000 0.88243  0.38067  0.19127  Biso   1.000  H
  C225     1.0000 0.89786  0.37740  0.08777  Biso   1.000  C
  C226     1.0000 0.89665  0.34916  0.03397  Biso   1.000  C
  H103     1.0000 0.90563  0.35927  0.98537  Biso   1.000  H
  C227     1.0000 0.88210  0.30594  0.05197  Biso   1.000  C
  H104     1.0000 0.88143  0.28677  0.01507  Biso   1.000  H
  C228     1.0000 0.91718  0.42463  0.06967  Biso   1.000  C
  C229     1.0000 0.95679  0.44522  0.03547  Biso   1.000  C
  H105     1.0000 0.97043  0.42887  0.02397  Biso   1.000  H
  C230     1.0000 0.78313  0.41087  0.12817  Biso   1.000  C
  C231     1.0000 0.81223  0.38787  0.02657  Biso   1.000  C
  O43      1.0000 0.44556  0.96810  0.42004  Biso   1.000  O
  O44      1.0000 0.43413  0.94561  0.53681  Biso   1.000  O
  C232     1.0000 0.42225  0.94442  0.47290  Biso   1.000  C
  C233     1.0000 0.37618  0.91182  0.45376  Biso   1.000  C
  C234     1.0000 0.34819  0.88454  0.50660  Biso   1.000  C
  H106     1.0000 0.35820  0.88580  0.55520  Biso   1.000  H
  C235     1.0000 0.30468  0.85475  0.48850  Biso   1.000  C
  H107     1.0000 0.28600  0.83510  0.52460  Biso   1.000  H
  C236     1.0000 0.28927  0.85380  0.42110  Biso   1.000  C
  C237     1.0000 0.31751  0.88083  0.36730  Biso   1.000  C
  H108     1.0000 0.30740  0.87970  0.31870  Biso   1.000  H
  C238     1.0000 0.36073  0.90950  0.38530  Biso   1.000  C
  H109     1.0000 0.37990  0.92800  0.34840  Biso   1.000  H
  C239     1.0000 0.24204  0.82589  0.40300  Biso   1.000  C
  C240     1.0000 0.22145  0.84491  0.36880  Biso   1.000  C
  H110     1.0000 0.23780  0.87490  0.35730  Biso   1.000  H
  C241     1.0000 0.25580  0.70560  0.46150  Biso   1.000  C
  C242     1.0000 0.27880  0.75770  0.35990  Biso   1.000  C
  O45      1.0000 0.11223  0.30143  0.75337  Biso   1.000  O
  O46      1.0000 0.10080  0.27894  0.87014  Biso   1.000  O
  C243     1.0000 0.08892  0.27775  0.80623  Biso   1.000  C
  C244     1.0000 0.04285  0.24515  0.78709  Biso   1.000  C
  C245     1.0000 0.01486  0.21787  0.83993  Biso   1.000  C
  H111     1.0000 0.02487  0.21913  0.88853  Biso   1.000  H
  C246     1.0000 0.97135  0.18808  0.82183  Biso   1.000  C
  H112     1.0000 0.95267  0.16843  0.85793  Biso   1.000  H
  C247     1.0000 0.95594  0.18713  0.75443  Biso   1.000  C
  C248     1.0000 0.98418  0.21416  0.70063  Biso   1.000  C
  H113     1.0000 0.97407  0.21303  0.65203  Biso   1.000  H
  C249     1.0000 0.02740  0.24283  0.71863  Biso   1.000  C
  H114     1.0000 0.04657  0.26133  0.68173  Biso   1.000  H
  C250     1.0000 0.90871  0.15922  0.73633  Biso   1.000  C
  C251     1.0000 0.88812  0.17824  0.70213  Biso   1.000  C
  H115     1.0000 0.90447  0.20823  0.69063  Biso   1.000  H
  C252     1.0000 0.92247  0.03893  0.79483  Biso   1.000  C
  C253     1.0000 0.94547  0.09103  0.69323  Biso   1.000  C
  O47      1.0000 0.77889  0.63477  0.08671  Biso   1.000  O
  O48      1.0000 0.76746  0.61228  0.20348  Biso   1.000  O
  C254     1.0000 0.75558  0.61109  0.13957  Biso   1.000  C
  C255     1.0000 0.70951  0.57849  0.12043  Biso   1.000  C
  C256     1.0000 0.68152  0.55121  0.17327  Biso   1.000  C
  H116     1.0000 0.69153  0.55247  0.22187  Biso   1.000  H
  C257     1.0000 0.63801  0.52142  0.15517  Biso   1.000  C
  H117     1.0000 0.61933  0.50177  0.19127  Biso   1.000  H
  C258     1.0000 0.62260  0.52047  0.08777  Biso   1.000  C
  C259     1.0000 0.65084  0.54750  0.03397  Biso   1.000  C
  H118     1.0000 0.64073  0.54637  0.98537  Biso   1.000  H
  C260     1.0000 0.69406  0.57617  0.05197  Biso   1.000  C
  H119     1.0000 0.71323  0.59467  0.01507  Biso   1.000  H
  C261     1.0000 0.57537  0.49256  0.06967  Biso   1.000  C
  C262     1.0000 0.55478  0.51158  0.03547  Biso   1.000  C
  H120     1.0000 0.57113  0.54157  0.02397  Biso   1.000  H
  C263     1.0000 0.58913  0.37227  0.12817  Biso   1.000  C
  C264     1.0000 0.61213  0.42437  0.02657  Biso   1.000  C
  O49      1.0000 0.03190  0.47746  0.42004  Biso   1.000  O
  O50      1.0000 0.05439  0.48852  0.53681  Biso   1.000  O
  C265     1.0000 0.05558  0.47783  0.47290  Biso   1.000  C
  C266     1.0000 0.08818  0.46436  0.45376  Biso   1.000  C
  C267     1.0000 0.11546  0.46365  0.50660  Biso   1.000  C
  H121     1.0000 0.11420  0.47240  0.55520  Biso   1.000  H
  C268     1.0000 0.14525  0.44993  0.48850  Biso   1.000  C
  H122     1.0000 0.16490  0.45090  0.52460  Biso   1.000  H
  C269     1.0000 0.14620  0.43547  0.42110  Biso   1.000  C
  C270     1.0000 0.11917  0.43668  0.36730  Biso   1.000  C
  H123     1.0000 0.12030  0.42770  0.31870  Biso   1.000  H
  C271     1.0000 0.09050  0.45123  0.38530  Biso   1.000  C
  H124     1.0000 0.07200  0.45190  0.34840  Biso   1.000  H
  C272     1.0000 0.17411  0.41615  0.40300  Biso   1.000  C
  C273     1.0000 0.15509  0.37654  0.36880  Biso   1.000  C
  H125     1.0000 0.12510  0.36290  0.35730  Biso   1.000  H
  C274     1.0000 0.29440  0.55020  0.46150  Biso   1.000  C
  C275     1.0000 0.24230  0.52110  0.35990  Biso   1.000  C
  O51      1.0000 0.69857  0.81079  0.75337  Biso   1.000  O
  O52      1.0000 0.72106  0.82185  0.87014  Biso   1.000  O
  C276     1.0000 0.72225  0.81116  0.80623  Biso   1.000  C
  C277     1.0000 0.75485  0.79769  0.78709  Biso   1.000  C
  C278     1.0000 0.78213  0.79698  0.83993  Biso   1.000  C
  H126     1.0000 0.78087  0.80573  0.88853  Biso   1.000  H
  C279     1.0000 0.81192  0.78326  0.82183  Biso   1.000  C
  H127     1.0000 0.83157  0.78423  0.85793  Biso   1.000  H
  C280     1.0000 0.81287  0.76880  0.75443  Biso   1.000  C
  C281     1.0000 0.78584  0.77001  0.70063  Biso   1.000  C
  H128     1.0000 0.78697  0.76103  0.65203  Biso   1.000  H
  C282     1.0000 0.75717  0.78456  0.71863  Biso   1.000  C
  H129     1.0000 0.73867  0.78523  0.68173  Biso   1.000  H
  C283     1.0000 0.84078  0.74948  0.73633  Biso   1.000  C
  C284     1.0000 0.82176  0.70987  0.70213  Biso   1.000  C
  H130     1.0000 0.79177  0.69623  0.69063  Biso   1.000  H
  C285     1.0000 0.96107  0.88353  0.79483  Biso   1.000  C
  C286     1.0000 0.90897  0.85443  0.69323  Biso   1.000  C
  O53      1.0000 0.36523  0.14413  0.08671  Biso   1.000  O
  O54      1.0000 0.38772  0.15519  0.20348  Biso   1.000  O
  C287     1.0000 0.38891  0.14450  0.13957  Biso   1.000  C
  C288     1.0000 0.42151  0.13103  0.12043  Biso   1.000  C
  C289     1.0000 0.44879  0.13032  0.17327  Biso   1.000  C
  H131     1.0000 0.44753  0.13907  0.22187  Biso   1.000  H
  C290     1.0000 0.47858  0.11660  0.15517  Biso   1.000  C
  H132     1.0000 0.49823  0.11757  0.19127  Biso   1.000  H
  C291     1.0000 0.47953  0.10214  0.08777  Biso   1.000  C
  C292     1.0000 0.45250  0.10335  0.03397  Biso   1.000  C
  H133     1.0000 0.45363  0.09437  0.98537  Biso   1.000  H
  C293     1.0000 0.42383  0.11790  0.05197  Biso   1.000  C
  H134     1.0000 0.40533  0.11857  0.01507  Biso   1.000  H
  C294     1.0000 0.50744  0.08282  0.06967  Biso   1.000  C
  C295     1.0000 0.48842  0.04321  0.03547  Biso   1.000  C
  H135     1.0000 0.45843  0.02957  0.02397  Biso   1.000  H
  C296     1.0000 0.62773  0.21687  0.12817  Biso   1.000  C
  C297     1.0000 0.57563  0.18777  0.02657  Biso   1.000  C
  O55      1.0000 0.55444  0.52254  0.57996  Biso   1.000  O
  O56      1.0000 0.56587  0.51148  0.46319  Biso   1.000  O
  C298     1.0000 0.57775  0.52217  0.52710  Biso   1.000  C
  C299     1.0000 0.62382  0.53564  0.54624  Biso   1.000  C
  C300     1.0000 0.65181  0.53635  0.49340  Biso   1.000  C
  H136     1.0000 0.64180  0.52760  0.44480  Biso   1.000  H
  C301     1.0000 0.69532  0.55007  0.51150  Biso   1.000  C
  H137     1.0000 0.71400  0.54910  0.47540  Biso   1.000  H
  C302     1.0000 0.71073  0.56453  0.57890  Biso   1.000  C
  C303     1.0000 0.68249  0.56332  0.63270  Biso   1.000  C
  H138     1.0000 0.69260  0.57230  0.68130  Biso   1.000  H
  C304     1.0000 0.63927  0.54877  0.61470  Biso   1.000  C
  H139     1.0000 0.62010  0.54810  0.65160  Biso   1.000  H
  C305     1.0000 0.75796  0.58385  0.59700  Biso   1.000  C
  C306     1.0000 0.77855  0.62346  0.63120  Biso   1.000  C
  H140     1.0000 0.76220  0.63710  0.64270  Biso   1.000  H
  C307     1.0000 0.74420  0.44980  0.53850  Biso   1.000  C
  C308     1.0000 0.72120  0.47890  0.64010  Biso   1.000  C
  O57      1.0000 0.22111  0.85587  0.91329  Biso   1.000  O
  O58      1.0000 0.23254  0.84481  0.79652  Biso   1.000  O
  C309     1.0000 0.24442  0.85550  0.86043  Biso   1.000  C
  C310     1.0000 0.29049  0.86897  0.87957  Biso   1.000  C
  C311     1.0000 0.31848  0.86968  0.82673  Biso   1.000  C
  H141     1.0000 0.30847  0.86093  0.77813  Biso   1.000  H
  C312     1.0000 0.36199  0.88340  0.84483  Biso   1.000  C
  H142     1.0000 0.38067  0.88243  0.80873  Biso   1.000  H
  C313     1.0000 0.37740  0.89786  0.91223  Biso   1.000  C
  C314     1.0000 0.34916  0.89665  0.96603  Biso   1.000  C
  H143     1.0000 0.35927  0.90563  0.01463  Biso   1.000  H
  C315     1.0000 0.30594  0.88210  0.94803  Biso   1.000  C
  H144     1.0000 0.28677  0.88143  0.98493  Biso   1.000  H
  C316     1.0000 0.42463  0.91718  0.93033  Biso   1.000  C
  C317     1.0000 0.44522  0.95679  0.96453  Biso   1.000  C
  H145     1.0000 0.42887  0.97043  0.97603  Biso   1.000  H
  C318     1.0000 0.41087  0.78313  0.87183  Biso   1.000  C
  C319     1.0000 0.38787  0.81223  0.97343  Biso   1.000  C
  O59      1.0000 0.88777  0.18921  0.24663  Biso   1.000  O
  O60      1.0000 0.89920  0.17815  0.12986  Biso   1.000  O
  C320     1.0000 0.91108  0.18884  0.19377  Biso   1.000  C
  C321     1.0000 0.95715  0.20231  0.21291  Biso   1.000  C
  C322     1.0000 0.98514  0.20302  0.16007  Biso   1.000  C
  H146     1.0000 0.97513  0.19427  0.11147  Biso   1.000  H
  C323     1.0000 0.02865  0.21674  0.17817  Biso   1.000  C
  H147     1.0000 0.04733  0.21577  0.14207  Biso   1.000  H
  C324     1.0000 0.04406  0.23120  0.24557  Biso   1.000  C
  C325     1.0000 0.01582  0.22999  0.29937  Biso   1.000  C
  H148     1.0000 0.02593  0.23897  0.34797  Biso   1.000  H
  C326     1.0000 0.97260  0.21544  0.28137  Biso   1.000  C
  H149     1.0000 0.95343  0.21477  0.31827  Biso   1.000  H
  C327     1.0000 0.09129  0.25052  0.26367  Biso   1.000  C
  C328     1.0000 0.11188  0.29013  0.29787  Biso   1.000  C
  H150     1.0000 0.09553  0.30377  0.30937  Biso   1.000  H
  C329     1.0000 0.07753  0.11647  0.20517  Biso   1.000  C
  C330     1.0000 0.05453  0.14557  0.30677  Biso   1.000  C
  O61      1.0000 0.96810  0.44556  0.57996  Biso   1.000  O
  O62      1.0000 0.94561  0.43413  0.46319  Biso   1.000  O
  C331     1.0000 0.94442  0.42225  0.52710  Biso   1.000  C
  C332     1.0000 0.91182  0.37618  0.54624  Biso   1.000  C
  C333     1.0000 0.88454  0.34819  0.49340  Biso   1.000  C
  H151     1.0000 0.88580  0.35820  0.44480  Biso   1.000  H
  C334     1.0000 0.85475  0.30468  0.51150  Biso   1.000  C
  H152     1.0000 0.83510  0.28600  0.47540  Biso   1.000  H
  C335     1.0000 0.85380  0.28927  0.57890  Biso   1.000  C
  C336     1.0000 0.88083  0.31751  0.63270  Biso   1.000  C
  H153     1.0000 0.87970  0.30740  0.68130  Biso   1.000  H
  C337     1.0000 0.90950  0.36073  0.61470  Biso   1.000  C
  H154     1.0000 0.92800  0.37990  0.65160  Biso   1.000  H
  C338     1.0000 0.82589  0.24204  0.59700  Biso   1.000  C
  C339     1.0000 0.84491  0.22145  0.63120  Biso   1.000  C
  H155     1.0000 0.87490  0.23780  0.64270  Biso   1.000  H
  C340     1.0000 0.70560  0.25580  0.53850  Biso   1.000  C
  C341     1.0000 0.75770  0.27880  0.64010  Biso   1.000  C
  O63      1.0000 0.63477  0.77889  0.91329  Biso   1.000  O
  O64      1.0000 0.61228  0.76746  0.79652  Biso   1.000  O
  C342     1.0000 0.61109  0.75558  0.86043  Biso   1.000  C
  C343     1.0000 0.57849  0.70951  0.87957  Biso   1.000  C
  C344     1.0000 0.55121  0.68152  0.82673  Biso   1.000  C
  H156     1.0000 0.55247  0.69153  0.77813  Biso   1.000  H
  C345     1.0000 0.52142  0.63801  0.84483  Biso   1.000  C
  H157     1.0000 0.50177  0.61933  0.80873  Biso   1.000  H
  C346     1.0000 0.52047  0.62260  0.91223  Biso   1.000  C
  C347     1.0000 0.54750  0.65084  0.96603  Biso   1.000  C
  H158     1.0000 0.54637  0.64073  0.01463  Biso   1.000  H
  C348     1.0000 0.57617  0.69406  0.94803  Biso   1.000  C
  H159     1.0000 0.59467  0.71323  0.98493  Biso   1.000  H
  C349     1.0000 0.49256  0.57537  0.93033  Biso   1.000  C
  C350     1.0000 0.51158  0.55478  0.96453  Biso   1.000  C
  H160     1.0000 0.54157  0.57113  0.97603  Biso   1.000  H
  C351     1.0000 0.37227  0.58913  0.87183  Biso   1.000  C
  C352     1.0000 0.42437  0.61213  0.97343  Biso   1.000  C
  O65      1.0000 0.30143  0.11223  0.24663  Biso   1.000  O
  O66      1.0000 0.27894  0.10080  0.12986  Biso   1.000  O
  C353     1.0000 0.27775  0.08892  0.19377  Biso   1.000  C
  C354     1.0000 0.24515  0.04285  0.21291  Biso   1.000  C
  C355     1.0000 0.21787  0.01486  0.16007  Biso   1.000  C
  H161     1.0000 0.21913  0.02487  0.11147  Biso   1.000  H
  C356     1.0000 0.18808  0.97135  0.17817  Biso   1.000  C
  H162     1.0000 0.16843  0.95267  0.14207  Biso   1.000  H
  C357     1.0000 0.18713  0.95594  0.24557  Biso   1.000  C
  C358     1.0000 0.21416  0.98418  0.29937  Biso   1.000  C
  H163     1.0000 0.21303  0.97407  0.34797  Biso   1.000  H
  C359     1.0000 0.24283  0.02740  0.28137  Biso   1.000  C
  H164     1.0000 0.26133  0.04657  0.31827  Biso   1.000  H
  C360     1.0000 0.15922  0.90871  0.26367  Biso   1.000  C
  C361     1.0000 0.17824  0.88812  0.29787  Biso   1.000  C
  H165     1.0000 0.20823  0.90447  0.30937  Biso   1.000  H
  C362     1.0000 0.03893  0.92247  0.20517  Biso   1.000  C
  C363     1.0000 0.09103  0.94547  0.30677  Biso   1.000  C
  O67      1.0000 0.47746  0.03190  0.57996  Biso   1.000  O
  O68      1.0000 0.48852  0.05439  0.46319  Biso   1.000  O
  C364     1.0000 0.47783  0.05558  0.52710  Biso   1.000  C
  C365     1.0000 0.46436  0.08818  0.54624  Biso   1.000  C
  C366     1.0000 0.46365  0.11546  0.49340  Biso   1.000  C
  H166     1.0000 0.47240  0.11420  0.44480  Biso   1.000  H
  C367     1.0000 0.44993  0.14525  0.51150  Biso   1.000  C
  H167     1.0000 0.45090  0.16490  0.47540  Biso   1.000  H
  C368     1.0000 0.43547  0.14620  0.57890  Biso   1.000  C
  C369     1.0000 0.43668  0.11917  0.63270  Biso   1.000  C
  H168     1.0000 0.42770  0.12030  0.68130  Biso   1.000  H
  C370     1.0000 0.45123  0.09050  0.61470  Biso   1.000  C
  H169     1.0000 0.45190  0.07200  0.65160  Biso   1.000  H
  C371     1.0000 0.41615  0.17411  0.59700  Biso   1.000  C
  C372     1.0000 0.37654  0.15509  0.63120  Biso   1.000  C
  H170     1.0000 0.36290  0.12510  0.64270  Biso   1.000  H
  C373     1.0000 0.55020  0.29440  0.53850  Biso   1.000  C
  C374     1.0000 0.52110  0.24230  0.64010  Biso   1.000  C
  O69      1.0000 0.14413  0.36523  0.91329  Biso   1.000  O
  O70      1.0000 0.15519  0.38772  0.79652  Biso   1.000  O
  C375     1.0000 0.14450  0.38891  0.86043  Biso   1.000  C
  C376     1.0000 0.13103  0.42151  0.87957  Biso   1.000  C
  C377     1.0000 0.13032  0.44879  0.82673  Biso   1.000  C
  H171     1.0000 0.13907  0.44753  0.77813  Biso   1.000  H
  C378     1.0000 0.11660  0.47858  0.84483  Biso   1.000  C
  H172     1.0000 0.11757  0.49823  0.80873  Biso   1.000  H
  C379     1.0000 0.10214  0.47953  0.91223  Biso   1.000  C
  C380     1.0000 0.10335  0.45250  0.96603  Biso   1.000  C
  H173     1.0000 0.09437  0.45363  0.01463  Biso   1.000  H
  C381     1.0000 0.11790  0.42383  0.94803  Biso   1.000  C
  H174     1.0000 0.11857  0.40533  0.98493  Biso   1.000  H
  C382     1.0000 0.08282  0.50744  0.93033  Biso   1.000  C
  C383     1.0000 0.04321  0.48842  0.96453  Biso   1.000  C
  H175     1.0000 0.02957  0.45843  0.97603  Biso   1.000  H
  C384     1.0000 0.21687  0.62773  0.87183  Biso   1.000  C
  C385     1.0000 0.18777  0.57563  0.97343  Biso   1.000  C
  O71      1.0000 0.81079  0.69857  0.24663  Biso   1.000  O
  O72      1.0000 0.82185  0.72106  0.12986  Biso   1.000  O
  C386     1.0000 0.81116  0.72225  0.19377  Biso   1.000  C
  C387     1.0000 0.79769  0.75485  0.21291  Biso   1.000  C
  C388     1.0000 0.79698  0.78213  0.16007  Biso   1.000  C
  H176     1.0000 0.80573  0.78087  0.11147  Biso   1.000  H
  C389     1.0000 0.78326  0.81192  0.17817  Biso   1.000  C
  H177     1.0000 0.78423  0.83157  0.14207  Biso   1.000  H
  C390     1.0000 0.76880  0.81287  0.24557  Biso   1.000  C
  C391     1.0000 0.77001  0.78584  0.29937  Biso   1.000  C
  H178     1.0000 0.76103  0.78697  0.34797  Biso   1.000  H
  C392     1.0000 0.78456  0.75717  0.28137  Biso   1.000  C
  H179     1.0000 0.78523  0.73867  0.31827  Biso   1.000  H
  C393     1.0000 0.74948  0.84078  0.26367  Biso   1.000  C
  C394     1.0000 0.70987  0.82176  0.29787  Biso   1.000  C
  H180     1.0000 0.69623  0.79177  0.30937  Biso   1.000  H
  C395     1.0000 0.88353  0.96107  0.20517  Biso   1.000  C
  C396     1.0000 0.85443  0.90897  0.30677  Biso   1.000  C
  Cu1      1.0000 0.50654  0.49346  0.43152  Biso   1.000  Cu
  Cu2      1.0000 0.17321  0.82679  0.76485  Biso   1.000  Cu
  Cu3      1.0000 0.83987  0.16013  0.09819  Biso   1.000  Cu
  Cu4      1.0000 0.50654  0.01308  0.43152  Biso   1.000  Cu
  Cu5      1.0000 0.17321  0.34641  0.76485  Biso   1.000  Cu
  Cu6      1.0000 0.83987  0.67975  0.09819  Biso   1.000  Cu
  Cu7      1.0000 0.98692  0.49346  0.43152  Biso   1.000  Cu
  Cu8      1.0000 0.65359  0.82679  0.76485  Biso   1.000  Cu
  Cu9      1.0000 0.32025  0.16013  0.09819  Biso   1.000  Cu
  Cu10     1.0000 0.49346  0.50654  0.56848  Biso   1.000  Cu
  Cu11     1.0000 0.16013  0.83987  0.90181  Biso   1.000  Cu
  Cu12     1.0000 0.82679  0.17321  0.23515  Biso   1.000  Cu
  Cu13     1.0000 0.01308  0.50654  0.56848  Biso   1.000  Cu
  Cu14     1.0000 0.67975  0.83987  0.90181  Biso   1.000  Cu
  Cu15     1.0000 0.34641  0.17321  0.23515  Biso   1.000  Cu
  Cu16     1.0000 0.49346  0.98692  0.56848  Biso   1.000  Cu
  Cu17     1.0000 0.16013  0.32025  0.90181  Biso   1.000  Cu
  Cu18     1.0000 0.82679  0.65359  0.23515  Biso   1.000  Cu
  O73      1.0000 0.47624  0.23812  0.54510  Biso   1.000  O
  C397     1.0000 0.35556  0.17778  0.64990  Biso   1.000  C
  C398     1.0000 0.43660  0.21830  0.58020  Biso   1.000  C
  C399     1.0000 0.51430  0.25715  0.58680  Biso   1.000  C
  O74      1.0000 0.14291  0.57145  0.87843  Biso   1.000  O
  C400     1.0000 0.02223  0.51111  0.98323  Biso   1.000  C
  C401     1.0000 0.10327  0.55163  0.91353  Biso   1.000  C
  C402     1.0000 0.18097  0.59048  0.92013  Biso   1.000  C
  O75      1.0000 0.80957  0.90479  0.21177  Biso   1.000  O
  C403     1.0000 0.68889  0.84445  0.31657  Biso   1.000  C
  C404     1.0000 0.76993  0.88497  0.24687  Biso   1.000  C
  C405     1.0000 0.84763  0.92382  0.25347  Biso   1.000  C
  O76      1.0000 0.76188  0.23812  0.54510  Biso   1.000  O
  C406     1.0000 0.82222  0.17778  0.64990  Biso   1.000  C
  C407     1.0000 0.78170  0.21830  0.58020  Biso   1.000  C
  C408     1.0000 0.74285  0.25715  0.58680  Biso   1.000  C
  O77      1.0000 0.42855  0.57145  0.87843  Biso   1.000  O
  C409     1.0000 0.48889  0.51111  0.98323  Biso   1.000  C
  C410     1.0000 0.44837  0.55163  0.91353  Biso   1.000  C
  C411     1.0000 0.40952  0.59048  0.92013  Biso   1.000  C
  O78      1.0000 0.09521  0.90479  0.21177  Biso   1.000  O
  C412     1.0000 0.15555  0.84445  0.31657  Biso   1.000  C
  C413     1.0000 0.11503  0.88497  0.24687  Biso   1.000  C
  C414     1.0000 0.07618  0.92382  0.25347  Biso   1.000  C
  O79      1.0000 0.76188  0.52376  0.54510  Biso   1.000  O
  C415     1.0000 0.82222  0.64444  0.64990  Biso   1.000  C
  C416     1.0000 0.78170  0.56340  0.58020  Biso   1.000  C
  C417     1.0000 0.74285  0.48570  0.58680  Biso   1.000  C
  O80      1.0000 0.42855  0.85709  0.87843  Biso   1.000  O
  C418     1.0000 0.48889  0.97777  0.98323  Biso   1.000  C
  C419     1.0000 0.44837  0.89673  0.91353  Biso   1.000  C
  C420     1.0000 0.40952  0.81903  0.92013  Biso   1.000  C
  O81      1.0000 0.09521  0.19043  0.21177  Biso   1.000  O
  C421     1.0000 0.15555  0.31111  0.31657  Biso   1.000  C
  C422     1.0000 0.11503  0.23007  0.24687  Biso   1.000  C
  C423     1.0000 0.07618  0.15237  0.25347  Biso   1.000  C
  O82      1.0000 0.23812  0.47624  0.45490  Biso   1.000  O
  C424     1.0000 0.17778  0.35556  0.35010  Biso   1.000  C
  C425     1.0000 0.21830  0.43660  0.41980  Biso   1.000  C
  C426     1.0000 0.25715  0.51430  0.41320  Biso   1.000  C
  O83      1.0000 0.90479  0.80957  0.78823  Biso   1.000  O
  C427     1.0000 0.84445  0.68889  0.68343  Biso   1.000  C
  C428     1.0000 0.88497  0.76993  0.75313  Biso   1.000  C
  C429     1.0000 0.92382  0.84763  0.74653  Biso   1.000  C
  O84      1.0000 0.57145  0.14291  0.12157  Biso   1.000  O
  C430     1.0000 0.51111  0.02223  0.01677  Biso   1.000  C
  C431     1.0000 0.55163  0.10327  0.08647  Biso   1.000  C
  C432     1.0000 0.59048  0.18097  0.07987  Biso   1.000  C
  O85      1.0000 0.23812  0.76188  0.45490  Biso   1.000  O
  C433     1.0000 0.17778  0.82222  0.35010  Biso   1.000  C
  C434     1.0000 0.21830  0.78170  0.41980  Biso   1.000  C
  C435     1.0000 0.25715  0.74285  0.41320  Biso   1.000  C
  O86      1.0000 0.90479  0.09521  0.78823  Biso   1.000  O
  C436     1.0000 0.84445  0.15555  0.68343  Biso   1.000  C
  C437     1.0000 0.88497  0.11503  0.75313  Biso   1.000  C
  C438     1.0000 0.92382  0.07618  0.74653  Biso   1.000  C
  O87      1.0000 0.57145  0.42855  0.12157  Biso   1.000  O
  C439     1.0000 0.51111  0.48889  0.01677  Biso   1.000  C
  C440     1.0000 0.55163  0.44837  0.08647  Biso   1.000  C
  C441     1.0000 0.59048  0.40952  0.07987  Biso   1.000  C
  O88      1.0000 0.52376  0.76188  0.45490  Biso   1.000  O
  C442     1.0000 0.64444  0.82222  0.35010  Biso   1.000  C
  C443     1.0000 0.56340  0.78170  0.41980  Biso   1.000  C
  C444     1.0000 0.48570  0.74285  0.41320  Biso   1.000  C
  O89      1.0000 0.19043  0.09521  0.78823  Biso   1.000  O
  C445     1.0000 0.31111  0.15555  0.68343  Biso   1.000  C
  C446     1.0000 0.23007  0.11503  0.75313  Biso   1.000  C
  C447     1.0000 0.15237  0.07618  0.74653  Biso   1.000  C
  O90      1.0000 0.85709  0.42855  0.12157  Biso   1.000  O
  C448     1.0000 0.97777  0.48889  0.01677  Biso   1.000  C
  C449     1.0000 0.89673  0.44837  0.08647  Biso   1.000  C
  C450     1.0000 0.81903  0.40952  0.07987  Biso   1.000  C
