data_image0
_cell_length_a       35.8514
_cell_length_b       35.8514
_cell_length_c       15.626
_cell_angle_alpha    90
_cell_angle_beta     90
_cell_angle_gamma    120

_symmetry_space_group_name_H-M    "P 1"
_symmetry_int_tables_number       1

loop_
  _symmetry_equiv_pos_as_xyz
  'x, y, z'

loop_
  _atom_site_label
  _atom_site_occupancy
  _atom_site_fract_x
  _atom_site_fract_y
  _atom_site_fract_z
  _atom_site_thermal_displace_type
  _atom_site_B_iso_or_equiv
  _atom_site_type_symbol
  O1       1.0000 0.63017  0.77651  0.41340  Biso   1.000  O
  O2       1.0000 0.61478  0.76904  0.27270  Biso   1.000  O
  C1       1.0000 0.60987  0.75528  0.34650  Biso   1.000  C
  C2       1.0000 0.57746  0.70854  0.36440  Biso   1.000  C
  C3       1.0000 0.55252  0.68204  0.29730  Biso   1.000  C
  H1       1.0000 0.55460  0.69300  0.24250  Biso   1.000  H
  C4       1.0000 0.52422  0.63828  0.31490  Biso   1.000  C
  H2       1.0000 0.50730  0.62040  0.27080  Biso   1.000  H
  C5       1.0000 0.52074  0.62123  0.39420  Biso   1.000  C
  C6       1.0000 0.54450  0.64866  0.45890  Biso   1.000  C
  H3       1.0000 0.54140  0.63800  0.51430  Biso   1.000  H
  C7       1.0000 0.57326  0.69236  0.44350  Biso   1.000  C
  H4       1.0000 0.58950  0.71020  0.48830  Biso   1.000  H
  C8       1.0000 0.49314  0.57425  0.41270  Biso   1.000  C
  C9       1.0000 0.51199  0.55407  0.45510  Biso   1.000  C
  H5       1.0000 0.54100  0.57020  0.46960  Biso   1.000  H
  C10      1.0000 0.42600  0.61310  0.47150  Biso   1.000  C
  C11      1.0000 0.37560  0.58920  0.33510  Biso   1.000  C
  O3       1.0000 0.29684  0.10984  0.74673  Biso   1.000  O
  O4       1.0000 0.28145  0.10237  0.60603  Biso   1.000  O
  C12      1.0000 0.27654  0.08861  0.67983  Biso   1.000  C
  C13      1.0000 0.24413  0.04187  0.69773  Biso   1.000  C
  C14      1.0000 0.21919  0.01537  0.63063  Biso   1.000  C
  H6       1.0000 0.22127  0.02633  0.57583  Biso   1.000  H
  C15      1.0000 0.19089  0.97161  0.64823  Biso   1.000  C
  H7       1.0000 0.17397  0.95373  0.60413  Biso   1.000  H
  C16      1.0000 0.18741  0.95456  0.72753  Biso   1.000  C
  C17      1.0000 0.21117  0.98199  0.79223  Biso   1.000  C
  H8       1.0000 0.20807  0.97133  0.84763  Biso   1.000  H
  C18      1.0000 0.23993  0.02569  0.77683  Biso   1.000  C
  H9       1.0000 0.25617  0.04353  0.82163  Biso   1.000  H
  C19      1.0000 0.15981  0.90758  0.74603  Biso   1.000  C
  C20      1.0000 0.17866  0.88740  0.78843  Biso   1.000  C
  H10      1.0000 0.20767  0.90353  0.80293  Biso   1.000  H
  C21      1.0000 0.09267  0.94643  0.80483  Biso   1.000  C
  C22      1.0000 0.04227  0.92253  0.66843  Biso   1.000  C
  O5       1.0000 0.96350  0.44318  0.08007  Biso   1.000  O
  O6       1.0000 0.94811  0.43571  0.93937  Biso   1.000  O
  C23      1.0000 0.94320  0.42195  0.01317  Biso   1.000  C
  C24      1.0000 0.91079  0.37521  0.03107  Biso   1.000  C
  C25      1.0000 0.88585  0.34871  0.96397  Biso   1.000  C
  H11      1.0000 0.88793  0.35967  0.90917  Biso   1.000  H
  C26      1.0000 0.85755  0.30495  0.98157  Biso   1.000  C
  H12      1.0000 0.84063  0.28707  0.93747  Biso   1.000  H
  C27      1.0000 0.85407  0.28790  0.06087  Biso   1.000  C
  C28      1.0000 0.87783  0.31533  0.12557  Biso   1.000  C
  H13      1.0000 0.87473  0.30467  0.18097  Biso   1.000  H
  C29      1.0000 0.90659  0.35903  0.11017  Biso   1.000  C
  H14      1.0000 0.92283  0.37687  0.15497  Biso   1.000  H
  C30      1.0000 0.82647  0.24092  0.07937  Biso   1.000  C
  C31      1.0000 0.84532  0.22074  0.12177  Biso   1.000  C
  H15      1.0000 0.87433  0.23687  0.13627  Biso   1.000  H
  C32      1.0000 0.75933  0.27977  0.13817  Biso   1.000  C
  C33      1.0000 0.70893  0.25587  0.00177  Biso   1.000  C
  O7       1.0000 0.22349  0.85366  0.41340  Biso   1.000  O
  O8       1.0000 0.23096  0.84574  0.27270  Biso   1.000  O
  C34      1.0000 0.24472  0.85459  0.34650  Biso   1.000  C
  C35      1.0000 0.29146  0.86892  0.36440  Biso   1.000  C
  C36      1.0000 0.31796  0.87048  0.29730  Biso   1.000  C
  H16      1.0000 0.30700  0.86160  0.24250  Biso   1.000  H
  C37      1.0000 0.36172  0.88594  0.31490  Biso   1.000  C
  H17      1.0000 0.37960  0.88690  0.27080  Biso   1.000  H
  C38      1.0000 0.37877  0.89951  0.39420  Biso   1.000  C
  C39      1.0000 0.35134  0.89584  0.45890  Biso   1.000  C
  H18      1.0000 0.36200  0.90340  0.51430  Biso   1.000  H
  C40      1.0000 0.30764  0.88090  0.44350  Biso   1.000  C
  H19      1.0000 0.28980  0.87930  0.48830  Biso   1.000  H
  C41      1.0000 0.42575  0.91889  0.41270  Biso   1.000  C
  C42      1.0000 0.44593  0.95792  0.45510  Biso   1.000  C
  H20      1.0000 0.42980  0.97080  0.46960  Biso   1.000  H
  C43      1.0000 0.38690  0.81290  0.47150  Biso   1.000  C
  C44      1.0000 0.41080  0.78640  0.33510  Biso   1.000  C
  O9       1.0000 0.89016  0.18699  0.74673  Biso   1.000  O
  O10      1.0000 0.89763  0.17907  0.60603  Biso   1.000  O
  C45      1.0000 0.91139  0.18792  0.67983  Biso   1.000  C
  C46      1.0000 0.95813  0.20225  0.69773  Biso   1.000  C
  C47      1.0000 0.98463  0.20381  0.63063  Biso   1.000  C
  H21      1.0000 0.97367  0.19493  0.57583  Biso   1.000  H
  C48      1.0000 0.02839  0.21927  0.64823  Biso   1.000  C
  H22      1.0000 0.04627  0.22023  0.60413  Biso   1.000  H
  C49      1.0000 0.04544  0.23284  0.72753  Biso   1.000  C
  C50      1.0000 0.01801  0.22917  0.79223  Biso   1.000  C
  H23      1.0000 0.02867  0.23673  0.84763  Biso   1.000  H
  C51      1.0000 0.97431  0.21423  0.77683  Biso   1.000  C
  H24      1.0000 0.95647  0.21263  0.82163  Biso   1.000  H
  C52      1.0000 0.09242  0.25222  0.74603  Biso   1.000  C
  C53      1.0000 0.11260  0.29125  0.78843  Biso   1.000  C
  H25      1.0000 0.09647  0.30413  0.80293  Biso   1.000  H
  C54      1.0000 0.05357  0.14623  0.80483  Biso   1.000  C
  C55      1.0000 0.07747  0.11973  0.66843  Biso   1.000  C
  O11      1.0000 0.55682  0.52033  0.08007  Biso   1.000  O
  O12      1.0000 0.56429  0.51241  0.93937  Biso   1.000  O
  C56      1.0000 0.57805  0.52126  0.01317  Biso   1.000  C
  C57      1.0000 0.62479  0.53559  0.03107  Biso   1.000  C
  C58      1.0000 0.65129  0.53715  0.96397  Biso   1.000  C
  H26      1.0000 0.64033  0.52827  0.90917  Biso   1.000  H
  C59      1.0000 0.69505  0.55261  0.98157  Biso   1.000  C
  H27      1.0000 0.71293  0.55357  0.93747  Biso   1.000  H
  C60      1.0000 0.71210  0.56618  0.06087  Biso   1.000  C
  C61      1.0000 0.68467  0.56251  0.12557  Biso   1.000  C
  H28      1.0000 0.69533  0.57007  0.18097  Biso   1.000  H
  C62      1.0000 0.64097  0.54757  0.11017  Biso   1.000  C
  H29      1.0000 0.62313  0.54597  0.15497  Biso   1.000  H
  C63      1.0000 0.75908  0.58556  0.07937  Biso   1.000  C
  C64      1.0000 0.77926  0.62459  0.12177  Biso   1.000  C
  H30      1.0000 0.76313  0.63747  0.13627  Biso   1.000  H
  C65      1.0000 0.72023  0.47957  0.13817  Biso   1.000  C
  C66      1.0000 0.74413  0.45307  0.00177  Biso   1.000  C
  O13      1.0000 0.14634  0.36983  0.41340  Biso   1.000  O
  O14      1.0000 0.15426  0.38522  0.27270  Biso   1.000  O
  C67      1.0000 0.14541  0.39013  0.34650  Biso   1.000  C
  C68      1.0000 0.13108  0.42254  0.36440  Biso   1.000  C
  C69      1.0000 0.12952  0.44748  0.29730  Biso   1.000  C
  H31      1.0000 0.13840  0.44540  0.24250  Biso   1.000  H
  C70      1.0000 0.11406  0.47578  0.31490  Biso   1.000  C
  H32      1.0000 0.11310  0.49270  0.27080  Biso   1.000  H
  C71      1.0000 0.10049  0.47926  0.39420  Biso   1.000  C
  C72      1.0000 0.10416  0.45550  0.45890  Biso   1.000  C
  H33      1.0000 0.09660  0.45860  0.51430  Biso   1.000  H
  C73      1.0000 0.11910  0.42674  0.44350  Biso   1.000  C
  H34      1.0000 0.12070  0.41050  0.48830  Biso   1.000  H
  C74      1.0000 0.08111  0.50686  0.41270  Biso   1.000  C
  C75      1.0000 0.04208  0.48801  0.45510  Biso   1.000  C
  H35      1.0000 0.02920  0.45900  0.46960  Biso   1.000  H
  C76      1.0000 0.18710  0.57400  0.47150  Biso   1.000  C
  C77      1.0000 0.21360  0.62440  0.33510  Biso   1.000  C
  O15      1.0000 0.81301  0.70316  0.74673  Biso   1.000  O
  O16      1.0000 0.82093  0.71855  0.60603  Biso   1.000  O
  C78      1.0000 0.81208  0.72346  0.67983  Biso   1.000  C
  C79      1.0000 0.79775  0.75587  0.69773  Biso   1.000  C
  C80      1.0000 0.79619  0.78081  0.63063  Biso   1.000  C
  H36      1.0000 0.80507  0.77873  0.57583  Biso   1.000  H
  C81      1.0000 0.78073  0.80911  0.64823  Biso   1.000  C
  H37      1.0000 0.77977  0.82603  0.60413  Biso   1.000  H
  C82      1.0000 0.76716  0.81259  0.72753  Biso   1.000  C
  C83      1.0000 0.77083  0.78883  0.79223  Biso   1.000  C
  H38      1.0000 0.76327  0.79193  0.84763  Biso   1.000  H
  C84      1.0000 0.78577  0.76007  0.77683  Biso   1.000  C
  H39      1.0000 0.78737  0.74383  0.82163  Biso   1.000  H
  C85      1.0000 0.74778  0.84019  0.74603  Biso   1.000  C
  C86      1.0000 0.70875  0.82134  0.78843  Biso   1.000  C
  H40      1.0000 0.69587  0.79233  0.80293  Biso   1.000  H
  C87      1.0000 0.85377  0.90733  0.80483  Biso   1.000  C
  C88      1.0000 0.88027  0.95773  0.66843  Biso   1.000  C
  O17      1.0000 0.47967  0.03650  0.08007  Biso   1.000  O
  O18      1.0000 0.48759  0.05189  0.93937  Biso   1.000  O
  C89      1.0000 0.47874  0.05680  0.01317  Biso   1.000  C
  C90      1.0000 0.46441  0.08921  0.03107  Biso   1.000  C
  C91      1.0000 0.46285  0.11415  0.96397  Biso   1.000  C
  H41      1.0000 0.47173  0.11207  0.90917  Biso   1.000  H
  C92      1.0000 0.44739  0.14245  0.98157  Biso   1.000  C
  H42      1.0000 0.44643  0.15937  0.93747  Biso   1.000  H
  C93      1.0000 0.43382  0.14593  0.06087  Biso   1.000  C
  C94      1.0000 0.43749  0.12217  0.12557  Biso   1.000  C
  H43      1.0000 0.42993  0.12527  0.18097  Biso   1.000  H
  C95      1.0000 0.45243  0.09341  0.11017  Biso   1.000  C
  H44      1.0000 0.45403  0.07717  0.15497  Biso   1.000  H
  C96      1.0000 0.41444  0.17353  0.07937  Biso   1.000  C
  C97      1.0000 0.37541  0.15468  0.12177  Biso   1.000  C
  H45      1.0000 0.36253  0.12567  0.13627  Biso   1.000  H
  C98      1.0000 0.52043  0.24067  0.13817  Biso   1.000  C
  C99      1.0000 0.54693  0.29107  0.00177  Biso   1.000  C
  O19      1.0000 0.77651  0.63017  0.58660  Biso   1.000  O
  O20      1.0000 0.76904  0.61478  0.72730  Biso   1.000  O
  C100     1.0000 0.75528  0.60987  0.65350  Biso   1.000  C
  C101     1.0000 0.70854  0.57746  0.63560  Biso   1.000  C
  C102     1.0000 0.68204  0.55252  0.70270  Biso   1.000  C
  H46      1.0000 0.69300  0.55460  0.75750  Biso   1.000  H
  C103     1.0000 0.63828  0.52422  0.68510  Biso   1.000  C
  H47      1.0000 0.62040  0.50730  0.72920  Biso   1.000  H
  C104     1.0000 0.62123  0.52074  0.60580  Biso   1.000  C
  C105     1.0000 0.64866  0.54450  0.54110  Biso   1.000  C
  H48      1.0000 0.63800  0.54140  0.48570  Biso   1.000  H
  C106     1.0000 0.69236  0.57326  0.55650  Biso   1.000  C
  H49      1.0000 0.71020  0.58950  0.51170  Biso   1.000  H
  C107     1.0000 0.57425  0.49314  0.58730  Biso   1.000  C
  C108     1.0000 0.55407  0.51199  0.54490  Biso   1.000  C
  H50      1.0000 0.57020  0.54100  0.53040  Biso   1.000  H
  C109     1.0000 0.61310  0.42600  0.52850  Biso   1.000  C
  C110     1.0000 0.58920  0.37560  0.66490  Biso   1.000  C
  O21      1.0000 0.44318  0.96350  0.91993  Biso   1.000  O
  O22      1.0000 0.43571  0.94811  0.06063  Biso   1.000  O
  C111     1.0000 0.42195  0.94320  0.98683  Biso   1.000  C
  C112     1.0000 0.37521  0.91079  0.96893  Biso   1.000  C
  C113     1.0000 0.34871  0.88585  0.03603  Biso   1.000  C
  H51      1.0000 0.35967  0.88793  0.09083  Biso   1.000  H
  C114     1.0000 0.30495  0.85755  0.01843  Biso   1.000  C
  H52      1.0000 0.28707  0.84063  0.06253  Biso   1.000  H
  C115     1.0000 0.28790  0.85407  0.93913  Biso   1.000  C
  C116     1.0000 0.31533  0.87783  0.87443  Biso   1.000  C
  H53      1.0000 0.30467  0.87473  0.81903  Biso   1.000  H
  C117     1.0000 0.35903  0.90659  0.88983  Biso   1.000  C
  H54      1.0000 0.37687  0.92283  0.84503  Biso   1.000  H
  C118     1.0000 0.24092  0.82647  0.92063  Biso   1.000  C
  C119     1.0000 0.22074  0.84532  0.87823  Biso   1.000  C
  H55      1.0000 0.23687  0.87433  0.86373  Biso   1.000  H
  C120     1.0000 0.27977  0.75933  0.86183  Biso   1.000  C
  C121     1.0000 0.25587  0.70893  0.99823  Biso   1.000  C
  O23      1.0000 0.10984  0.29684  0.25327  Biso   1.000  O
  O24      1.0000 0.10237  0.28145  0.39397  Biso   1.000  O
  C122     1.0000 0.08861  0.27654  0.32017  Biso   1.000  C
  C123     1.0000 0.04187  0.24413  0.30227  Biso   1.000  C
  C124     1.0000 0.01537  0.21919  0.36937  Biso   1.000  C
  H56      1.0000 0.02633  0.22127  0.42417  Biso   1.000  H
  C125     1.0000 0.97161  0.19089  0.35177  Biso   1.000  C
  H57      1.0000 0.95373  0.17397  0.39587  Biso   1.000  H
  C126     1.0000 0.95456  0.18741  0.27247  Biso   1.000  C
  C127     1.0000 0.98199  0.21117  0.20777  Biso   1.000  C
  H58      1.0000 0.97133  0.20807  0.15237  Biso   1.000  H
  C128     1.0000 0.02569  0.23993  0.22317  Biso   1.000  C
  H59      1.0000 0.04353  0.25617  0.17837  Biso   1.000  H
  C129     1.0000 0.90758  0.15981  0.25397  Biso   1.000  C
  C130     1.0000 0.88740  0.17866  0.21157  Biso   1.000  C
  H60      1.0000 0.90353  0.20767  0.19707  Biso   1.000  H
  C131     1.0000 0.94643  0.09267  0.19517  Biso   1.000  C
  C132     1.0000 0.92253  0.04227  0.33157  Biso   1.000  C
  O25      1.0000 0.85366  0.22349  0.58660  Biso   1.000  O
  O26      1.0000 0.84574  0.23096  0.72730  Biso   1.000  O
  C133     1.0000 0.85459  0.24472  0.65350  Biso   1.000  C
  C134     1.0000 0.86892  0.29146  0.63560  Biso   1.000  C
  C135     1.0000 0.87048  0.31796  0.70270  Biso   1.000  C
  H61      1.0000 0.86160  0.30700  0.75750  Biso   1.000  H
  C136     1.0000 0.88594  0.36172  0.68510  Biso   1.000  C
  H62      1.0000 0.88690  0.37960  0.72920  Biso   1.000  H
  C137     1.0000 0.89951  0.37877  0.60580  Biso   1.000  C
  C138     1.0000 0.89584  0.35134  0.54110  Biso   1.000  C
  H63      1.0000 0.90340  0.36200  0.48570  Biso   1.000  H
  C139     1.0000 0.88090  0.30764  0.55650  Biso   1.000  C
  H64      1.0000 0.87930  0.28980  0.51170  Biso   1.000  H
  C140     1.0000 0.91889  0.42575  0.58730  Biso   1.000  C
  C141     1.0000 0.95792  0.44593  0.54490  Biso   1.000  C
  H65      1.0000 0.97080  0.42980  0.53040  Biso   1.000  H
  C142     1.0000 0.81290  0.38690  0.52850  Biso   1.000  C
  C143     1.0000 0.78640  0.41080  0.66490  Biso   1.000  C
  O27      1.0000 0.52033  0.55682  0.91993  Biso   1.000  O
  O28      1.0000 0.51241  0.56429  0.06063  Biso   1.000  O
  C144     1.0000 0.52126  0.57805  0.98683  Biso   1.000  C
  C145     1.0000 0.53559  0.62479  0.96893  Biso   1.000  C
  C146     1.0000 0.53715  0.65129  0.03603  Biso   1.000  C
  H66      1.0000 0.52827  0.64033  0.09083  Biso   1.000  H
  C147     1.0000 0.55261  0.69505  0.01843  Biso   1.000  C
  H67      1.0000 0.55357  0.71293  0.06253  Biso   1.000  H
  C148     1.0000 0.56618  0.71210  0.93913  Biso   1.000  C
  C149     1.0000 0.56251  0.68467  0.87443  Biso   1.000  C
  H68      1.0000 0.57007  0.69533  0.81903  Biso   1.000  H
  C150     1.0000 0.54757  0.64097  0.88983  Biso   1.000  C
  H69      1.0000 0.54597  0.62313  0.84503  Biso   1.000  H
  C151     1.0000 0.58556  0.75908  0.92063  Biso   1.000  C
  C152     1.0000 0.62459  0.77926  0.87823  Biso   1.000  C
  H70      1.0000 0.63747  0.76313  0.86373  Biso   1.000  H
  C153     1.0000 0.47957  0.72023  0.86183  Biso   1.000  C
  C154     1.0000 0.45307  0.74413  0.99823  Biso   1.000  C
  O29      1.0000 0.18699  0.89016  0.25327  Biso   1.000  O
  O30      1.0000 0.17907  0.89763  0.39397  Biso   1.000  O
  C155     1.0000 0.18792  0.91139  0.32017  Biso   1.000  C
  C156     1.0000 0.20225  0.95813  0.30227  Biso   1.000  C
  C157     1.0000 0.20381  0.98463  0.36937  Biso   1.000  C
  H71      1.0000 0.19493  0.97367  0.42417  Biso   1.000  H
  C158     1.0000 0.21927  0.02839  0.35177  Biso   1.000  C
  H72      1.0000 0.22023  0.04627  0.39587  Biso   1.000  H
  C159     1.0000 0.23284  0.04544  0.27247  Biso   1.000  C
  C160     1.0000 0.22917  0.01801  0.20777  Biso   1.000  C
  H73      1.0000 0.23673  0.02867  0.15237  Biso   1.000  H
  C161     1.0000 0.21423  0.97431  0.22317  Biso   1.000  C
  H74      1.0000 0.21263  0.95647  0.17837  Biso   1.000  H
  C162     1.0000 0.25222  0.09242  0.25397  Biso   1.000  C
  C163     1.0000 0.29125  0.11260  0.21157  Biso   1.000  C
  H75      1.0000 0.30413  0.09647  0.19707  Biso   1.000  H
  C164     1.0000 0.14623  0.05357  0.19517  Biso   1.000  C
  C165     1.0000 0.11973  0.07747  0.33157  Biso   1.000  C
  O31      1.0000 0.36983  0.14634  0.58660  Biso   1.000  O
  O32      1.0000 0.38522  0.15426  0.72730  Biso   1.000  O
  C166     1.0000 0.39013  0.14541  0.65350  Biso   1.000  C
  C167     1.0000 0.42254  0.13108  0.63560  Biso   1.000  C
  C168     1.0000 0.44748  0.12952  0.70270  Biso   1.000  C
  H76      1.0000 0.44540  0.13840  0.75750  Biso   1.000  H
  C169     1.0000 0.47578  0.11406  0.68510  Biso   1.000  C
  H77      1.0000 0.49270  0.11310  0.72920  Biso   1.000  H
  C170     1.0000 0.47926  0.10049  0.60580  Biso   1.000  C
  C171     1.0000 0.45550  0.10416  0.54110  Biso   1.000  C
  H78      1.0000 0.45860  0.09660  0.48570  Biso   1.000  H
  C172     1.0000 0.42674  0.11910  0.55650  Biso   1.000  C
  H79      1.0000 0.41050  0.12070  0.51170  Biso   1.000  H
  C173     1.0000 0.50686  0.08111  0.58730  Biso   1.000  C
  C174     1.0000 0.48801  0.04208  0.54490  Biso   1.000  C
  H80      1.0000 0.45900  0.02920  0.53040  Biso   1.000  H
  C175     1.0000 0.57400  0.18710  0.52850  Biso   1.000  C
  C176     1.0000 0.62440  0.21360  0.66490  Biso   1.000  C
  O33      1.0000 0.03650  0.47967  0.91993  Biso   1.000  O
  O34      1.0000 0.05189  0.48759  0.06063  Biso   1.000  O
  C177     1.0000 0.05680  0.47874  0.98683  Biso   1.000  C
  C178     1.0000 0.08921  0.46441  0.96893  Biso   1.000  C
  C179     1.0000 0.11415  0.46285  0.03603  Biso   1.000  C
  H81      1.0000 0.11207  0.47173  0.09083  Biso   1.000  H
  C180     1.0000 0.14245  0.44739  0.01843  Biso   1.000  C
  H82      1.0000 0.15937  0.44643  0.06253  Biso   1.000  H
  C181     1.0000 0.14593  0.43382  0.93913  Biso   1.000  C
  C182     1.0000 0.12217  0.43749  0.87443  Biso   1.000  C
  H83      1.0000 0.12527  0.42993  0.81903  Biso   1.000  H
  C183     1.0000 0.09341  0.45243  0.88983  Biso   1.000  C
  H84      1.0000 0.07717  0.45403  0.84503  Biso   1.000  H
  C184     1.0000 0.17353  0.41444  0.92063  Biso   1.000  C
  C185     1.0000 0.15468  0.37541  0.87823  Biso   1.000  C
  H85      1.0000 0.12567  0.36253  0.86373  Biso   1.000  H
  C186     1.0000 0.24067  0.52043  0.86183  Biso   1.000  C
  C187     1.0000 0.29107  0.54693  0.99823  Biso   1.000  C
  O35      1.0000 0.70316  0.81301  0.25327  Biso   1.000  O
  O36      1.0000 0.71855  0.82093  0.39397  Biso   1.000  O
  C188     1.0000 0.72346  0.81208  0.32017  Biso   1.000  C
  C189     1.0000 0.75587  0.79775  0.30227  Biso   1.000  C
  C190     1.0000 0.78081  0.79619  0.36937  Biso   1.000  C
  H86      1.0000 0.77873  0.80507  0.42417  Biso   1.000  H
  C191     1.0000 0.80911  0.78073  0.35177  Biso   1.000  C
  H87      1.0000 0.82603  0.77977  0.39587  Biso   1.000  H
  C192     1.0000 0.81259  0.76716  0.27247  Biso   1.000  C
  C193     1.0000 0.78883  0.77083  0.20777  Biso   1.000  C
  H88      1.0000 0.79193  0.76327  0.15237  Biso   1.000  H
  C194     1.0000 0.76007  0.78577  0.22317  Biso   1.000  C
  H89      1.0000 0.74383  0.78737  0.17837  Biso   1.000  H
  C195     1.0000 0.84019  0.74778  0.25397  Biso   1.000  C
  C196     1.0000 0.82134  0.70875  0.21157  Biso   1.000  C
  H90      1.0000 0.79233  0.69587  0.19707  Biso   1.000  H
  C197     1.0000 0.90733  0.85377  0.19517  Biso   1.000  C
  C198     1.0000 0.95773  0.88027  0.33157  Biso   1.000  C
  O37      1.0000 0.36983  0.22349  0.58660  Biso   1.000  O
  O38      1.0000 0.38522  0.23096  0.72730  Biso   1.000  O
  C199     1.0000 0.39013  0.24472  0.65350  Biso   1.000  C
  C200     1.0000 0.42254  0.29146  0.63560  Biso   1.000  C
  C201     1.0000 0.44748  0.31796  0.70270  Biso   1.000  C
  H91      1.0000 0.44540  0.30700  0.75750  Biso   1.000  H
  C202     1.0000 0.47578  0.36172  0.68510  Biso   1.000  C
  H92      1.0000 0.49270  0.37960  0.72920  Biso   1.000  H
  C203     1.0000 0.47926  0.37877  0.60580  Biso   1.000  C
  C204     1.0000 0.45550  0.35134  0.54110  Biso   1.000  C
  H93      1.0000 0.45860  0.36200  0.48570  Biso   1.000  H
  C205     1.0000 0.42674  0.30764  0.55650  Biso   1.000  C
  H94      1.0000 0.41050  0.28980  0.51170  Biso   1.000  H
  C206     1.0000 0.50686  0.42575  0.58730  Biso   1.000  C
  C207     1.0000 0.48801  0.44593  0.54490  Biso   1.000  C
  H95      1.0000 0.45900  0.42980  0.53040  Biso   1.000  H
  C208     1.0000 0.57400  0.38690  0.52850  Biso   1.000  C
  C209     1.0000 0.62440  0.41080  0.66490  Biso   1.000  C
  O39      1.0000 0.03650  0.55682  0.91993  Biso   1.000  O
  O40      1.0000 0.05189  0.56429  0.06063  Biso   1.000  O
  C210     1.0000 0.05680  0.57805  0.98683  Biso   1.000  C
  C211     1.0000 0.08921  0.62479  0.96893  Biso   1.000  C
  C212     1.0000 0.11415  0.65129  0.03603  Biso   1.000  C
  H96      1.0000 0.11207  0.64033  0.09083  Biso   1.000  H
  C213     1.0000 0.14245  0.69505  0.01843  Biso   1.000  C
  H97      1.0000 0.15937  0.71293  0.06253  Biso   1.000  H
  C214     1.0000 0.14593  0.71210  0.93913  Biso   1.000  C
  C215     1.0000 0.12217  0.68467  0.87443  Biso   1.000  C
  H98      1.0000 0.12527  0.69533  0.81903  Biso   1.000  H
  C216     1.0000 0.09341  0.64097  0.88983  Biso   1.000  C
  H99      1.0000 0.07717  0.62313  0.84503  Biso   1.000  H
  C217     1.0000 0.17353  0.75908  0.92063  Biso   1.000  C
  C218     1.0000 0.15468  0.77926  0.87823  Biso   1.000  C
  H100     1.0000 0.12567  0.76313  0.86373  Biso   1.000  H
  C219     1.0000 0.24067  0.72023  0.86183  Biso   1.000  C
  C220     1.0000 0.29107  0.74413  0.99823  Biso   1.000  C
  O41      1.0000 0.70316  0.89016  0.25327  Biso   1.000  O
  O42      1.0000 0.71855  0.89763  0.39397  Biso   1.000  O
  C221     1.0000 0.72346  0.91139  0.32017  Biso   1.000  C
  C222     1.0000 0.75587  0.95813  0.30227  Biso   1.000  C
  C223     1.0000 0.78081  0.98463  0.36937  Biso   1.000  C
  H101     1.0000 0.77873  0.97367  0.42417  Biso   1.000  H
  C224     1.0000 0.80911  0.02839  0.35177  Biso   1.000  C
  H102     1.0000 0.82603  0.04627  0.39587  Biso   1.000  H
  C225     1.0000 0.81259  0.04544  0.27247  Biso   1.000  C
  C226     1.0000 0.78883  0.01801  0.20777  Biso   1.000  C
  H103     1.0000 0.79193  0.02867  0.15237  Biso   1.000  H
  C227     1.0000 0.76007  0.97431  0.22317  Biso   1.000  C
  H104     1.0000 0.74383  0.95647  0.17837  Biso   1.000  H
  C228     1.0000 0.84019  0.09242  0.25397  Biso   1.000  C
  C229     1.0000 0.82134  0.11260  0.21157  Biso   1.000  C
  H105     1.0000 0.79233  0.09647  0.19707  Biso   1.000  H
  C230     1.0000 0.90733  0.05357  0.19517  Biso   1.000  C
  C231     1.0000 0.95773  0.07747  0.33157  Biso   1.000  C
  O43      1.0000 0.77651  0.14634  0.58660  Biso   1.000  O
  O44      1.0000 0.76904  0.15426  0.72730  Biso   1.000  O
  C232     1.0000 0.75528  0.14541  0.65350  Biso   1.000  C
  C233     1.0000 0.70854  0.13108  0.63560  Biso   1.000  C
  C234     1.0000 0.68204  0.12952  0.70270  Biso   1.000  C
  H106     1.0000 0.69300  0.13840  0.75750  Biso   1.000  H
  C235     1.0000 0.63828  0.11406  0.68510  Biso   1.000  C
  H107     1.0000 0.62040  0.11310  0.72920  Biso   1.000  H
  C236     1.0000 0.62123  0.10049  0.60580  Biso   1.000  C
  C237     1.0000 0.64866  0.10416  0.54110  Biso   1.000  C
  H108     1.0000 0.63800  0.09660  0.48570  Biso   1.000  H
  C238     1.0000 0.69236  0.11910  0.55650  Biso   1.000  C
  H109     1.0000 0.71020  0.12070  0.51170  Biso   1.000  H
  C239     1.0000 0.57425  0.08111  0.58730  Biso   1.000  C
  C240     1.0000 0.55407  0.04208  0.54490  Biso   1.000  C
  H110     1.0000 0.57020  0.02920  0.53040  Biso   1.000  H
  C241     1.0000 0.61310  0.18710  0.52850  Biso   1.000  C
  C242     1.0000 0.58920  0.21360  0.66490  Biso   1.000  C
  O45      1.0000 0.44318  0.47967  0.91993  Biso   1.000  O
  O46      1.0000 0.43571  0.48759  0.06063  Biso   1.000  O
  C243     1.0000 0.42195  0.47874  0.98683  Biso   1.000  C
  C244     1.0000 0.37521  0.46441  0.96893  Biso   1.000  C
  C245     1.0000 0.34871  0.46285  0.03603  Biso   1.000  C
  H111     1.0000 0.35967  0.47173  0.09083  Biso   1.000  H
  C246     1.0000 0.30495  0.44739  0.01843  Biso   1.000  C
  H112     1.0000 0.28707  0.44643  0.06253  Biso   1.000  H
  C247     1.0000 0.28790  0.43382  0.93913  Biso   1.000  C
  C248     1.0000 0.31533  0.43749  0.87443  Biso   1.000  C
  H113     1.0000 0.30467  0.42993  0.81903  Biso   1.000  H
  C249     1.0000 0.35903  0.45243  0.88983  Biso   1.000  C
  H114     1.0000 0.37687  0.45403  0.84503  Biso   1.000  H
  C250     1.0000 0.24092  0.41444  0.92063  Biso   1.000  C
  C251     1.0000 0.22074  0.37541  0.87823  Biso   1.000  C
  H115     1.0000 0.23687  0.36253  0.86373  Biso   1.000  H
  C252     1.0000 0.27977  0.52043  0.86183  Biso   1.000  C
  C253     1.0000 0.25587  0.54693  0.99823  Biso   1.000  C
  O47      1.0000 0.10984  0.81301  0.25327  Biso   1.000  O
  O48      1.0000 0.10237  0.82093  0.39397  Biso   1.000  O
  C254     1.0000 0.08861  0.81208  0.32017  Biso   1.000  C
  C255     1.0000 0.04187  0.79775  0.30227  Biso   1.000  C
  C256     1.0000 0.01537  0.79619  0.36937  Biso   1.000  C
  H116     1.0000 0.02633  0.80507  0.42417  Biso   1.000  H
  C257     1.0000 0.97161  0.78073  0.35177  Biso   1.000  C
  H117     1.0000 0.95373  0.77977  0.39587  Biso   1.000  H
  C258     1.0000 0.95456  0.76716  0.27247  Biso   1.000  C
  C259     1.0000 0.98199  0.77083  0.20777  Biso   1.000  C
  H118     1.0000 0.97133  0.76327  0.15237  Biso   1.000  H
  C260     1.0000 0.02569  0.78577  0.22317  Biso   1.000  C
  H119     1.0000 0.04353  0.78737  0.17837  Biso   1.000  H
  C261     1.0000 0.90758  0.74778  0.25397  Biso   1.000  C
  C262     1.0000 0.88740  0.70875  0.21157  Biso   1.000  C
  H120     1.0000 0.90353  0.69587  0.19707  Biso   1.000  H
  C263     1.0000 0.94643  0.85377  0.19517  Biso   1.000  C
  C264     1.0000 0.92253  0.88027  0.33157  Biso   1.000  C
  O49      1.0000 0.85366  0.63017  0.58660  Biso   1.000  O
  O50      1.0000 0.84574  0.61478  0.72730  Biso   1.000  O
  C265     1.0000 0.85459  0.60987  0.65350  Biso   1.000  C
  C266     1.0000 0.86892  0.57746  0.63560  Biso   1.000  C
  C267     1.0000 0.87048  0.55252  0.70270  Biso   1.000  C
  H121     1.0000 0.86160  0.55460  0.75750  Biso   1.000  H
  C268     1.0000 0.88594  0.52422  0.68510  Biso   1.000  C
  H122     1.0000 0.88690  0.50730  0.72920  Biso   1.000  H
  C269     1.0000 0.89951  0.52074  0.60580  Biso   1.000  C
  C270     1.0000 0.89584  0.54450  0.54110  Biso   1.000  C
  H123     1.0000 0.90340  0.54140  0.48570  Biso   1.000  H
  C271     1.0000 0.88090  0.57326  0.55650  Biso   1.000  C
  H124     1.0000 0.87930  0.58950  0.51170  Biso   1.000  H
  C272     1.0000 0.91889  0.49314  0.58730  Biso   1.000  C
  C273     1.0000 0.95792  0.51199  0.54490  Biso   1.000  C
  H125     1.0000 0.97080  0.54100  0.53040  Biso   1.000  H
  C274     1.0000 0.81290  0.42600  0.52850  Biso   1.000  C
  C275     1.0000 0.78640  0.37560  0.66490  Biso   1.000  C
  O51      1.0000 0.52033  0.96350  0.91993  Biso   1.000  O
  O52      1.0000 0.51241  0.94811  0.06063  Biso   1.000  O
  C276     1.0000 0.52126  0.94320  0.98683  Biso   1.000  C
  C277     1.0000 0.53559  0.91079  0.96893  Biso   1.000  C
  C278     1.0000 0.53715  0.88585  0.03603  Biso   1.000  C
  H126     1.0000 0.52827  0.88793  0.09083  Biso   1.000  H
  C279     1.0000 0.55261  0.85755  0.01843  Biso   1.000  C
  H127     1.0000 0.55357  0.84063  0.06253  Biso   1.000  H
  C280     1.0000 0.56618  0.85407  0.93913  Biso   1.000  C
  C281     1.0000 0.56251  0.87783  0.87443  Biso   1.000  C
  H128     1.0000 0.57007  0.87473  0.81903  Biso   1.000  H
  C282     1.0000 0.54757  0.90659  0.88983  Biso   1.000  C
  H129     1.0000 0.54597  0.92283  0.84503  Biso   1.000  H
  C283     1.0000 0.58556  0.82647  0.92063  Biso   1.000  C
  C284     1.0000 0.62459  0.84532  0.87823  Biso   1.000  C
  H130     1.0000 0.63747  0.87433  0.86373  Biso   1.000  H
  C285     1.0000 0.47957  0.75933  0.86183  Biso   1.000  C
  C286     1.0000 0.45307  0.70893  0.99823  Biso   1.000  C
  O53      1.0000 0.18699  0.29684  0.25327  Biso   1.000  O
  O54      1.0000 0.17907  0.28145  0.39397  Biso   1.000  O
  C287     1.0000 0.18792  0.27654  0.32017  Biso   1.000  C
  C288     1.0000 0.20225  0.24413  0.30227  Biso   1.000  C
  C289     1.0000 0.20381  0.21919  0.36937  Biso   1.000  C
  H131     1.0000 0.19493  0.22127  0.42417  Biso   1.000  H
  C290     1.0000 0.21927  0.19089  0.35177  Biso   1.000  C
  H132     1.0000 0.22023  0.17397  0.39587  Biso   1.000  H
  C291     1.0000 0.23284  0.18741  0.27247  Biso   1.000  C
  C292     1.0000 0.22917  0.21117  0.20777  Biso   1.000  C
  H133     1.0000 0.23673  0.20807  0.15237  Biso   1.000  H
  C293     1.0000 0.21423  0.23993  0.22317  Biso   1.000  C
  H134     1.0000 0.21263  0.25617  0.17837  Biso   1.000  H
  C294     1.0000 0.25222  0.15981  0.25397  Biso   1.000  C
  C295     1.0000 0.29125  0.17866  0.21157  Biso   1.000  C
  H135     1.0000 0.30413  0.20767  0.19707  Biso   1.000  H
  C296     1.0000 0.14623  0.09267  0.19517  Biso   1.000  C
  C297     1.0000 0.11973  0.04227  0.33157  Biso   1.000  C
  O55      1.0000 0.22349  0.36983  0.41340  Biso   1.000  O
  O56      1.0000 0.23096  0.38522  0.27270  Biso   1.000  O
  C298     1.0000 0.24472  0.39013  0.34650  Biso   1.000  C
  C299     1.0000 0.29146  0.42254  0.36440  Biso   1.000  C
  C300     1.0000 0.31796  0.44748  0.29730  Biso   1.000  C
  H136     1.0000 0.30700  0.44540  0.24250  Biso   1.000  H
  C301     1.0000 0.36172  0.47578  0.31490  Biso   1.000  C
  H137     1.0000 0.37960  0.49270  0.27080  Biso   1.000  H
  C302     1.0000 0.37877  0.47926  0.39420  Biso   1.000  C
  C303     1.0000 0.35134  0.45550  0.45890  Biso   1.000  C
  H138     1.0000 0.36200  0.45860  0.51430  Biso   1.000  H
  C304     1.0000 0.30764  0.42674  0.44350  Biso   1.000  C
  H139     1.0000 0.28980  0.41050  0.48830  Biso   1.000  H
  C305     1.0000 0.42575  0.50686  0.41270  Biso   1.000  C
  C306     1.0000 0.44593  0.48801  0.45510  Biso   1.000  C
  H140     1.0000 0.42980  0.45900  0.46960  Biso   1.000  H
  C307     1.0000 0.38690  0.57400  0.47150  Biso   1.000  C
  C308     1.0000 0.41080  0.62440  0.33510  Biso   1.000  C
  O57      1.0000 0.89016  0.70316  0.74673  Biso   1.000  O
  O58      1.0000 0.89763  0.71855  0.60603  Biso   1.000  O
  C309     1.0000 0.91139  0.72346  0.67983  Biso   1.000  C
  C310     1.0000 0.95813  0.75587  0.69773  Biso   1.000  C
  C311     1.0000 0.98463  0.78081  0.63063  Biso   1.000  C
  H141     1.0000 0.97367  0.77873  0.57583  Biso   1.000  H
  C312     1.0000 0.02839  0.80911  0.64823  Biso   1.000  C
  H142     1.0000 0.04627  0.82603  0.60413  Biso   1.000  H
  C313     1.0000 0.04544  0.81259  0.72753  Biso   1.000  C
  C314     1.0000 0.01801  0.78883  0.79223  Biso   1.000  C
  H143     1.0000 0.02867  0.79193  0.84763  Biso   1.000  H
  C315     1.0000 0.97431  0.76007  0.77683  Biso   1.000  C
  H144     1.0000 0.95647  0.74383  0.82163  Biso   1.000  H
  C316     1.0000 0.09242  0.84019  0.74603  Biso   1.000  C
  C317     1.0000 0.11260  0.82134  0.78843  Biso   1.000  C
  H145     1.0000 0.09647  0.79233  0.80293  Biso   1.000  H
  C318     1.0000 0.05357  0.90733  0.80483  Biso   1.000  C
  C319     1.0000 0.07747  0.95773  0.66843  Biso   1.000  C
  O59      1.0000 0.55682  0.03650  0.08007  Biso   1.000  O
  O60      1.0000 0.56429  0.05189  0.93937  Biso   1.000  O
  C320     1.0000 0.57805  0.05680  0.01317  Biso   1.000  C
  C321     1.0000 0.62479  0.08921  0.03107  Biso   1.000  C
  C322     1.0000 0.65129  0.11415  0.96397  Biso   1.000  C
  H146     1.0000 0.64033  0.11207  0.90917  Biso   1.000  H
  C323     1.0000 0.69505  0.14245  0.98157  Biso   1.000  C
  H147     1.0000 0.71293  0.15937  0.93747  Biso   1.000  H
  C324     1.0000 0.71210  0.14593  0.06087  Biso   1.000  C
  C325     1.0000 0.68467  0.12217  0.12557  Biso   1.000  C
  H148     1.0000 0.69533  0.12527  0.18097  Biso   1.000  H
  C326     1.0000 0.64097  0.09341  0.11017  Biso   1.000  C
  H149     1.0000 0.62313  0.07717  0.15497  Biso   1.000  H
  C327     1.0000 0.75908  0.17353  0.07937  Biso   1.000  C
  C328     1.0000 0.77926  0.15468  0.12177  Biso   1.000  C
  H150     1.0000 0.76313  0.12567  0.13627  Biso   1.000  H
  C329     1.0000 0.72023  0.24067  0.13817  Biso   1.000  C
  C330     1.0000 0.74413  0.29107  0.00177  Biso   1.000  C
  O61      1.0000 0.14634  0.77651  0.41340  Biso   1.000  O
  O62      1.0000 0.15426  0.76904  0.27270  Biso   1.000  O
  C331     1.0000 0.14541  0.75528  0.34650  Biso   1.000  C
  C332     1.0000 0.13108  0.70854  0.36440  Biso   1.000  C
  C333     1.0000 0.12952  0.68204  0.29730  Biso   1.000  C
  H151     1.0000 0.13840  0.69300  0.24250  Biso   1.000  H
  C334     1.0000 0.11406  0.63828  0.31490  Biso   1.000  C
  H152     1.0000 0.11310  0.62040  0.27080  Biso   1.000  H
  C335     1.0000 0.10049  0.62123  0.39420  Biso   1.000  C
  C336     1.0000 0.10416  0.64866  0.45890  Biso   1.000  C
  H153     1.0000 0.09660  0.63800  0.51430  Biso   1.000  H
  C337     1.0000 0.11910  0.69236  0.44350  Biso   1.000  C
  H154     1.0000 0.12070  0.71020  0.48830  Biso   1.000  H
  C338     1.0000 0.08111  0.57425  0.41270  Biso   1.000  C
  C339     1.0000 0.04208  0.55407  0.45510  Biso   1.000  C
  H155     1.0000 0.02920  0.57020  0.46960  Biso   1.000  H
  C340     1.0000 0.18710  0.61310  0.47150  Biso   1.000  C
  C341     1.0000 0.21360  0.58920  0.33510  Biso   1.000  C
  O63      1.0000 0.81301  0.10984  0.74673  Biso   1.000  O
  O64      1.0000 0.82093  0.10237  0.60603  Biso   1.000  O
  C342     1.0000 0.81208  0.08861  0.67983  Biso   1.000  C
  C343     1.0000 0.79775  0.04187  0.69773  Biso   1.000  C
  C344     1.0000 0.79619  0.01537  0.63063  Biso   1.000  C
  H156     1.0000 0.80507  0.02633  0.57583  Biso   1.000  H
  C345     1.0000 0.78073  0.97161  0.64823  Biso   1.000  C
  H157     1.0000 0.77977  0.95373  0.60413  Biso   1.000  H
  C346     1.0000 0.76716  0.95456  0.72753  Biso   1.000  C
  C347     1.0000 0.77083  0.98199  0.79223  Biso   1.000  C
  H158     1.0000 0.76327  0.97133  0.84763  Biso   1.000  H
  C348     1.0000 0.78577  0.02569  0.77683  Biso   1.000  C
  H159     1.0000 0.78737  0.04353  0.82163  Biso   1.000  H
  C349     1.0000 0.74778  0.90758  0.74603  Biso   1.000  C
  C350     1.0000 0.70875  0.88740  0.78843  Biso   1.000  C
  H160     1.0000 0.69587  0.90353  0.80293  Biso   1.000  H
  C351     1.0000 0.85377  0.94643  0.80483  Biso   1.000  C
  C352     1.0000 0.88027  0.92253  0.66843  Biso   1.000  C
  O65      1.0000 0.47967  0.44318  0.08007  Biso   1.000  O
  O66      1.0000 0.48759  0.43571  0.93937  Biso   1.000  O
  C353     1.0000 0.47874  0.42195  0.01317  Biso   1.000  C
  C354     1.0000 0.46441  0.37521  0.03107  Biso   1.000  C
  C355     1.0000 0.46285  0.34871  0.96397  Biso   1.000  C
  H161     1.0000 0.47173  0.35967  0.90917  Biso   1.000  H
  C356     1.0000 0.44739  0.30495  0.98157  Biso   1.000  C
  H162     1.0000 0.44643  0.28707  0.93747  Biso   1.000  H
  C357     1.0000 0.43382  0.28790  0.06087  Biso   1.000  C
  C358     1.0000 0.43749  0.31533  0.12557  Biso   1.000  C
  H163     1.0000 0.42993  0.30467  0.18097  Biso   1.000  H
  C359     1.0000 0.45243  0.35903  0.11017  Biso   1.000  C
  H164     1.0000 0.45403  0.37687  0.15497  Biso   1.000  H
  C360     1.0000 0.41444  0.24092  0.07937  Biso   1.000  C
  C361     1.0000 0.37541  0.22074  0.12177  Biso   1.000  C
  H165     1.0000 0.36253  0.23687  0.13627  Biso   1.000  H
  C362     1.0000 0.52043  0.27977  0.13817  Biso   1.000  C
  C363     1.0000 0.54693  0.25587  0.00177  Biso   1.000  C
  O67      1.0000 0.63017  0.85366  0.41340  Biso   1.000  O
  O68      1.0000 0.61478  0.84574  0.27270  Biso   1.000  O
  C364     1.0000 0.60987  0.85459  0.34650  Biso   1.000  C
  C365     1.0000 0.57746  0.86892  0.36440  Biso   1.000  C
  C366     1.0000 0.55252  0.87048  0.29730  Biso   1.000  C
  H166     1.0000 0.55460  0.86160  0.24250  Biso   1.000  H
  C367     1.0000 0.52422  0.88594  0.31490  Biso   1.000  C
  H167     1.0000 0.50730  0.88690  0.27080  Biso   1.000  H
  C368     1.0000 0.52074  0.89951  0.39420  Biso   1.000  C
  C369     1.0000 0.54450  0.89584  0.45890  Biso   1.000  C
  H168     1.0000 0.54140  0.90340  0.51430  Biso   1.000  H
  C370     1.0000 0.57326  0.88090  0.44350  Biso   1.000  C
  H169     1.0000 0.58950  0.87930  0.48830  Biso   1.000  H
  C371     1.0000 0.49314  0.91889  0.41270  Biso   1.000  C
  C372     1.0000 0.51199  0.95792  0.45510  Biso   1.000  C
  H170     1.0000 0.54100  0.97080  0.46960  Biso   1.000  H
  C373     1.0000 0.42600  0.81290  0.47150  Biso   1.000  C
  C374     1.0000 0.37560  0.78640  0.33510  Biso   1.000  C
  O69      1.0000 0.29684  0.18699  0.74673  Biso   1.000  O
  O70      1.0000 0.28145  0.17907  0.60603  Biso   1.000  O
  C375     1.0000 0.27654  0.18792  0.67983  Biso   1.000  C
  C376     1.0000 0.24413  0.20225  0.69773  Biso   1.000  C
  C377     1.0000 0.21919  0.20381  0.63063  Biso   1.000  C
  H171     1.0000 0.22127  0.19493  0.57583  Biso   1.000  H
  C378     1.0000 0.19089  0.21927  0.64823  Biso   1.000  C
  H172     1.0000 0.17397  0.22023  0.60413  Biso   1.000  H
  C379     1.0000 0.18741  0.23284  0.72753  Biso   1.000  C
  C380     1.0000 0.21117  0.22917  0.79223  Biso   1.000  C
  H173     1.0000 0.20807  0.23673  0.84763  Biso   1.000  H
  C381     1.0000 0.23993  0.21423  0.77683  Biso   1.000  C
  H174     1.0000 0.25617  0.21263  0.82163  Biso   1.000  H
  C382     1.0000 0.15981  0.25222  0.74603  Biso   1.000  C
  C383     1.0000 0.17866  0.29125  0.78843  Biso   1.000  C
  H175     1.0000 0.20767  0.30413  0.80293  Biso   1.000  H
  C384     1.0000 0.09267  0.14623  0.80483  Biso   1.000  C
  C385     1.0000 0.04227  0.11973  0.66843  Biso   1.000  C
  O71      1.0000 0.96350  0.52033  0.08007  Biso   1.000  O
  O72      1.0000 0.94811  0.51241  0.93937  Biso   1.000  O
  C386     1.0000 0.94320  0.52126  0.01317  Biso   1.000  C
  C387     1.0000 0.91079  0.53559  0.03107  Biso   1.000  C
  C388     1.0000 0.88585  0.53715  0.96397  Biso   1.000  C
  H176     1.0000 0.88793  0.52827  0.90917  Biso   1.000  H
  C389     1.0000 0.85755  0.55261  0.98157  Biso   1.000  C
  H177     1.0000 0.84063  0.55357  0.93747  Biso   1.000  H
  C390     1.0000 0.85407  0.56618  0.06087  Biso   1.000  C
  C391     1.0000 0.87783  0.56251  0.12557  Biso   1.000  C
  H178     1.0000 0.87473  0.57007  0.18097  Biso   1.000  H
  C392     1.0000 0.90659  0.54757  0.11017  Biso   1.000  C
  H179     1.0000 0.92283  0.54597  0.15497  Biso   1.000  H
  C393     1.0000 0.82647  0.58556  0.07937  Biso   1.000  C
  C394     1.0000 0.84532  0.62459  0.12177  Biso   1.000  C
  H180     1.0000 0.87433  0.63747  0.13627  Biso   1.000  H
  C395     1.0000 0.75933  0.47957  0.13817  Biso   1.000  C
  C396     1.0000 0.70893  0.45307  0.00177  Biso   1.000  C
  Cu1      1.0000 0.67542  0.83771  0.41635  Biso   1.000  Cu
  Cu2      1.0000 0.34209  0.17104  0.74968  Biso   1.000  Cu
  Cu3      1.0000 0.00875  0.50438  0.08302  Biso   1.000  Cu
  Cu4      1.0000 0.16229  0.83771  0.41635  Biso   1.000  Cu
  Cu5      1.0000 0.82896  0.17104  0.74968  Biso   1.000  Cu
  Cu6      1.0000 0.49562  0.50438  0.08302  Biso   1.000  Cu
  Cu7      1.0000 0.16229  0.32458  0.41635  Biso   1.000  Cu
  Cu8      1.0000 0.82896  0.65791  0.74968  Biso   1.000  Cu
  Cu9      1.0000 0.49562  0.99125  0.08302  Biso   1.000  Cu
  Cu10     1.0000 0.83771  0.67542  0.58365  Biso   1.000  Cu
  Cu11     1.0000 0.50438  0.00875  0.91698  Biso   1.000  Cu
  Cu12     1.0000 0.17104  0.34209  0.25032  Biso   1.000  Cu
  Cu13     1.0000 0.83771  0.16229  0.58365  Biso   1.000  Cu
  Cu14     1.0000 0.50438  0.49562  0.91698  Biso   1.000  Cu
  Cu15     1.0000 0.17104  0.82896  0.25032  Biso   1.000  Cu
  Cu16     1.0000 0.32458  0.16229  0.58365  Biso   1.000  Cu
  Cu17     1.0000 0.99125  0.49562  0.91698  Biso   1.000  Cu
  Cu18     1.0000 0.65791  0.82896  0.25032  Biso   1.000  Cu
  O73      1.0000 0.43014  0.56986  0.34970  Biso   1.000  O
  C397     1.0000 0.48947  0.51053  0.47730  Biso   1.000  C
  C398     1.0000 0.44955  0.55045  0.39170  Biso   1.000  C
  C399     1.0000 0.41130  0.58870  0.38970  Biso   1.000  C
  O74      1.0000 0.09681  0.90319  0.68303  Biso   1.000  O
  C400     1.0000 0.15614  0.84386  0.81063  Biso   1.000  C
  C401     1.0000 0.11622  0.88378  0.72503  Biso   1.000  C
  C402     1.0000 0.07797  0.92203  0.72303  Biso   1.000  C
  O75      1.0000 0.76347  0.23653  0.01637  Biso   1.000  O
  C403     1.0000 0.82280  0.17720  0.14397  Biso   1.000  C
  C404     1.0000 0.78288  0.21712  0.05837  Biso   1.000  C
  C405     1.0000 0.74463  0.25537  0.05637  Biso   1.000  C
  O76      1.0000 0.43014  0.86028  0.34970  Biso   1.000  O
  C406     1.0000 0.48947  0.97894  0.47730  Biso   1.000  C
  C407     1.0000 0.44955  0.89910  0.39170  Biso   1.000  C
  C408     1.0000 0.41130  0.82260  0.38970  Biso   1.000  C
  O77      1.0000 0.09681  0.19361  0.68303  Biso   1.000  O
  C409     1.0000 0.15614  0.31227  0.81063  Biso   1.000  C
  C410     1.0000 0.11622  0.23243  0.72503  Biso   1.000  C
  C411     1.0000 0.07797  0.15593  0.72303  Biso   1.000  C
  O78      1.0000 0.76347  0.52695  0.01637  Biso   1.000  O
  C412     1.0000 0.82280  0.64561  0.14397  Biso   1.000  C
  C413     1.0000 0.78288  0.56577  0.05837  Biso   1.000  C
  C414     1.0000 0.74463  0.48927  0.05637  Biso   1.000  C
  O79      1.0000 0.13972  0.56986  0.34970  Biso   1.000  O
  C415     1.0000 0.02106  0.51053  0.47730  Biso   1.000  C
  C416     1.0000 0.10090  0.55045  0.39170  Biso   1.000  C
  C417     1.0000 0.17740  0.58870  0.38970  Biso   1.000  C
  O80      1.0000 0.80639  0.90319  0.68303  Biso   1.000  O
  C418     1.0000 0.68773  0.84386  0.81063  Biso   1.000  C
  C419     1.0000 0.76757  0.88378  0.72503  Biso   1.000  C
  C420     1.0000 0.84407  0.92203  0.72303  Biso   1.000  C
  O81      1.0000 0.47305  0.23653  0.01637  Biso   1.000  O
  C421     1.0000 0.35439  0.17720  0.14397  Biso   1.000  C
  C422     1.0000 0.43423  0.21712  0.05837  Biso   1.000  C
  C423     1.0000 0.51073  0.25537  0.05637  Biso   1.000  C
  O82      1.0000 0.56986  0.43014  0.65030  Biso   1.000  O
  C424     1.0000 0.51053  0.48947  0.52270  Biso   1.000  C
  C425     1.0000 0.55045  0.44955  0.60830  Biso   1.000  C
  C426     1.0000 0.58870  0.41130  0.61030  Biso   1.000  C
  O83      1.0000 0.23653  0.76347  0.98363  Biso   1.000  O
  C427     1.0000 0.17720  0.82280  0.85603  Biso   1.000  C
  C428     1.0000 0.21712  0.78288  0.94163  Biso   1.000  C
  C429     1.0000 0.25537  0.74463  0.94363  Biso   1.000  C
  O84      1.0000 0.90319  0.09681  0.31697  Biso   1.000  O
  C430     1.0000 0.84386  0.15614  0.18937  Biso   1.000  C
  C431     1.0000 0.88378  0.11622  0.27497  Biso   1.000  C
  C432     1.0000 0.92203  0.07797  0.27697  Biso   1.000  C
  O85      1.0000 0.86028  0.43014  0.65030  Biso   1.000  O
  C433     1.0000 0.97894  0.48947  0.52270  Biso   1.000  C
  C434     1.0000 0.89910  0.44955  0.60830  Biso   1.000  C
  C435     1.0000 0.82260  0.41130  0.61030  Biso   1.000  C
  O86      1.0000 0.52695  0.76347  0.98363  Biso   1.000  O
  C436     1.0000 0.64561  0.82280  0.85603  Biso   1.000  C
  C437     1.0000 0.56577  0.78288  0.94163  Biso   1.000  C
  C438     1.0000 0.48927  0.74463  0.94363  Biso   1.000  C
  O87      1.0000 0.19361  0.09681  0.31697  Biso   1.000  O
  C439     1.0000 0.31227  0.15614  0.18937  Biso   1.000  C
  C440     1.0000 0.23243  0.11622  0.27497  Biso   1.000  C
  C441     1.0000 0.15593  0.07797  0.27697  Biso   1.000  C
  O88      1.0000 0.56986  0.13972  0.65030  Biso   1.000  O
  C442     1.0000 0.51053  0.02106  0.52270  Biso   1.000  C
  C443     1.0000 0.55045  0.10090  0.60830  Biso   1.000  C
  C444     1.0000 0.58870  0.17740  0.61030  Biso   1.000  C
  O89      1.0000 0.23653  0.47305  0.98363  Biso   1.000  O
  C445     1.0000 0.17720  0.35439  0.85603  Biso   1.000  C
  C446     1.0000 0.21712  0.43423  0.94163  Biso   1.000  C
  C447     1.0000 0.25537  0.51073  0.94363  Biso   1.000  C
  O90      1.0000 0.90319  0.80639  0.31697  Biso   1.000  O
  C448     1.0000 0.84386  0.68773  0.18937  Biso   1.000  C
  C449     1.0000 0.88378  0.76757  0.27497  Biso   1.000  C
  C450     1.0000 0.92203  0.84407  0.27697  Biso   1.000  C
