data_image0
_cell_length_a       35.123
_cell_length_b       35.123
_cell_length_c       22.3916
_cell_angle_alpha    90
_cell_angle_beta     90
_cell_angle_gamma    120

_symmetry_space_group_name_H-M    "P 1"
_symmetry_int_tables_number       1

loop_
  _symmetry_equiv_pos_as_xyz
  'x, y, z'

loop_
  _atom_site_label
  _atom_site_occupancy
  _atom_site_fract_x
  _atom_site_fract_y
  _atom_site_fract_z
  _atom_site_thermal_displace_type
  _atom_site_B_iso_or_equiv
  _atom_site_type_symbol
  O1       1.0000 0.55355  0.02863  0.56838  Biso   1.000  O
  O2       1.0000 0.56737  0.05594  0.47484  Biso   1.000  O
  C1       1.0000 0.57817  0.05427  0.52754  Biso   1.000  C
  C2       1.0000 0.62516  0.08565  0.54513  Biso   1.000  C
  C3       1.0000 0.65557  0.11373  0.50301  Biso   1.000  C
  H1       1.0000 0.64690  0.11350  0.46370  Biso   1.000  H
  C4       1.0000 0.69845  0.14178  0.51977  Biso   1.000  C
  H2       1.0000 0.71830  0.16060  0.49140  Biso   1.000  H
  C5       1.0000 0.71270  0.14276  0.57723  Biso   1.000  C
  C6       1.0000 0.68259  0.11475  0.61991  Biso   1.000  C
  H3       1.0000 0.69140  0.11500  0.65920  Biso   1.000  H
  C7       1.0000 0.63915  0.08639  0.60256  Biso   1.000  C
  H4       1.0000 0.61920  0.06750  0.63070  Biso   1.000  H
  C8       1.0000 0.75957  0.17099  0.59572  Biso   1.000  C
  C9       1.0000 0.77952  0.15311  0.62968  Biso   1.000  C
  H5       1.0000 0.76300  0.12370  0.64080  Biso   1.000  H
  H6       1.0000 0.70730  0.24800  0.63550  Biso   1.000  H
  H7       1.0000 0.74080  0.30380  0.53100  Biso   1.000  H
  O3       1.0000 0.22022  0.36196  0.90171  Biso   1.000  O
  O4       1.0000 0.23404  0.38927  0.80817  Biso   1.000  O
  C10      1.0000 0.24484  0.38760  0.86087  Biso   1.000  C
  C11      1.0000 0.29183  0.41898  0.87846  Biso   1.000  C
  C12      1.0000 0.32224  0.44706  0.83634  Biso   1.000  C
  H8       1.0000 0.31357  0.44683  0.79703  Biso   1.000  H
  C13      1.0000 0.36512  0.47511  0.85310  Biso   1.000  C
  H9       1.0000 0.38497  0.49393  0.82473  Biso   1.000  H
  C14      1.0000 0.37937  0.47609  0.91056  Biso   1.000  C
  C15      1.0000 0.34926  0.44808  0.95324  Biso   1.000  C
  H10      1.0000 0.35807  0.44833  0.99253  Biso   1.000  H
  C16      1.0000 0.30582  0.41972  0.93589  Biso   1.000  C
  H11      1.0000 0.28587  0.40083  0.96403  Biso   1.000  H
  C17      1.0000 0.42624  0.50432  0.92905  Biso   1.000  C
  C18      1.0000 0.44619  0.48644  0.96301  Biso   1.000  C
  H12      1.0000 0.42967  0.45703  0.97413  Biso   1.000  H
  H13      1.0000 0.37397  0.58133  0.96883  Biso   1.000  H
  H14      1.0000 0.40747  0.63713  0.86433  Biso   1.000  H
  O5       1.0000 0.88688  0.69530  0.23505  Biso   1.000  O
  O6       1.0000 0.90070  0.72261  0.14151  Biso   1.000  O
  C19      1.0000 0.91150  0.72094  0.19421  Biso   1.000  C
  C20      1.0000 0.95849  0.75232  0.21180  Biso   1.000  C
  C21      1.0000 0.98890  0.78040  0.16968  Biso   1.000  C
  H15      1.0000 0.98023  0.78017  0.13037  Biso   1.000  H
  C22      1.0000 0.03178  0.80845  0.18644  Biso   1.000  C
  H16      1.0000 0.05163  0.82727  0.15807  Biso   1.000  H
  C23      1.0000 0.04603  0.80943  0.24390  Biso   1.000  C
  C24      1.0000 0.01592  0.78142  0.28658  Biso   1.000  C
  H17      1.0000 0.02473  0.78167  0.32587  Biso   1.000  H
  C25      1.0000 0.97248  0.75306  0.26923  Biso   1.000  C
  H18      1.0000 0.95253  0.73417  0.29737  Biso   1.000  H
  C26      1.0000 0.09290  0.83766  0.26239  Biso   1.000  C
  C27      1.0000 0.11285  0.81978  0.29635  Biso   1.000  C
  H19      1.0000 0.09633  0.79037  0.30747  Biso   1.000  H
  H20      1.0000 0.04063  0.91467  0.30217  Biso   1.000  H
  H21      1.0000 0.07413  0.97047  0.19767  Biso   1.000  H
  O7       1.0000 0.97137  0.52492  0.56838  Biso   1.000  O
  O8       1.0000 0.94406  0.51143  0.47484  Biso   1.000  O
  C28      1.0000 0.94573  0.52390  0.52754  Biso   1.000  C
  C29      1.0000 0.91435  0.53951  0.54513  Biso   1.000  C
  C30      1.0000 0.88627  0.54184  0.50301  Biso   1.000  C
  H22      1.0000 0.88650  0.53340  0.46370  Biso   1.000  H
  C31      1.0000 0.85822  0.55667  0.51977  Biso   1.000  C
  H23      1.0000 0.83940  0.55770  0.49140  Biso   1.000  H
  C32      1.0000 0.85724  0.56994  0.57723  Biso   1.000  C
  C33      1.0000 0.88525  0.56784  0.61991  Biso   1.000  C
  H24      1.0000 0.88500  0.57640  0.65920  Biso   1.000  H
  C34      1.0000 0.91361  0.55276  0.60256  Biso   1.000  C
  H25      1.0000 0.93250  0.55170  0.63070  Biso   1.000  H
  C35      1.0000 0.82901  0.58858  0.59572  Biso   1.000  C
  C36      1.0000 0.84689  0.62641  0.62968  Biso   1.000  C
  H26      1.0000 0.87630  0.63930  0.64080  Biso   1.000  H
  H27      1.0000 0.75200  0.45930  0.63550  Biso   1.000  H
  H28      1.0000 0.69620  0.43700  0.53100  Biso   1.000  H
  O9       1.0000 0.63804  0.85825  0.90171  Biso   1.000  O
  O10      1.0000 0.61073  0.84476  0.80817  Biso   1.000  O
  C37      1.0000 0.61240  0.85723  0.86087  Biso   1.000  C
  C38      1.0000 0.58102  0.87284  0.87846  Biso   1.000  C
  C39      1.0000 0.55294  0.87517  0.83634  Biso   1.000  C
  H29      1.0000 0.55317  0.86673  0.79703  Biso   1.000  H
  C40      1.0000 0.52489  0.89000  0.85310  Biso   1.000  C
  H30      1.0000 0.50607  0.89103  0.82473  Biso   1.000  H
  C41      1.0000 0.52391  0.90327  0.91056  Biso   1.000  C
  C42      1.0000 0.55192  0.90117  0.95324  Biso   1.000  C
  H31      1.0000 0.55167  0.90973  0.99253  Biso   1.000  H
  C43      1.0000 0.58028  0.88609  0.93589  Biso   1.000  C
  H32      1.0000 0.59917  0.88503  0.96403  Biso   1.000  H
  C44      1.0000 0.49568  0.92191  0.92905  Biso   1.000  C
  C45      1.0000 0.51356  0.95974  0.96301  Biso   1.000  C
  H33      1.0000 0.54297  0.97263  0.97413  Biso   1.000  H
  H34      1.0000 0.41867  0.79263  0.96883  Biso   1.000  H
  H35      1.0000 0.36287  0.77033  0.86433  Biso   1.000  H
  O11      1.0000 0.30470  0.19159  0.23505  Biso   1.000  O
  O12      1.0000 0.27739  0.17810  0.14151  Biso   1.000  O
  C46      1.0000 0.27906  0.19057  0.19421  Biso   1.000  C
  C47      1.0000 0.24768  0.20618  0.21180  Biso   1.000  C
  C48      1.0000 0.21960  0.20851  0.16968  Biso   1.000  C
  H36      1.0000 0.21983  0.20007  0.13037  Biso   1.000  H
  C49      1.0000 0.19155  0.22334  0.18644  Biso   1.000  C
  H37      1.0000 0.17273  0.22437  0.15807  Biso   1.000  H
  C50      1.0000 0.19057  0.23661  0.24390  Biso   1.000  C
  C51      1.0000 0.21858  0.23451  0.28658  Biso   1.000  C
  H38      1.0000 0.21833  0.24307  0.32587  Biso   1.000  H
  C52      1.0000 0.24694  0.21943  0.26923  Biso   1.000  C
  H39      1.0000 0.26583  0.21837  0.29737  Biso   1.000  H
  C53      1.0000 0.16234  0.25525  0.26239  Biso   1.000  C
  C54      1.0000 0.18022  0.29308  0.29635  Biso   1.000  C
  H40      1.0000 0.20963  0.30597  0.30747  Biso   1.000  H
  H41      1.0000 0.08533  0.12597  0.30217  Biso   1.000  H
  H42      1.0000 0.02953  0.10367  0.19767  Biso   1.000  H
  O13      1.0000 0.47508  0.44645  0.56838  Biso   1.000  O
  O14      1.0000 0.48857  0.43263  0.47484  Biso   1.000  O
  C55      1.0000 0.47610  0.42183  0.52754  Biso   1.000  C
  C56      1.0000 0.46049  0.37484  0.54513  Biso   1.000  C
  C57      1.0000 0.45816  0.34443  0.50301  Biso   1.000  C
  H43      1.0000 0.46660  0.35310  0.46370  Biso   1.000  H
  C58      1.0000 0.44333  0.30155  0.51977  Biso   1.000  C
  H44      1.0000 0.44230  0.28170  0.49140  Biso   1.000  H
  C59      1.0000 0.43006  0.28730  0.57723  Biso   1.000  C
  C60      1.0000 0.43216  0.31741  0.61991  Biso   1.000  C
  H45      1.0000 0.42360  0.30860  0.65920  Biso   1.000  H
  C61      1.0000 0.44724  0.36085  0.60256  Biso   1.000  C
  H46      1.0000 0.44830  0.38080  0.63070  Biso   1.000  H
  C62      1.0000 0.41142  0.24043  0.59572  Biso   1.000  C
  C63      1.0000 0.37359  0.22048  0.62968  Biso   1.000  C
  H47      1.0000 0.36070  0.23700  0.64080  Biso   1.000  H
  H48      1.0000 0.54070  0.29270  0.63550  Biso   1.000  H
  H49      1.0000 0.56300  0.25920  0.53100  Biso   1.000  H
  O15      1.0000 0.14175  0.77978  0.90171  Biso   1.000  O
  O16      1.0000 0.15524  0.76596  0.80817  Biso   1.000  O
  C64      1.0000 0.14277  0.75516  0.86087  Biso   1.000  C
  C65      1.0000 0.12716  0.70817  0.87846  Biso   1.000  C
  C66      1.0000 0.12483  0.67776  0.83634  Biso   1.000  C
  H50      1.0000 0.13327  0.68643  0.79703  Biso   1.000  H
  C67      1.0000 0.11000  0.63488  0.85310  Biso   1.000  C
  H51      1.0000 0.10897  0.61503  0.82473  Biso   1.000  H
  C68      1.0000 0.09673  0.62063  0.91056  Biso   1.000  C
  C69      1.0000 0.09883  0.65074  0.95324  Biso   1.000  C
  H52      1.0000 0.09027  0.64193  0.99253  Biso   1.000  H
  C70      1.0000 0.11391  0.69418  0.93589  Biso   1.000  C
  H53      1.0000 0.11497  0.71413  0.96403  Biso   1.000  H
  C71      1.0000 0.07809  0.57376  0.92905  Biso   1.000  C
  C72      1.0000 0.04026  0.55381  0.96301  Biso   1.000  C
  H54      1.0000 0.02737  0.57033  0.97413  Biso   1.000  H
  H55      1.0000 0.20737  0.62603  0.96883  Biso   1.000  H
  H56      1.0000 0.22967  0.59253  0.86433  Biso   1.000  H
  O17      1.0000 0.80841  0.11312  0.23505  Biso   1.000  O
  O18      1.0000 0.82190  0.09930  0.14151  Biso   1.000  O
  C73      1.0000 0.80943  0.08850  0.19421  Biso   1.000  C
  C74      1.0000 0.79382  0.04151  0.21180  Biso   1.000  C
  C75      1.0000 0.79149  0.01110  0.16968  Biso   1.000  C
  H57      1.0000 0.79993  0.01977  0.13037  Biso   1.000  H
  C76      1.0000 0.77666  0.96822  0.18644  Biso   1.000  C
  H58      1.0000 0.77563  0.94837  0.15807  Biso   1.000  H
  C77      1.0000 0.76339  0.95397  0.24390  Biso   1.000  C
  C78      1.0000 0.76549  0.98408  0.28658  Biso   1.000  C
  H59      1.0000 0.75693  0.97527  0.32587  Biso   1.000  H
  C79      1.0000 0.78057  0.02752  0.26923  Biso   1.000  C
  H60      1.0000 0.78163  0.04747  0.29737  Biso   1.000  H
  C80      1.0000 0.74475  0.90710  0.26239  Biso   1.000  C
  C81      1.0000 0.70692  0.88715  0.29635  Biso   1.000  C
  H61      1.0000 0.69403  0.90367  0.30747  Biso   1.000  H
  H62      1.0000 0.87403  0.95937  0.30217  Biso   1.000  H
  H63      1.0000 0.89633  0.92587  0.19767  Biso   1.000  H
  O19      1.0000 0.02863  0.55355  0.43162  Biso   1.000  O
  O20      1.0000 0.05594  0.56737  0.52516  Biso   1.000  O
  C82      1.0000 0.05427  0.57817  0.47246  Biso   1.000  C
  C83      1.0000 0.08565  0.62516  0.45487  Biso   1.000  C
  C84      1.0000 0.11373  0.65557  0.49699  Biso   1.000  C
  H64      1.0000 0.11350  0.64690  0.53630  Biso   1.000  H
  C85      1.0000 0.14178  0.69845  0.48023  Biso   1.000  C
  H65      1.0000 0.16060  0.71830  0.50860  Biso   1.000  H
  C86      1.0000 0.14276  0.71270  0.42277  Biso   1.000  C
  C87      1.0000 0.11475  0.68259  0.38009  Biso   1.000  C
  H66      1.0000 0.11500  0.69140  0.34080  Biso   1.000  H
  C88      1.0000 0.08639  0.63915  0.39744  Biso   1.000  C
  H67      1.0000 0.06750  0.61920  0.36930  Biso   1.000  H
  C89      1.0000 0.17099  0.75957  0.40428  Biso   1.000  C
  C90      1.0000 0.15311  0.77952  0.37032  Biso   1.000  C
  H68      1.0000 0.12370  0.76300  0.35920  Biso   1.000  H
  H69      1.0000 0.24800  0.70730  0.36450  Biso   1.000  H
  H70      1.0000 0.30380  0.74080  0.46900  Biso   1.000  H
  O21      1.0000 0.69530  0.88688  0.76495  Biso   1.000  O
  O22      1.0000 0.72261  0.90070  0.85849  Biso   1.000  O
  C91      1.0000 0.72094  0.91150  0.80579  Biso   1.000  C
  C92      1.0000 0.75232  0.95849  0.78820  Biso   1.000  C
  C93      1.0000 0.78040  0.98890  0.83032  Biso   1.000  C
  H71      1.0000 0.78017  0.98023  0.86963  Biso   1.000  H
  C94      1.0000 0.80845  0.03178  0.81356  Biso   1.000  C
  H72      1.0000 0.82727  0.05163  0.84193  Biso   1.000  H
  C95      1.0000 0.80943  0.04603  0.75610  Biso   1.000  C
  C96      1.0000 0.78142  0.01592  0.71342  Biso   1.000  C
  H73      1.0000 0.78167  0.02473  0.67413  Biso   1.000  H
  C97      1.0000 0.75306  0.97248  0.73077  Biso   1.000  C
  H74      1.0000 0.73417  0.95253  0.70263  Biso   1.000  H
  C98      1.0000 0.83766  0.09290  0.73761  Biso   1.000  C
  C99      1.0000 0.81978  0.11285  0.70365  Biso   1.000  C
  H75      1.0000 0.79037  0.09633  0.69253  Biso   1.000  H
  H76      1.0000 0.91467  0.04063  0.69783  Biso   1.000  H
  H77      1.0000 0.97047  0.07413  0.80233  Biso   1.000  H
  O23      1.0000 0.36196  0.22022  0.09829  Biso   1.000  O
  O24      1.0000 0.38927  0.23404  0.19183  Biso   1.000  O
  C100     1.0000 0.38760  0.24484  0.13913  Biso   1.000  C
  C101     1.0000 0.41898  0.29183  0.12154  Biso   1.000  C
  C102     1.0000 0.44706  0.32224  0.16366  Biso   1.000  C
  H78      1.0000 0.44683  0.31357  0.20297  Biso   1.000  H
  C103     1.0000 0.47511  0.36512  0.14690  Biso   1.000  C
  H79      1.0000 0.49393  0.38497  0.17527  Biso   1.000  H
  C104     1.0000 0.47609  0.37937  0.08944  Biso   1.000  C
  C105     1.0000 0.44808  0.34926  0.04676  Biso   1.000  C
  H80      1.0000 0.44833  0.35807  0.00747  Biso   1.000  H
  C106     1.0000 0.41972  0.30582  0.06411  Biso   1.000  C
  H81      1.0000 0.40083  0.28587  0.03597  Biso   1.000  H
  C107     1.0000 0.50432  0.42624  0.07095  Biso   1.000  C
  C108     1.0000 0.48644  0.44619  0.03699  Biso   1.000  C
  H82      1.0000 0.45703  0.42967  0.02587  Biso   1.000  H
  H83      1.0000 0.58133  0.37397  0.03117  Biso   1.000  H
  H84      1.0000 0.63713  0.40747  0.13567  Biso   1.000  H
  O25      1.0000 0.52492  0.97137  0.43162  Biso   1.000  O
  O26      1.0000 0.51143  0.94406  0.52516  Biso   1.000  O
  C109     1.0000 0.52390  0.94573  0.47246  Biso   1.000  C
  C110     1.0000 0.53951  0.91435  0.45487  Biso   1.000  C
  C111     1.0000 0.54184  0.88627  0.49699  Biso   1.000  C
  H85      1.0000 0.53340  0.88650  0.53630  Biso   1.000  H
  C112     1.0000 0.55667  0.85822  0.48023  Biso   1.000  C
  H86      1.0000 0.55770  0.83940  0.50860  Biso   1.000  H
  C113     1.0000 0.56994  0.85724  0.42277  Biso   1.000  C
  C114     1.0000 0.56784  0.88525  0.38009  Biso   1.000  C
  H87      1.0000 0.57640  0.88500  0.34080  Biso   1.000  H
  C115     1.0000 0.55276  0.91361  0.39744  Biso   1.000  C
  H88      1.0000 0.55170  0.93250  0.36930  Biso   1.000  H
  C116     1.0000 0.58858  0.82901  0.40428  Biso   1.000  C
  C117     1.0000 0.62641  0.84689  0.37032  Biso   1.000  C
  H89      1.0000 0.63930  0.87630  0.35920  Biso   1.000  H
  H90      1.0000 0.45930  0.75200  0.36450  Biso   1.000  H
  H91      1.0000 0.43700  0.69620  0.46900  Biso   1.000  H
  O27      1.0000 0.19159  0.30470  0.76495  Biso   1.000  O
  O28      1.0000 0.17810  0.27739  0.85849  Biso   1.000  O
  C118     1.0000 0.19057  0.27906  0.80579  Biso   1.000  C
  C119     1.0000 0.20618  0.24768  0.78820  Biso   1.000  C
  C120     1.0000 0.20851  0.21960  0.83032  Biso   1.000  C
  H92      1.0000 0.20007  0.21983  0.86963  Biso   1.000  H
  C121     1.0000 0.22334  0.19155  0.81356  Biso   1.000  C
  H93      1.0000 0.22437  0.17273  0.84193  Biso   1.000  H
  C122     1.0000 0.23661  0.19057  0.75610  Biso   1.000  C
  C123     1.0000 0.23451  0.21858  0.71342  Biso   1.000  C
  H94      1.0000 0.24307  0.21833  0.67413  Biso   1.000  H
  C124     1.0000 0.21943  0.24694  0.73077  Biso   1.000  C
  H95      1.0000 0.21837  0.26583  0.70263  Biso   1.000  H
  C125     1.0000 0.25525  0.16234  0.73761  Biso   1.000  C
  C126     1.0000 0.29308  0.18022  0.70365  Biso   1.000  C
  H96      1.0000 0.30597  0.20963  0.69253  Biso   1.000  H
  H97      1.0000 0.12597  0.08533  0.69783  Biso   1.000  H
  H98      1.0000 0.10367  0.02953  0.80233  Biso   1.000  H
  O29      1.0000 0.85825  0.63804  0.09829  Biso   1.000  O
  O30      1.0000 0.84476  0.61073  0.19183  Biso   1.000  O
  C127     1.0000 0.85723  0.61240  0.13913  Biso   1.000  C
  C128     1.0000 0.87284  0.58102  0.12154  Biso   1.000  C
  C129     1.0000 0.87517  0.55294  0.16366  Biso   1.000  C
  H99      1.0000 0.86673  0.55317  0.20297  Biso   1.000  H
  C130     1.0000 0.89000  0.52489  0.14690  Biso   1.000  C
  H100     1.0000 0.89103  0.50607  0.17527  Biso   1.000  H
  C131     1.0000 0.90327  0.52391  0.08944  Biso   1.000  C
  C132     1.0000 0.90117  0.55192  0.04676  Biso   1.000  C
  H101     1.0000 0.90973  0.55167  0.00747  Biso   1.000  H
  C133     1.0000 0.88609  0.58028  0.06411  Biso   1.000  C
  H102     1.0000 0.88503  0.59917  0.03597  Biso   1.000  H
  C134     1.0000 0.92191  0.49568  0.07095  Biso   1.000  C
  C135     1.0000 0.95974  0.51356  0.03699  Biso   1.000  C
  H103     1.0000 0.97263  0.54297  0.02587  Biso   1.000  H
  H104     1.0000 0.79263  0.41867  0.03117  Biso   1.000  H
  H105     1.0000 0.77033  0.36287  0.13567  Biso   1.000  H
  O31      1.0000 0.44645  0.47508  0.43162  Biso   1.000  O
  O32      1.0000 0.43263  0.48857  0.52516  Biso   1.000  O
  C136     1.0000 0.42183  0.47610  0.47246  Biso   1.000  C
  C137     1.0000 0.37484  0.46049  0.45487  Biso   1.000  C
  C138     1.0000 0.34443  0.45816  0.49699  Biso   1.000  C
  H106     1.0000 0.35310  0.46660  0.53630  Biso   1.000  H
  C139     1.0000 0.30155  0.44333  0.48023  Biso   1.000  C
  H107     1.0000 0.28170  0.44230  0.50860  Biso   1.000  H
  C140     1.0000 0.28730  0.43006  0.42277  Biso   1.000  C
  C141     1.0000 0.31741  0.43216  0.38009  Biso   1.000  C
  H108     1.0000 0.30860  0.42360  0.34080  Biso   1.000  H
  C142     1.0000 0.36085  0.44724  0.39744  Biso   1.000  C
  H109     1.0000 0.38080  0.44830  0.36930  Biso   1.000  H
  C143     1.0000 0.24043  0.41142  0.40428  Biso   1.000  C
  C144     1.0000 0.22048  0.37359  0.37032  Biso   1.000  C
  H110     1.0000 0.23700  0.36070  0.35920  Biso   1.000  H
  H111     1.0000 0.29270  0.54070  0.36450  Biso   1.000  H
  H112     1.0000 0.25920  0.56300  0.46900  Biso   1.000  H
  O33      1.0000 0.11312  0.80841  0.76495  Biso   1.000  O
  O34      1.0000 0.09930  0.82190  0.85849  Biso   1.000  O
  C145     1.0000 0.08850  0.80943  0.80579  Biso   1.000  C
  C146     1.0000 0.04151  0.79382  0.78820  Biso   1.000  C
  C147     1.0000 0.01110  0.79149  0.83032  Biso   1.000  C
  H113     1.0000 0.01977  0.79993  0.86963  Biso   1.000  H
  C148     1.0000 0.96822  0.77666  0.81356  Biso   1.000  C
  H114     1.0000 0.94837  0.77563  0.84193  Biso   1.000  H
  C149     1.0000 0.95397  0.76339  0.75610  Biso   1.000  C
  C150     1.0000 0.98408  0.76549  0.71342  Biso   1.000  C
  H115     1.0000 0.97527  0.75693  0.67413  Biso   1.000  H
  C151     1.0000 0.02752  0.78057  0.73077  Biso   1.000  C
  H116     1.0000 0.04747  0.78163  0.70263  Biso   1.000  H
  C152     1.0000 0.90710  0.74475  0.73761  Biso   1.000  C
  C153     1.0000 0.88715  0.70692  0.70365  Biso   1.000  C
  H117     1.0000 0.90367  0.69403  0.69253  Biso   1.000  H
  H118     1.0000 0.95937  0.87403  0.69783  Biso   1.000  H
  H119     1.0000 0.92587  0.89633  0.80233  Biso   1.000  H
  O35      1.0000 0.77978  0.14175  0.09829  Biso   1.000  O
  O36      1.0000 0.76596  0.15524  0.19183  Biso   1.000  O
  C154     1.0000 0.75516  0.14277  0.13913  Biso   1.000  C
  C155     1.0000 0.70817  0.12716  0.12154  Biso   1.000  C
  C156     1.0000 0.67776  0.12483  0.16366  Biso   1.000  C
  H120     1.0000 0.68643  0.13327  0.20297  Biso   1.000  H
  C157     1.0000 0.63488  0.11000  0.14690  Biso   1.000  C
  H121     1.0000 0.61503  0.10897  0.17527  Biso   1.000  H
  C158     1.0000 0.62063  0.09673  0.08944  Biso   1.000  C
  C159     1.0000 0.65074  0.09883  0.04676  Biso   1.000  C
  H122     1.0000 0.64193  0.09027  0.00747  Biso   1.000  H
  C160     1.0000 0.69418  0.11391  0.06411  Biso   1.000  C
  H123     1.0000 0.71413  0.11497  0.03597  Biso   1.000  H
  C161     1.0000 0.57376  0.07809  0.07095  Biso   1.000  C
  C162     1.0000 0.55381  0.04026  0.03699  Biso   1.000  C
  H124     1.0000 0.57033  0.02737  0.02587  Biso   1.000  H
  H125     1.0000 0.62603  0.20737  0.03117  Biso   1.000  H
  H126     1.0000 0.59253  0.22967  0.13567  Biso   1.000  H
  O37      1.0000 0.44645  0.97137  0.43162  Biso   1.000  O
  O38      1.0000 0.43263  0.94406  0.52516  Biso   1.000  O
  C163     1.0000 0.42183  0.94573  0.47246  Biso   1.000  C
  C164     1.0000 0.37484  0.91435  0.45487  Biso   1.000  C
  C165     1.0000 0.34443  0.88627  0.49699  Biso   1.000  C
  H127     1.0000 0.35310  0.88650  0.53630  Biso   1.000  H
  C166     1.0000 0.30155  0.85822  0.48023  Biso   1.000  C
  H128     1.0000 0.28170  0.83940  0.50860  Biso   1.000  H
  C167     1.0000 0.28730  0.85724  0.42277  Biso   1.000  C
  C168     1.0000 0.31741  0.88525  0.38009  Biso   1.000  C
  H129     1.0000 0.30860  0.88500  0.34080  Biso   1.000  H
  C169     1.0000 0.36085  0.91361  0.39744  Biso   1.000  C
  H130     1.0000 0.38080  0.93250  0.36930  Biso   1.000  H
  C170     1.0000 0.24043  0.82901  0.40428  Biso   1.000  C
  C171     1.0000 0.22048  0.84689  0.37032  Biso   1.000  C
  H131     1.0000 0.23700  0.87630  0.35920  Biso   1.000  H
  H132     1.0000 0.29270  0.75200  0.36450  Biso   1.000  H
  H133     1.0000 0.25920  0.69620  0.46900  Biso   1.000  H
  O39      1.0000 0.11312  0.30470  0.76495  Biso   1.000  O
  O40      1.0000 0.09930  0.27739  0.85849  Biso   1.000  O
  C172     1.0000 0.08850  0.27906  0.80579  Biso   1.000  C
  C173     1.0000 0.04151  0.24768  0.78820  Biso   1.000  C
  C174     1.0000 0.01110  0.21960  0.83032  Biso   1.000  C
  H134     1.0000 0.01977  0.21983  0.86963  Biso   1.000  H
  C175     1.0000 0.96822  0.19155  0.81356  Biso   1.000  C
  H135     1.0000 0.94837  0.17273  0.84193  Biso   1.000  H
  C176     1.0000 0.95397  0.19057  0.75610  Biso   1.000  C
  C177     1.0000 0.98408  0.21858  0.71342  Biso   1.000  C
  H136     1.0000 0.97527  0.21833  0.67413  Biso   1.000  H
  C178     1.0000 0.02752  0.24694  0.73077  Biso   1.000  C
  H137     1.0000 0.04747  0.26583  0.70263  Biso   1.000  H
  C179     1.0000 0.90710  0.16234  0.73761  Biso   1.000  C
  C180     1.0000 0.88715  0.18022  0.70365  Biso   1.000  C
  H138     1.0000 0.90367  0.20963  0.69253  Biso   1.000  H
  H139     1.0000 0.95937  0.08533  0.69783  Biso   1.000  H
  H140     1.0000 0.92587  0.02953  0.80233  Biso   1.000  H
  O41      1.0000 0.77978  0.63804  0.09829  Biso   1.000  O
  O42      1.0000 0.76596  0.61073  0.19183  Biso   1.000  O
  C181     1.0000 0.75516  0.61240  0.13913  Biso   1.000  C
  C182     1.0000 0.70817  0.58102  0.12154  Biso   1.000  C
  C183     1.0000 0.67776  0.55294  0.16366  Biso   1.000  C
  H141     1.0000 0.68643  0.55317  0.20297  Biso   1.000  H
  C184     1.0000 0.63488  0.52489  0.14690  Biso   1.000  C
  H142     1.0000 0.61503  0.50607  0.17527  Biso   1.000  H
  C185     1.0000 0.62063  0.52391  0.08944  Biso   1.000  C
  C186     1.0000 0.65074  0.55192  0.04676  Biso   1.000  C
  H143     1.0000 0.64193  0.55167  0.00747  Biso   1.000  H
  C187     1.0000 0.69418  0.58028  0.06411  Biso   1.000  C
  H144     1.0000 0.71413  0.59917  0.03597  Biso   1.000  H
  C188     1.0000 0.57376  0.49568  0.07095  Biso   1.000  C
  C189     1.0000 0.55381  0.51356  0.03699  Biso   1.000  C
  H145     1.0000 0.57033  0.54297  0.02587  Biso   1.000  H
  H146     1.0000 0.62603  0.41867  0.03117  Biso   1.000  H
  H147     1.0000 0.59253  0.36287  0.13567  Biso   1.000  H
  O43      1.0000 0.02863  0.47508  0.43162  Biso   1.000  O
  O44      1.0000 0.05594  0.48857  0.52516  Biso   1.000  O
  C190     1.0000 0.05427  0.47610  0.47246  Biso   1.000  C
  C191     1.0000 0.08565  0.46049  0.45487  Biso   1.000  C
  C192     1.0000 0.11373  0.45816  0.49699  Biso   1.000  C
  H148     1.0000 0.11350  0.46660  0.53630  Biso   1.000  H
  C193     1.0000 0.14178  0.44333  0.48023  Biso   1.000  C
  H149     1.0000 0.16060  0.44230  0.50860  Biso   1.000  H
  C194     1.0000 0.14276  0.43006  0.42277  Biso   1.000  C
  C195     1.0000 0.11475  0.43216  0.38009  Biso   1.000  C
  H150     1.0000 0.11500  0.42360  0.34080  Biso   1.000  H
  C196     1.0000 0.08639  0.44724  0.39744  Biso   1.000  C
  H151     1.0000 0.06750  0.44830  0.36930  Biso   1.000  H
  C197     1.0000 0.17099  0.41142  0.40428  Biso   1.000  C
  C198     1.0000 0.15311  0.37359  0.37032  Biso   1.000  C
  H152     1.0000 0.12370  0.36070  0.35920  Biso   1.000  H
  H153     1.0000 0.24800  0.54070  0.36450  Biso   1.000  H
  H154     1.0000 0.30380  0.56300  0.46900  Biso   1.000  H
  O45      1.0000 0.69530  0.80841  0.76495  Biso   1.000  O
  O46      1.0000 0.72261  0.82190  0.85849  Biso   1.000  O
  C199     1.0000 0.72094  0.80943  0.80579  Biso   1.000  C
  C200     1.0000 0.75232  0.79382  0.78820  Biso   1.000  C
  C201     1.0000 0.78040  0.79149  0.83032  Biso   1.000  C
  H155     1.0000 0.78017  0.79993  0.86963  Biso   1.000  H
  C202     1.0000 0.80845  0.77666  0.81356  Biso   1.000  C
  H156     1.0000 0.82727  0.77563  0.84193  Biso   1.000  H
  C203     1.0000 0.80943  0.76339  0.75610  Biso   1.000  C
  C204     1.0000 0.78142  0.76549  0.71342  Biso   1.000  C
  H157     1.0000 0.78167  0.75693  0.67413  Biso   1.000  H
  C205     1.0000 0.75306  0.78057  0.73077  Biso   1.000  C
  H158     1.0000 0.73417  0.78163  0.70263  Biso   1.000  H
  C206     1.0000 0.83766  0.74475  0.73761  Biso   1.000  C
  C207     1.0000 0.81978  0.70692  0.70365  Biso   1.000  C
  H159     1.0000 0.79037  0.69403  0.69253  Biso   1.000  H
  H160     1.0000 0.91467  0.87403  0.69783  Biso   1.000  H
  H161     1.0000 0.97047  0.89633  0.80233  Biso   1.000  H
  O47      1.0000 0.36196  0.14175  0.09829  Biso   1.000  O
  O48      1.0000 0.38927  0.15524  0.19183  Biso   1.000  O
  C208     1.0000 0.38760  0.14277  0.13913  Biso   1.000  C
  C209     1.0000 0.41898  0.12716  0.12154  Biso   1.000  C
  C210     1.0000 0.44706  0.12483  0.16366  Biso   1.000  C
  H162     1.0000 0.44683  0.13327  0.20297  Biso   1.000  H
  C211     1.0000 0.47511  0.11000  0.14690  Biso   1.000  C
  H163     1.0000 0.49393  0.10897  0.17527  Biso   1.000  H
  C212     1.0000 0.47609  0.09673  0.08944  Biso   1.000  C
  C213     1.0000 0.44808  0.09883  0.04676  Biso   1.000  C
  H164     1.0000 0.44833  0.09027  0.00747  Biso   1.000  H
  C214     1.0000 0.41972  0.11391  0.06411  Biso   1.000  C
  H165     1.0000 0.40083  0.11497  0.03597  Biso   1.000  H
  C215     1.0000 0.50432  0.07809  0.07095  Biso   1.000  C
  C216     1.0000 0.48644  0.04026  0.03699  Biso   1.000  C
  H166     1.0000 0.45703  0.02737  0.02587  Biso   1.000  H
  H167     1.0000 0.58133  0.20737  0.03117  Biso   1.000  H
  H168     1.0000 0.63713  0.22967  0.13567  Biso   1.000  H
  O49      1.0000 0.52492  0.55355  0.43162  Biso   1.000  O
  O50      1.0000 0.51143  0.56737  0.52516  Biso   1.000  O
  C217     1.0000 0.52390  0.57817  0.47246  Biso   1.000  C
  C218     1.0000 0.53951  0.62516  0.45487  Biso   1.000  C
  C219     1.0000 0.54184  0.65557  0.49699  Biso   1.000  C
  H169     1.0000 0.53340  0.64690  0.53630  Biso   1.000  H
  C220     1.0000 0.55667  0.69845  0.48023  Biso   1.000  C
  H170     1.0000 0.55770  0.71830  0.50860  Biso   1.000  H
  C221     1.0000 0.56994  0.71270  0.42277  Biso   1.000  C
  C222     1.0000 0.56784  0.68259  0.38009  Biso   1.000  C
  H171     1.0000 0.57640  0.69140  0.34080  Biso   1.000  H
  C223     1.0000 0.55276  0.63915  0.39744  Biso   1.000  C
  H172     1.0000 0.55170  0.61920  0.36930  Biso   1.000  H
  C224     1.0000 0.58858  0.75957  0.40428  Biso   1.000  C
  C225     1.0000 0.62641  0.77952  0.37032  Biso   1.000  C
  H173     1.0000 0.63930  0.76300  0.35920  Biso   1.000  H
  H174     1.0000 0.45930  0.70730  0.36450  Biso   1.000  H
  H175     1.0000 0.43700  0.74080  0.46900  Biso   1.000  H
  O51      1.0000 0.19159  0.88688  0.76495  Biso   1.000  O
  O52      1.0000 0.17810  0.90070  0.85849  Biso   1.000  O
  C226     1.0000 0.19057  0.91150  0.80579  Biso   1.000  C
  C227     1.0000 0.20618  0.95849  0.78820  Biso   1.000  C
  C228     1.0000 0.20851  0.98890  0.83032  Biso   1.000  C
  H176     1.0000 0.20007  0.98023  0.86963  Biso   1.000  H
  C229     1.0000 0.22334  0.03178  0.81356  Biso   1.000  C
  H177     1.0000 0.22437  0.05163  0.84193  Biso   1.000  H
  C230     1.0000 0.23661  0.04603  0.75610  Biso   1.000  C
  C231     1.0000 0.23451  0.01592  0.71342  Biso   1.000  C
  H178     1.0000 0.24307  0.02473  0.67413  Biso   1.000  H
  C232     1.0000 0.21943  0.97248  0.73077  Biso   1.000  C
  H179     1.0000 0.21837  0.95253  0.70263  Biso   1.000  H
  C233     1.0000 0.25525  0.09290  0.73761  Biso   1.000  C
  C234     1.0000 0.29308  0.11285  0.70365  Biso   1.000  C
  H180     1.0000 0.30597  0.09633  0.69253  Biso   1.000  H
  H181     1.0000 0.12597  0.04063  0.69783  Biso   1.000  H
  H182     1.0000 0.10367  0.07413  0.80233  Biso   1.000  H
  O53      1.0000 0.85825  0.22022  0.09829  Biso   1.000  O
  O54      1.0000 0.84476  0.23404  0.19183  Biso   1.000  O
  C235     1.0000 0.85723  0.24484  0.13913  Biso   1.000  C
  C236     1.0000 0.87284  0.29183  0.12154  Biso   1.000  C
  C237     1.0000 0.87517  0.32224  0.16366  Biso   1.000  C
  H183     1.0000 0.86673  0.31357  0.20297  Biso   1.000  H
  C238     1.0000 0.89000  0.36512  0.14690  Biso   1.000  C
  H184     1.0000 0.89103  0.38497  0.17527  Biso   1.000  H
  C239     1.0000 0.90327  0.37937  0.08944  Biso   1.000  C
  C240     1.0000 0.90117  0.34926  0.04676  Biso   1.000  C
  H185     1.0000 0.90973  0.35807  0.00747  Biso   1.000  H
  C241     1.0000 0.88609  0.30582  0.06411  Biso   1.000  C
  H186     1.0000 0.88503  0.28587  0.03597  Biso   1.000  H
  C242     1.0000 0.92191  0.42624  0.07095  Biso   1.000  C
  C243     1.0000 0.95974  0.44619  0.03699  Biso   1.000  C
  H187     1.0000 0.97263  0.42967  0.02587  Biso   1.000  H
  H188     1.0000 0.79263  0.37397  0.03117  Biso   1.000  H
  H189     1.0000 0.77033  0.40747  0.13567  Biso   1.000  H
  O55      1.0000 0.97137  0.44645  0.56838  Biso   1.000  O
  O56      1.0000 0.94406  0.43263  0.47484  Biso   1.000  O
  C244     1.0000 0.94573  0.42183  0.52754  Biso   1.000  C
  C245     1.0000 0.91435  0.37484  0.54513  Biso   1.000  C
  C246     1.0000 0.88627  0.34443  0.50301  Biso   1.000  C
  H190     1.0000 0.88650  0.35310  0.46370  Biso   1.000  H
  C247     1.0000 0.85822  0.30155  0.51977  Biso   1.000  C
  H191     1.0000 0.83940  0.28170  0.49140  Biso   1.000  H
  C248     1.0000 0.85724  0.28730  0.57723  Biso   1.000  C
  C249     1.0000 0.88525  0.31741  0.61991  Biso   1.000  C
  H192     1.0000 0.88500  0.30860  0.65920  Biso   1.000  H
  C250     1.0000 0.91361  0.36085  0.60256  Biso   1.000  C
  H193     1.0000 0.93250  0.38080  0.63070  Biso   1.000  H
  C251     1.0000 0.82901  0.24043  0.59572  Biso   1.000  C
  C252     1.0000 0.84689  0.22048  0.62968  Biso   1.000  C
  H194     1.0000 0.87630  0.23700  0.64080  Biso   1.000  H
  H195     1.0000 0.75200  0.29270  0.63550  Biso   1.000  H
  H196     1.0000 0.69620  0.25920  0.53100  Biso   1.000  H
  O57      1.0000 0.63804  0.77978  0.90171  Biso   1.000  O
  O58      1.0000 0.61073  0.76596  0.80817  Biso   1.000  O
  C253     1.0000 0.61240  0.75516  0.86087  Biso   1.000  C
  C254     1.0000 0.58102  0.70817  0.87846  Biso   1.000  C
  C255     1.0000 0.55294  0.67776  0.83634  Biso   1.000  C
  H197     1.0000 0.55317  0.68643  0.79703  Biso   1.000  H
  C256     1.0000 0.52489  0.63488  0.85310  Biso   1.000  C
  H198     1.0000 0.50607  0.61503  0.82473  Biso   1.000  H
  C257     1.0000 0.52391  0.62063  0.91056  Biso   1.000  C
  C258     1.0000 0.55192  0.65074  0.95324  Biso   1.000  C
  H199     1.0000 0.55167  0.64193  0.99253  Biso   1.000  H
  C259     1.0000 0.58028  0.69418  0.93589  Biso   1.000  C
  H200     1.0000 0.59917  0.71413  0.96403  Biso   1.000  H
  C260     1.0000 0.49568  0.57376  0.92905  Biso   1.000  C
  C261     1.0000 0.51356  0.55381  0.96301  Biso   1.000  C
  H201     1.0000 0.54297  0.57033  0.97413  Biso   1.000  H
  H202     1.0000 0.41867  0.62603  0.96883  Biso   1.000  H
  H203     1.0000 0.36287  0.59253  0.86433  Biso   1.000  H
  O59      1.0000 0.30470  0.11312  0.23505  Biso   1.000  O
  O60      1.0000 0.27739  0.09930  0.14151  Biso   1.000  O
  C262     1.0000 0.27906  0.08850  0.19421  Biso   1.000  C
  C263     1.0000 0.24768  0.04151  0.21180  Biso   1.000  C
  C264     1.0000 0.21960  0.01110  0.16968  Biso   1.000  C
  H204     1.0000 0.21983  0.01977  0.13037  Biso   1.000  H
  C265     1.0000 0.19155  0.96822  0.18644  Biso   1.000  C
  H205     1.0000 0.17273  0.94837  0.15807  Biso   1.000  H
  C266     1.0000 0.19057  0.95397  0.24390  Biso   1.000  C
  C267     1.0000 0.21858  0.98408  0.28658  Biso   1.000  C
  H206     1.0000 0.21833  0.97527  0.32587  Biso   1.000  H
  C268     1.0000 0.24694  0.02752  0.26923  Biso   1.000  C
  H207     1.0000 0.26583  0.04747  0.29737  Biso   1.000  H
  C269     1.0000 0.16234  0.90710  0.26239  Biso   1.000  C
  C270     1.0000 0.18022  0.88715  0.29635  Biso   1.000  C
  H208     1.0000 0.20963  0.90367  0.30747  Biso   1.000  H
  H209     1.0000 0.08533  0.95937  0.30217  Biso   1.000  H
  H210     1.0000 0.02953  0.92587  0.19767  Biso   1.000  H
  O61      1.0000 0.47508  0.02863  0.56838  Biso   1.000  O
  O62      1.0000 0.48857  0.05594  0.47484  Biso   1.000  O
  C271     1.0000 0.47610  0.05427  0.52754  Biso   1.000  C
  C272     1.0000 0.46049  0.08565  0.54513  Biso   1.000  C
  C273     1.0000 0.45816  0.11373  0.50301  Biso   1.000  C
  H211     1.0000 0.46660  0.11350  0.46370  Biso   1.000  H
  C274     1.0000 0.44333  0.14178  0.51977  Biso   1.000  C
  H212     1.0000 0.44230  0.16060  0.49140  Biso   1.000  H
  C275     1.0000 0.43006  0.14276  0.57723  Biso   1.000  C
  C276     1.0000 0.43216  0.11475  0.61991  Biso   1.000  C
  H213     1.0000 0.42360  0.11500  0.65920  Biso   1.000  H
  C277     1.0000 0.44724  0.08639  0.60256  Biso   1.000  C
  H214     1.0000 0.44830  0.06750  0.63070  Biso   1.000  H
  C278     1.0000 0.41142  0.17099  0.59572  Biso   1.000  C
  C279     1.0000 0.37359  0.15311  0.62968  Biso   1.000  C
  H215     1.0000 0.36070  0.12370  0.64080  Biso   1.000  H
  H216     1.0000 0.54070  0.24800  0.63550  Biso   1.000  H
  H217     1.0000 0.56300  0.30380  0.53100  Biso   1.000  H
  O63      1.0000 0.14175  0.36196  0.90171  Biso   1.000  O
  O64      1.0000 0.15524  0.38927  0.80817  Biso   1.000  O
  C280     1.0000 0.14277  0.38760  0.86087  Biso   1.000  C
  C281     1.0000 0.12716  0.41898  0.87846  Biso   1.000  C
  C282     1.0000 0.12483  0.44706  0.83634  Biso   1.000  C
  H218     1.0000 0.13327  0.44683  0.79703  Biso   1.000  H
  C283     1.0000 0.11000  0.47511  0.85310  Biso   1.000  C
  H219     1.0000 0.10897  0.49393  0.82473  Biso   1.000  H
  C284     1.0000 0.09673  0.47609  0.91056  Biso   1.000  C
  C285     1.0000 0.09883  0.44808  0.95324  Biso   1.000  C
  H220     1.0000 0.09027  0.44833  0.99253  Biso   1.000  H
  C286     1.0000 0.11391  0.41972  0.93589  Biso   1.000  C
  H221     1.0000 0.11497  0.40083  0.96403  Biso   1.000  H
  C287     1.0000 0.07809  0.50432  0.92905  Biso   1.000  C
  C288     1.0000 0.04026  0.48644  0.96301  Biso   1.000  C
  H222     1.0000 0.02737  0.45703  0.97413  Biso   1.000  H
  H223     1.0000 0.20737  0.58133  0.96883  Biso   1.000  H
  H224     1.0000 0.22967  0.63713  0.86433  Biso   1.000  H
  O65      1.0000 0.80841  0.69530  0.23505  Biso   1.000  O
  O66      1.0000 0.82190  0.72261  0.14151  Biso   1.000  O
  C289     1.0000 0.80943  0.72094  0.19421  Biso   1.000  C
  C290     1.0000 0.79382  0.75232  0.21180  Biso   1.000  C
  C291     1.0000 0.79149  0.78040  0.16968  Biso   1.000  C
  H225     1.0000 0.79993  0.78017  0.13037  Biso   1.000  H
  C292     1.0000 0.77666  0.80845  0.18644  Biso   1.000  C
  H226     1.0000 0.77563  0.82727  0.15807  Biso   1.000  H
  C293     1.0000 0.76339  0.80943  0.24390  Biso   1.000  C
  C294     1.0000 0.76549  0.78142  0.28658  Biso   1.000  C
  H227     1.0000 0.75693  0.78167  0.32587  Biso   1.000  H
  C295     1.0000 0.78057  0.75306  0.26923  Biso   1.000  C
  H228     1.0000 0.78163  0.73417  0.29737  Biso   1.000  H
  C296     1.0000 0.74475  0.83766  0.26239  Biso   1.000  C
  C297     1.0000 0.70692  0.81978  0.29635  Biso   1.000  C
  H229     1.0000 0.69403  0.79037  0.30747  Biso   1.000  H
  H230     1.0000 0.87403  0.91467  0.30217  Biso   1.000  H
  H231     1.0000 0.89633  0.97047  0.19767  Biso   1.000  H
  O67      1.0000 0.55355  0.52492  0.56838  Biso   1.000  O
  O68      1.0000 0.56737  0.51143  0.47484  Biso   1.000  O
  C298     1.0000 0.57817  0.52390  0.52754  Biso   1.000  C
  C299     1.0000 0.62516  0.53951  0.54513  Biso   1.000  C
  C300     1.0000 0.65557  0.54184  0.50301  Biso   1.000  C
  H232     1.0000 0.64690  0.53340  0.46370  Biso   1.000  H
  C301     1.0000 0.69845  0.55667  0.51977  Biso   1.000  C
  H233     1.0000 0.71830  0.55770  0.49140  Biso   1.000  H
  C302     1.0000 0.71270  0.56994  0.57723  Biso   1.000  C
  C303     1.0000 0.68259  0.56784  0.61991  Biso   1.000  C
  H234     1.0000 0.69140  0.57640  0.65920  Biso   1.000  H
  C304     1.0000 0.63915  0.55276  0.60256  Biso   1.000  C
  H235     1.0000 0.61920  0.55170  0.63070  Biso   1.000  H
  C305     1.0000 0.75957  0.58858  0.59572  Biso   1.000  C
  C306     1.0000 0.77952  0.62641  0.62968  Biso   1.000  C
  H236     1.0000 0.76300  0.63930  0.64080  Biso   1.000  H
  H237     1.0000 0.70730  0.45930  0.63550  Biso   1.000  H
  H238     1.0000 0.74080  0.43700  0.53100  Biso   1.000  H
  O69      1.0000 0.22022  0.85825  0.90171  Biso   1.000  O
  O70      1.0000 0.23404  0.84476  0.80817  Biso   1.000  O
  C307     1.0000 0.24484  0.85723  0.86087  Biso   1.000  C
  C308     1.0000 0.29183  0.87284  0.87846  Biso   1.000  C
  C309     1.0000 0.32224  0.87517  0.83634  Biso   1.000  C
  H239     1.0000 0.31357  0.86673  0.79703  Biso   1.000  H
  C310     1.0000 0.36512  0.89000  0.85310  Biso   1.000  C
  H240     1.0000 0.38497  0.89103  0.82473  Biso   1.000  H
  C311     1.0000 0.37937  0.90327  0.91056  Biso   1.000  C
  C312     1.0000 0.34926  0.90117  0.95324  Biso   1.000  C
  H241     1.0000 0.35807  0.90973  0.99253  Biso   1.000  H
  C313     1.0000 0.30582  0.88609  0.93589  Biso   1.000  C
  H242     1.0000 0.28587  0.88503  0.96403  Biso   1.000  H
  C314     1.0000 0.42624  0.92191  0.92905  Biso   1.000  C
  C315     1.0000 0.44619  0.95974  0.96301  Biso   1.000  C
  H243     1.0000 0.42967  0.97263  0.97413  Biso   1.000  H
  H244     1.0000 0.37397  0.79263  0.96883  Biso   1.000  H
  H245     1.0000 0.40747  0.77033  0.86433  Biso   1.000  H
  O71      1.0000 0.88688  0.19159  0.23505  Biso   1.000  O
  O72      1.0000 0.90070  0.17810  0.14151  Biso   1.000  O
  C316     1.0000 0.91150  0.19057  0.19421  Biso   1.000  C
  C317     1.0000 0.95849  0.20618  0.21180  Biso   1.000  C
  C318     1.0000 0.98890  0.20851  0.16968  Biso   1.000  C
  H246     1.0000 0.98023  0.20007  0.13037  Biso   1.000  H
  C319     1.0000 0.03178  0.22334  0.18644  Biso   1.000  C
  H247     1.0000 0.05163  0.22437  0.15807  Biso   1.000  H
  C320     1.0000 0.04603  0.23661  0.24390  Biso   1.000  C
  C321     1.0000 0.01592  0.23451  0.28658  Biso   1.000  C
  H248     1.0000 0.02473  0.24307  0.32587  Biso   1.000  H
  C322     1.0000 0.97248  0.21943  0.26923  Biso   1.000  C
  H249     1.0000 0.95253  0.21837  0.29737  Biso   1.000  H
  C323     1.0000 0.09290  0.25525  0.26239  Biso   1.000  C
  C324     1.0000 0.11285  0.29308  0.29635  Biso   1.000  C
  H250     1.0000 0.09633  0.30597  0.30747  Biso   1.000  H
  H251     1.0000 0.04063  0.12597  0.30217  Biso   1.000  H
  H252     1.0000 0.07413  0.10367  0.19767  Biso   1.000  H
  Cu1      1.0000 0.50794  0.01588  0.44511  Biso   1.000  Cu
  Cu2      1.0000 0.17461  0.34921  0.77844  Biso   1.000  Cu
  Cu3      1.0000 0.84127  0.68255  0.11178  Biso   1.000  Cu
  Cu4      1.0000 0.98412  0.49206  0.44511  Biso   1.000  Cu
  Cu5      1.0000 0.65079  0.82539  0.77844  Biso   1.000  Cu
  Cu6      1.0000 0.31745  0.15873  0.11178  Biso   1.000  Cu
  Cu7      1.0000 0.50794  0.49206  0.44511  Biso   1.000  Cu
  Cu8      1.0000 0.17461  0.82539  0.77844  Biso   1.000  Cu
  Cu9      1.0000 0.84127  0.15873  0.11178  Biso   1.000  Cu
  Cu10     1.0000 0.01588  0.50794  0.55489  Biso   1.000  Cu
  Cu11     1.0000 0.68255  0.84127  0.88822  Biso   1.000  Cu
  Cu12     1.0000 0.34921  0.17461  0.22156  Biso   1.000  Cu
  Cu13     1.0000 0.49206  0.98412  0.55489  Biso   1.000  Cu
  Cu14     1.0000 0.15873  0.31745  0.88822  Biso   1.000  Cu
  Cu15     1.0000 0.82539  0.65079  0.22156  Biso   1.000  Cu
  Cu16     1.0000 0.49206  0.50794  0.55489  Biso   1.000  Cu
  Cu17     1.0000 0.15873  0.84127  0.88822  Biso   1.000  Cu
  Cu18     1.0000 0.82539  0.17461  0.22156  Biso   1.000  Cu
  O73      1.0000 0.76608  0.23392  0.54336  Biso   1.000  O
  C325     1.0000 0.82308  0.17692  0.64810  Biso   1.000  C
  C326     1.0000 0.78462  0.21538  0.57920  Biso   1.000  C
  C327     1.0000 0.74640  0.25360  0.56910  Biso   1.000  C
  C328     1.0000 0.73842  0.26158  0.62900  Biso   1.000  C
  H253     1.0000 0.75060  0.24940  0.65620  Biso   1.000  H
  C329     1.0000 0.72735  0.27265  0.52490  Biso   1.000  C
  H254     1.0000 0.73300  0.26700  0.48490  Biso   1.000  H
  O74      1.0000 0.43275  0.56725  0.87669  Biso   1.000  O
  C330     1.0000 0.48975  0.51025  0.98143  Biso   1.000  C
  C331     1.0000 0.45129  0.54871  0.91253  Biso   1.000  C
  C332     1.0000 0.41307  0.58693  0.90243  Biso   1.000  C
  C333     1.0000 0.40509  0.59491  0.96233  Biso   1.000  C
  H255     1.0000 0.41727  0.58273  0.98953  Biso   1.000  H
  C334     1.0000 0.39402  0.60598  0.85823  Biso   1.000  C
  H256     1.0000 0.39967  0.60033  0.81823  Biso   1.000  H
  O75      1.0000 0.09941  0.90059  0.21003  Biso   1.000  O
  C335     1.0000 0.15641  0.84359  0.31477  Biso   1.000  C
  C336     1.0000 0.11795  0.88205  0.24587  Biso   1.000  C
  C337     1.0000 0.07973  0.92027  0.23577  Biso   1.000  C
  C338     1.0000 0.07175  0.92825  0.29567  Biso   1.000  C
  H257     1.0000 0.08393  0.91607  0.32287  Biso   1.000  H
  C339     1.0000 0.06068  0.93932  0.19157  Biso   1.000  C
  H258     1.0000 0.06633  0.93367  0.15157  Biso   1.000  H
  O76      1.0000 0.76608  0.53216  0.54336  Biso   1.000  O
  C340     1.0000 0.82308  0.64616  0.64810  Biso   1.000  C
  C341     1.0000 0.78462  0.56924  0.57920  Biso   1.000  C
  C342     1.0000 0.74640  0.49280  0.56910  Biso   1.000  C
  C343     1.0000 0.73842  0.47684  0.62900  Biso   1.000  C
  H259     1.0000 0.75060  0.50120  0.65620  Biso   1.000  H
  C344     1.0000 0.72735  0.45470  0.52490  Biso   1.000  C
  H260     1.0000 0.73300  0.46600  0.48490  Biso   1.000  H
  O77      1.0000 0.43275  0.86549  0.87669  Biso   1.000  O
  C345     1.0000 0.48975  0.97949  0.98143  Biso   1.000  C
  C346     1.0000 0.45129  0.90257  0.91253  Biso   1.000  C
  C347     1.0000 0.41307  0.82613  0.90243  Biso   1.000  C
  C348     1.0000 0.40509  0.81017  0.96233  Biso   1.000  C
  H261     1.0000 0.41727  0.83453  0.98953  Biso   1.000  H
  C349     1.0000 0.39402  0.78803  0.85823  Biso   1.000  C
  H262     1.0000 0.39967  0.79933  0.81823  Biso   1.000  H
  O78      1.0000 0.09941  0.19883  0.21003  Biso   1.000  O
  C350     1.0000 0.15641  0.31283  0.31477  Biso   1.000  C
  C351     1.0000 0.11795  0.23591  0.24587  Biso   1.000  C
  C352     1.0000 0.07973  0.15947  0.23577  Biso   1.000  C
  C353     1.0000 0.07175  0.14351  0.29567  Biso   1.000  C
  H263     1.0000 0.08393  0.16787  0.32287  Biso   1.000  H
  C354     1.0000 0.06068  0.12137  0.19157  Biso   1.000  C
  H264     1.0000 0.06633  0.13267  0.15157  Biso   1.000  H
  O79      1.0000 0.46784  0.23392  0.54336  Biso   1.000  O
  C355     1.0000 0.35384  0.17692  0.64810  Biso   1.000  C
  C356     1.0000 0.43076  0.21538  0.57920  Biso   1.000  C
  C357     1.0000 0.50720  0.25360  0.56910  Biso   1.000  C
  C358     1.0000 0.52316  0.26158  0.62900  Biso   1.000  C
  H265     1.0000 0.49880  0.24940  0.65620  Biso   1.000  H
  C359     1.0000 0.54530  0.27265  0.52490  Biso   1.000  C
  H266     1.0000 0.53400  0.26700  0.48490  Biso   1.000  H
  O80      1.0000 0.13451  0.56725  0.87669  Biso   1.000  O
  C360     1.0000 0.02051  0.51025  0.98143  Biso   1.000  C
  C361     1.0000 0.09743  0.54871  0.91253  Biso   1.000  C
  C362     1.0000 0.17387  0.58693  0.90243  Biso   1.000  C
  C363     1.0000 0.18983  0.59491  0.96233  Biso   1.000  C
  H267     1.0000 0.16547  0.58273  0.98953  Biso   1.000  H
  C364     1.0000 0.21197  0.60598  0.85823  Biso   1.000  C
  H268     1.0000 0.20067  0.60033  0.81823  Biso   1.000  H
  O81      1.0000 0.80117  0.90059  0.21003  Biso   1.000  O
  C365     1.0000 0.68717  0.84359  0.31477  Biso   1.000  C
  C366     1.0000 0.76409  0.88205  0.24587  Biso   1.000  C
  C367     1.0000 0.84053  0.92027  0.23577  Biso   1.000  C
  C368     1.0000 0.85649  0.92825  0.29567  Biso   1.000  C
  H269     1.0000 0.83213  0.91607  0.32287  Biso   1.000  H
  C369     1.0000 0.87863  0.93932  0.19157  Biso   1.000  C
  H270     1.0000 0.86733  0.93367  0.15157  Biso   1.000  H
  O82      1.0000 0.23392  0.76608  0.45664  Biso   1.000  O
  C370     1.0000 0.17692  0.82308  0.35190  Biso   1.000  C
  C371     1.0000 0.21538  0.78462  0.42080  Biso   1.000  C
  C372     1.0000 0.25360  0.74640  0.43090  Biso   1.000  C
  C373     1.0000 0.26158  0.73842  0.37100  Biso   1.000  C
  H271     1.0000 0.24940  0.75060  0.34380  Biso   1.000  H
  C374     1.0000 0.27265  0.72735  0.47510  Biso   1.000  C
  H272     1.0000 0.26700  0.73300  0.51510  Biso   1.000  H
  O83      1.0000 0.90059  0.09941  0.78997  Biso   1.000  O
  C375     1.0000 0.84359  0.15641  0.68523  Biso   1.000  C
  C376     1.0000 0.88205  0.11795  0.75413  Biso   1.000  C
  C377     1.0000 0.92027  0.07973  0.76423  Biso   1.000  C
  C378     1.0000 0.92825  0.07175  0.70433  Biso   1.000  C
  H273     1.0000 0.91607  0.08393  0.67713  Biso   1.000  H
  C379     1.0000 0.93932  0.06068  0.80843  Biso   1.000  C
  H274     1.0000 0.93367  0.06633  0.84843  Biso   1.000  H
  O84      1.0000 0.56725  0.43275  0.12331  Biso   1.000  O
  C380     1.0000 0.51025  0.48975  0.01857  Biso   1.000  C
  C381     1.0000 0.54871  0.45129  0.08747  Biso   1.000  C
  C382     1.0000 0.58693  0.41307  0.09757  Biso   1.000  C
  C383     1.0000 0.59491  0.40509  0.03767  Biso   1.000  C
  H275     1.0000 0.58273  0.41727  0.01047  Biso   1.000  H
  C384     1.0000 0.60598  0.39402  0.14177  Biso   1.000  C
  H276     1.0000 0.60033  0.39967  0.18177  Biso   1.000  H
  O85      1.0000 0.53216  0.76608  0.45664  Biso   1.000  O
  C385     1.0000 0.64616  0.82308  0.35190  Biso   1.000  C
  C386     1.0000 0.56924  0.78462  0.42080  Biso   1.000  C
  C387     1.0000 0.49280  0.74640  0.43090  Biso   1.000  C
  C388     1.0000 0.47684  0.73842  0.37100  Biso   1.000  C
  H277     1.0000 0.50120  0.75060  0.34380  Biso   1.000  H
  C389     1.0000 0.45470  0.72735  0.47510  Biso   1.000  C
  H278     1.0000 0.46600  0.73300  0.51510  Biso   1.000  H
  O86      1.0000 0.19883  0.09941  0.78997  Biso   1.000  O
  C390     1.0000 0.31283  0.15641  0.68523  Biso   1.000  C
  C391     1.0000 0.23591  0.11795  0.75413  Biso   1.000  C
  C392     1.0000 0.15947  0.07973  0.76423  Biso   1.000  C
  C393     1.0000 0.14351  0.07175  0.70433  Biso   1.000  C
  H279     1.0000 0.16787  0.08393  0.67713  Biso   1.000  H
  C394     1.0000 0.12137  0.06068  0.80843  Biso   1.000  C
  H280     1.0000 0.13267  0.06633  0.84843  Biso   1.000  H
  O87      1.0000 0.86549  0.43275  0.12331  Biso   1.000  O
  C395     1.0000 0.97949  0.48975  0.01857  Biso   1.000  C
  C396     1.0000 0.90257  0.45129  0.08747  Biso   1.000  C
  C397     1.0000 0.82613  0.41307  0.09757  Biso   1.000  C
  C398     1.0000 0.81017  0.40509  0.03767  Biso   1.000  C
  H281     1.0000 0.83453  0.41727  0.01047  Biso   1.000  H
  C399     1.0000 0.78803  0.39402  0.14177  Biso   1.000  C
  H282     1.0000 0.79933  0.39967  0.18177  Biso   1.000  H
  O88      1.0000 0.23392  0.46784  0.45664  Biso   1.000  O
  C400     1.0000 0.17692  0.35384  0.35190  Biso   1.000  C
  C401     1.0000 0.21538  0.43076  0.42080  Biso   1.000  C
  C402     1.0000 0.25360  0.50720  0.43090  Biso   1.000  C
  C403     1.0000 0.26158  0.52316  0.37100  Biso   1.000  C
  H283     1.0000 0.24940  0.49880  0.34380  Biso   1.000  H
  C404     1.0000 0.27265  0.54530  0.47510  Biso   1.000  C
  H284     1.0000 0.26700  0.53400  0.51510  Biso   1.000  H
  O89      1.0000 0.90059  0.80117  0.78997  Biso   1.000  O
  C405     1.0000 0.84359  0.68717  0.68523  Biso   1.000  C
  C406     1.0000 0.88205  0.76409  0.75413  Biso   1.000  C
  C407     1.0000 0.92027  0.84053  0.76423  Biso   1.000  C
  C408     1.0000 0.92825  0.85649  0.70433  Biso   1.000  C
  H285     1.0000 0.91607  0.83213  0.67713  Biso   1.000  H
  C409     1.0000 0.93932  0.87863  0.80843  Biso   1.000  C
  H286     1.0000 0.93367  0.86733  0.84843  Biso   1.000  H
  O90      1.0000 0.56725  0.13451  0.12331  Biso   1.000  O
  C410     1.0000 0.51025  0.02051  0.01857  Biso   1.000  C
  C411     1.0000 0.54871  0.09743  0.08747  Biso   1.000  C
  C412     1.0000 0.58693  0.17387  0.09757  Biso   1.000  C
  C413     1.0000 0.59491  0.18983  0.03767  Biso   1.000  C
  H287     1.0000 0.58273  0.16547  0.01047  Biso   1.000  H
  C414     1.0000 0.60598  0.21197  0.14177  Biso   1.000  C
  H288     1.0000 0.60033  0.20067  0.18177  Biso   1.000  H
