data_image0
_cell_length_a       35.2919
_cell_length_b       35.2919
_cell_length_c       20.3445
_cell_angle_alpha    90
_cell_angle_beta     90
_cell_angle_gamma    120

_symmetry_space_group_name_H-M    "P 1"
_symmetry_int_tables_number       1

loop_
  _symmetry_equiv_pos_as_xyz
  'x, y, z'

loop_
  _atom_site_label
  _atom_site_occupancy
  _atom_site_fract_x
  _atom_site_fract_y
  _atom_site_fract_z
  _atom_site_thermal_displace_type
  _atom_site_B_iso_or_equiv
  _atom_site_type_symbol
  O1       1.0000 0.44618  0.47579  0.42527  Biso   1.000  O
  O2       1.0000 0.43339  0.48865  0.52885  Biso   1.000  O
  C1       1.0000 0.42208  0.47686  0.47020  Biso   1.000  C
  C2       1.0000 0.37571  0.46284  0.45218  Biso   1.000  C
  C3       1.0000 0.34702  0.46217  0.49987  Biso   1.000  C
  H1       1.0000 0.35710  0.47150  0.54340  Biso   1.000  H
  C4       1.0000 0.30373  0.44783  0.48362  Biso   1.000  C
  H2       1.0000 0.28430  0.44780  0.51600  Biso   1.000  H
  C5       1.0000 0.28861  0.43361  0.42043  Biso   1.000  C
  C6       1.0000 0.31820  0.43572  0.37197  Biso   1.000  C
  H3       1.0000 0.30870  0.42780  0.32790  Biso   1.000  H
  C7       1.0000 0.36117  0.44944  0.38890  Biso   1.000  C
  H4       1.0000 0.38070  0.44960  0.35670  Biso   1.000  H
  C8       1.0000 0.24135  0.41393  0.40323  Biso   1.000  C
  C9       1.0000 0.22134  0.37544  0.36838  Biso   1.000  C
  H5       1.0000 0.23820  0.36250  0.35590  Biso   1.000  H
  H6       1.0000 0.23260  0.51070  0.38840  Biso   1.000  H
  H7       1.0000 0.25170  0.54870  0.49270  Biso   1.000  H
  O3       1.0000 0.11285  0.80912  0.75860  Biso   1.000  O
  O4       1.0000 0.10006  0.82198  0.86218  Biso   1.000  O
  C10      1.0000 0.08875  0.81019  0.80353  Biso   1.000  C
  C11      1.0000 0.04238  0.79617  0.78551  Biso   1.000  C
  C12      1.0000 0.01369  0.79550  0.83320  Biso   1.000  C
  H8       1.0000 0.02377  0.80483  0.87673  Biso   1.000  H
  C13      1.0000 0.97040  0.78116  0.81695  Biso   1.000  C
  H9       1.0000 0.95097  0.78113  0.84933  Biso   1.000  H
  C14      1.0000 0.95528  0.76694  0.75376  Biso   1.000  C
  C15      1.0000 0.98487  0.76905  0.70530  Biso   1.000  C
  H10      1.0000 0.97537  0.76113  0.66123  Biso   1.000  H
  C16      1.0000 0.02784  0.78277  0.72223  Biso   1.000  C
  H11      1.0000 0.04737  0.78293  0.69003  Biso   1.000  H
  C17      1.0000 0.90802  0.74726  0.73656  Biso   1.000  C
  C18      1.0000 0.88801  0.70877  0.70171  Biso   1.000  C
  H12      1.0000 0.90487  0.69583  0.68923  Biso   1.000  H
  H13      1.0000 0.89927  0.84403  0.72173  Biso   1.000  H
  H14      1.0000 0.91837  0.88203  0.82603  Biso   1.000  H
  O5       1.0000 0.77951  0.14246  0.09194  Biso   1.000  O
  O6       1.0000 0.76672  0.15532  0.19552  Biso   1.000  O
  C19      1.0000 0.75541  0.14353  0.13687  Biso   1.000  C
  C20      1.0000 0.70904  0.12951  0.11885  Biso   1.000  C
  C21      1.0000 0.68035  0.12884  0.16654  Biso   1.000  C
  H15      1.0000 0.69043  0.13817  0.21007  Biso   1.000  H
  C22      1.0000 0.63706  0.11450  0.15029  Biso   1.000  C
  H16      1.0000 0.61763  0.11447  0.18267  Biso   1.000  H
  C23      1.0000 0.62194  0.10028  0.08710  Biso   1.000  C
  C24      1.0000 0.65153  0.10239  0.03864  Biso   1.000  C
  H17      1.0000 0.64203  0.09447  0.99457  Biso   1.000  H
  C25      1.0000 0.69450  0.11611  0.05557  Biso   1.000  C
  H18      1.0000 0.71403  0.11627  0.02337  Biso   1.000  H
  C26      1.0000 0.57468  0.08060  0.06990  Biso   1.000  C
  C27      1.0000 0.55467  0.04211  0.03505  Biso   1.000  C
  H19      1.0000 0.57153  0.02917  0.02257  Biso   1.000  H
  H20      1.0000 0.56593  0.17737  0.05507  Biso   1.000  H
  H21      1.0000 0.58503  0.21537  0.15937  Biso   1.000  H
  O7       1.0000 0.52421  0.97039  0.42527  Biso   1.000  O
  O8       1.0000 0.51135  0.94474  0.52885  Biso   1.000  O
  C28      1.0000 0.52314  0.94522  0.47020  Biso   1.000  C
  C29      1.0000 0.53716  0.91287  0.45218  Biso   1.000  C
  C30      1.0000 0.53783  0.88485  0.49987  Biso   1.000  C
  H22      1.0000 0.52850  0.88560  0.54340  Biso   1.000  H
  C31      1.0000 0.55217  0.85590  0.48362  Biso   1.000  C
  H23      1.0000 0.55220  0.83650  0.51600  Biso   1.000  H
  C32      1.0000 0.56639  0.85500  0.42043  Biso   1.000  C
  C33      1.0000 0.56428  0.88248  0.37197  Biso   1.000  C
  H24      1.0000 0.57220  0.88090  0.32790  Biso   1.000  H
  C34      1.0000 0.55056  0.91173  0.38890  Biso   1.000  C
  H25      1.0000 0.55040  0.93110  0.35670  Biso   1.000  H
  C35      1.0000 0.58607  0.82742  0.40323  Biso   1.000  C
  C36      1.0000 0.62456  0.84590  0.36838  Biso   1.000  C
  H26      1.0000 0.63750  0.87570  0.35590  Biso   1.000  H
  H27      1.0000 0.48930  0.72190  0.38840  Biso   1.000  H
  H28      1.0000 0.45130  0.70300  0.49270  Biso   1.000  H
  O9       1.0000 0.19088  0.30372  0.75860  Biso   1.000  O
  O10      1.0000 0.17802  0.27807  0.86218  Biso   1.000  O
  C37      1.0000 0.18981  0.27855  0.80353  Biso   1.000  C
  C38      1.0000 0.20383  0.24620  0.78551  Biso   1.000  C
  C39      1.0000 0.20450  0.21818  0.83320  Biso   1.000  C
  H29      1.0000 0.19517  0.21893  0.87673  Biso   1.000  H
  C40      1.0000 0.21884  0.18923  0.81695  Biso   1.000  C
  H30      1.0000 0.21887  0.16983  0.84933  Biso   1.000  H
  C41      1.0000 0.23306  0.18833  0.75376  Biso   1.000  C
  C42      1.0000 0.23095  0.21581  0.70530  Biso   1.000  C
  H31      1.0000 0.23887  0.21423  0.66123  Biso   1.000  H
  C43      1.0000 0.21723  0.24506  0.72223  Biso   1.000  C
  H32      1.0000 0.21707  0.26443  0.69003  Biso   1.000  H
  C44      1.0000 0.25274  0.16075  0.73656  Biso   1.000  C
  C45      1.0000 0.29123  0.17923  0.70171  Biso   1.000  C
  H33      1.0000 0.30417  0.20903  0.68923  Biso   1.000  H
  H34      1.0000 0.15597  0.05523  0.72173  Biso   1.000  H
  H35      1.0000 0.11797  0.03633  0.82603  Biso   1.000  H
  O11      1.0000 0.85754  0.63706  0.09194  Biso   1.000  O
  O12      1.0000 0.84468  0.61141  0.19552  Biso   1.000  O
  C46      1.0000 0.85647  0.61189  0.13687  Biso   1.000  C
  C47      1.0000 0.87049  0.57954  0.11885  Biso   1.000  C
  C48      1.0000 0.87116  0.55152  0.16654  Biso   1.000  C
  H36      1.0000 0.86183  0.55227  0.21007  Biso   1.000  H
  C49      1.0000 0.88550  0.52257  0.15029  Biso   1.000  C
  H37      1.0000 0.88553  0.50317  0.18267  Biso   1.000  H
  C50      1.0000 0.89972  0.52167  0.08710  Biso   1.000  C
  C51      1.0000 0.89761  0.54915  0.03864  Biso   1.000  C
  H38      1.0000 0.90553  0.54757  0.99457  Biso   1.000  H
  C52      1.0000 0.88389  0.57840  0.05557  Biso   1.000  C
  H39      1.0000 0.88373  0.59777  0.02337  Biso   1.000  H
  C53      1.0000 0.91940  0.49409  0.06990  Biso   1.000  C
  C54      1.0000 0.95789  0.51257  0.03505  Biso   1.000  C
  H40      1.0000 0.97083  0.54237  0.02257  Biso   1.000  H
  H41      1.0000 0.82263  0.38857  0.05507  Biso   1.000  H
  H42      1.0000 0.78463  0.36967  0.15937  Biso   1.000  H
  O13      1.0000 0.02961  0.55382  0.42527  Biso   1.000  O
  O14      1.0000 0.05526  0.56661  0.52885  Biso   1.000  O
  C55      1.0000 0.05478  0.57792  0.47020  Biso   1.000  C
  C56      1.0000 0.08713  0.62429  0.45218  Biso   1.000  C
  C57      1.0000 0.11515  0.65298  0.49987  Biso   1.000  C
  H43      1.0000 0.11440  0.64290  0.54340  Biso   1.000  H
  C58      1.0000 0.14410  0.69627  0.48362  Biso   1.000  C
  H44      1.0000 0.16350  0.71570  0.51600  Biso   1.000  H
  C59      1.0000 0.14500  0.71139  0.42043  Biso   1.000  C
  C60      1.0000 0.11752  0.68180  0.37197  Biso   1.000  C
  H45      1.0000 0.11910  0.69130  0.32790  Biso   1.000  H
  C61      1.0000 0.08827  0.63883  0.38890  Biso   1.000  C
  H46      1.0000 0.06890  0.61930  0.35670  Biso   1.000  H
  C62      1.0000 0.17258  0.75865  0.40323  Biso   1.000  C
  C63      1.0000 0.15410  0.77866  0.36838  Biso   1.000  C
  H47      1.0000 0.12430  0.76180  0.35590  Biso   1.000  H
  H48      1.0000 0.27810  0.76740  0.38840  Biso   1.000  H
  H49      1.0000 0.29700  0.74830  0.49270  Biso   1.000  H
  O15      1.0000 0.69628  0.88715  0.75860  Biso   1.000  O
  O16      1.0000 0.72193  0.89994  0.86218  Biso   1.000  O
  C64      1.0000 0.72145  0.91125  0.80353  Biso   1.000  C
  C65      1.0000 0.75380  0.95762  0.78551  Biso   1.000  C
  C66      1.0000 0.78182  0.98631  0.83320  Biso   1.000  C
  H50      1.0000 0.78107  0.97623  0.87673  Biso   1.000  H
  C67      1.0000 0.81077  0.02960  0.81695  Biso   1.000  C
  H51      1.0000 0.83017  0.04903  0.84933  Biso   1.000  H
  C68      1.0000 0.81167  0.04472  0.75376  Biso   1.000  C
  C69      1.0000 0.78419  0.01513  0.70530  Biso   1.000  C
  H52      1.0000 0.78577  0.02463  0.66123  Biso   1.000  H
  C70      1.0000 0.75494  0.97216  0.72223  Biso   1.000  C
  H53      1.0000 0.73557  0.95263  0.69003  Biso   1.000  H
  C71      1.0000 0.83925  0.09198  0.73656  Biso   1.000  C
  C72      1.0000 0.82077  0.11199  0.70171  Biso   1.000  C
  H54      1.0000 0.79097  0.09513  0.68923  Biso   1.000  H
  H55      1.0000 0.94477  0.10073  0.72173  Biso   1.000  H
  H56      1.0000 0.96367  0.08163  0.82603  Biso   1.000  H
  O17      1.0000 0.36294  0.22049  0.09194  Biso   1.000  O
  O18      1.0000 0.38859  0.23328  0.19552  Biso   1.000  O
  C73      1.0000 0.38811  0.24459  0.13687  Biso   1.000  C
  C74      1.0000 0.42046  0.29096  0.11885  Biso   1.000  C
  C75      1.0000 0.44848  0.31965  0.16654  Biso   1.000  C
  H57      1.0000 0.44773  0.30957  0.21007  Biso   1.000  H
  C76      1.0000 0.47743  0.36294  0.15029  Biso   1.000  C
  H58      1.0000 0.49683  0.38237  0.18267  Biso   1.000  H
  C77      1.0000 0.47833  0.37806  0.08710  Biso   1.000  C
  C78      1.0000 0.45085  0.34847  0.03864  Biso   1.000  C
  H59      1.0000 0.45243  0.35797  0.99457  Biso   1.000  H
  C79      1.0000 0.42160  0.30550  0.05557  Biso   1.000  C
  H60      1.0000 0.40223  0.28597  0.02337  Biso   1.000  H
  C80      1.0000 0.50591  0.42532  0.06990  Biso   1.000  C
  C81      1.0000 0.48743  0.44533  0.03505  Biso   1.000  C
  H61      1.0000 0.45763  0.42847  0.02257  Biso   1.000  H
  H62      1.0000 0.61143  0.43407  0.05507  Biso   1.000  H
  H63      1.0000 0.63033  0.41497  0.15937  Biso   1.000  H
  O19      1.0000 0.47579  0.44618  0.57473  Biso   1.000  O
  O20      1.0000 0.48865  0.43339  0.47115  Biso   1.000  O
  C82      1.0000 0.47686  0.42208  0.52980  Biso   1.000  C
  C83      1.0000 0.46284  0.37571  0.54782  Biso   1.000  C
  C84      1.0000 0.46217  0.34702  0.50013  Biso   1.000  C
  H64      1.0000 0.47150  0.35710  0.45660  Biso   1.000  H
  C85      1.0000 0.44783  0.30373  0.51638  Biso   1.000  C
  H65      1.0000 0.44780  0.28430  0.48400  Biso   1.000  H
  C86      1.0000 0.43361  0.28861  0.57957  Biso   1.000  C
  C87      1.0000 0.43572  0.31820  0.62803  Biso   1.000  C
  H66      1.0000 0.42780  0.30870  0.67210  Biso   1.000  H
  C88      1.0000 0.44944  0.36117  0.61110  Biso   1.000  C
  H67      1.0000 0.44960  0.38070  0.64330  Biso   1.000  H
  C89      1.0000 0.41393  0.24135  0.59677  Biso   1.000  C
  C90      1.0000 0.37544  0.22134  0.63162  Biso   1.000  C
  H68      1.0000 0.36250  0.23820  0.64410  Biso   1.000  H
  H69      1.0000 0.51070  0.23260  0.61160  Biso   1.000  H
  H70      1.0000 0.54870  0.25170  0.50730  Biso   1.000  H
  O21      1.0000 0.14246  0.77951  0.90806  Biso   1.000  O
  O22      1.0000 0.15532  0.76672  0.80448  Biso   1.000  O
  C91      1.0000 0.14353  0.75541  0.86313  Biso   1.000  C
  C92      1.0000 0.12951  0.70904  0.88115  Biso   1.000  C
  C93      1.0000 0.12884  0.68035  0.83346  Biso   1.000  C
  H71      1.0000 0.13817  0.69043  0.78993  Biso   1.000  H
  C94      1.0000 0.11450  0.63706  0.84971  Biso   1.000  C
  H72      1.0000 0.11447  0.61763  0.81733  Biso   1.000  H
  C95      1.0000 0.10028  0.62194  0.91290  Biso   1.000  C
  C96      1.0000 0.10239  0.65153  0.96136  Biso   1.000  C
  H73      1.0000 0.09447  0.64203  0.00543  Biso   1.000  H
  C97      1.0000 0.11611  0.69450  0.94443  Biso   1.000  C
  H74      1.0000 0.11627  0.71403  0.97663  Biso   1.000  H
  C98      1.0000 0.08060  0.57468  0.93010  Biso   1.000  C
  C99      1.0000 0.04211  0.55467  0.96495  Biso   1.000  C
  H75      1.0000 0.02917  0.57153  0.97743  Biso   1.000  H
  H76      1.0000 0.17737  0.56593  0.94493  Biso   1.000  H
  H77      1.0000 0.21537  0.58503  0.84063  Biso   1.000  H
  O23      1.0000 0.80912  0.11285  0.24140  Biso   1.000  O
  O24      1.0000 0.82198  0.10006  0.13782  Biso   1.000  O
  C100     1.0000 0.81019  0.08875  0.19647  Biso   1.000  C
  C101     1.0000 0.79617  0.04238  0.21449  Biso   1.000  C
  C102     1.0000 0.79550  0.01369  0.16680  Biso   1.000  C
  H78      1.0000 0.80483  0.02377  0.12327  Biso   1.000  H
  C103     1.0000 0.78116  0.97040  0.18305  Biso   1.000  C
  H79      1.0000 0.78113  0.95097  0.15067  Biso   1.000  H
  C104     1.0000 0.76694  0.95528  0.24624  Biso   1.000  C
  C105     1.0000 0.76905  0.98487  0.29470  Biso   1.000  C
  H80      1.0000 0.76113  0.97537  0.33877  Biso   1.000  H
  C106     1.0000 0.78277  0.02784  0.27777  Biso   1.000  C
  H81      1.0000 0.78293  0.04737  0.30997  Biso   1.000  H
  C107     1.0000 0.74726  0.90802  0.26344  Biso   1.000  C
  C108     1.0000 0.70877  0.88801  0.29829  Biso   1.000  C
  H82      1.0000 0.69583  0.90487  0.31077  Biso   1.000  H
  H83      1.0000 0.84403  0.89927  0.27827  Biso   1.000  H
  H84      1.0000 0.88203  0.91837  0.17397  Biso   1.000  H
  O25      1.0000 0.97039  0.52421  0.57473  Biso   1.000  O
  O26      1.0000 0.94474  0.51135  0.47115  Biso   1.000  O
  C109     1.0000 0.94522  0.52314  0.52980  Biso   1.000  C
  C110     1.0000 0.91287  0.53716  0.54782  Biso   1.000  C
  C111     1.0000 0.88485  0.53783  0.50013  Biso   1.000  C
  H85      1.0000 0.88560  0.52850  0.45660  Biso   1.000  H
  C112     1.0000 0.85590  0.55217  0.51638  Biso   1.000  C
  H86      1.0000 0.83650  0.55220  0.48400  Biso   1.000  H
  C113     1.0000 0.85500  0.56639  0.57957  Biso   1.000  C
  C114     1.0000 0.88248  0.56428  0.62803  Biso   1.000  C
  H87      1.0000 0.88090  0.57220  0.67210  Biso   1.000  H
  C115     1.0000 0.91173  0.55056  0.61110  Biso   1.000  C
  H88      1.0000 0.93110  0.55040  0.64330  Biso   1.000  H
  C116     1.0000 0.82742  0.58607  0.59677  Biso   1.000  C
  C117     1.0000 0.84590  0.62456  0.63162  Biso   1.000  C
  H89      1.0000 0.87570  0.63750  0.64410  Biso   1.000  H
  H90      1.0000 0.72190  0.48930  0.61160  Biso   1.000  H
  H91      1.0000 0.70300  0.45130  0.50730  Biso   1.000  H
  O27      1.0000 0.63706  0.85754  0.90806  Biso   1.000  O
  O28      1.0000 0.61141  0.84468  0.80448  Biso   1.000  O
  C118     1.0000 0.61189  0.85647  0.86313  Biso   1.000  C
  C119     1.0000 0.57954  0.87049  0.88115  Biso   1.000  C
  C120     1.0000 0.55152  0.87116  0.83346  Biso   1.000  C
  H92      1.0000 0.55227  0.86183  0.78993  Biso   1.000  H
  C121     1.0000 0.52257  0.88550  0.84971  Biso   1.000  C
  H93      1.0000 0.50317  0.88553  0.81733  Biso   1.000  H
  C122     1.0000 0.52167  0.89972  0.91290  Biso   1.000  C
  C123     1.0000 0.54915  0.89761  0.96136  Biso   1.000  C
  H94      1.0000 0.54757  0.90553  0.00543  Biso   1.000  H
  C124     1.0000 0.57840  0.88389  0.94443  Biso   1.000  C
  H95      1.0000 0.59777  0.88373  0.97663  Biso   1.000  H
  C125     1.0000 0.49409  0.91940  0.93010  Biso   1.000  C
  C126     1.0000 0.51257  0.95789  0.96495  Biso   1.000  C
  H96      1.0000 0.54237  0.97083  0.97743  Biso   1.000  H
  H97      1.0000 0.38857  0.82263  0.94493  Biso   1.000  H
  H98      1.0000 0.36967  0.78463  0.84063  Biso   1.000  H
  O29      1.0000 0.30372  0.19088  0.24140  Biso   1.000  O
  O30      1.0000 0.27807  0.17802  0.13782  Biso   1.000  O
  C127     1.0000 0.27855  0.18981  0.19647  Biso   1.000  C
  C128     1.0000 0.24620  0.20383  0.21449  Biso   1.000  C
  C129     1.0000 0.21818  0.20450  0.16680  Biso   1.000  C
  H99      1.0000 0.21893  0.19517  0.12327  Biso   1.000  H
  C130     1.0000 0.18923  0.21884  0.18305  Biso   1.000  C
  H100     1.0000 0.16983  0.21887  0.15067  Biso   1.000  H
  C131     1.0000 0.18833  0.23306  0.24624  Biso   1.000  C
  C132     1.0000 0.21581  0.23095  0.29470  Biso   1.000  C
  H101     1.0000 0.21423  0.23887  0.33877  Biso   1.000  H
  C133     1.0000 0.24506  0.21723  0.27777  Biso   1.000  C
  H102     1.0000 0.26443  0.21707  0.30997  Biso   1.000  H
  C134     1.0000 0.16075  0.25274  0.26344  Biso   1.000  C
  C135     1.0000 0.17923  0.29123  0.29829  Biso   1.000  C
  H103     1.0000 0.20903  0.30417  0.31077  Biso   1.000  H
  H104     1.0000 0.05523  0.15597  0.27827  Biso   1.000  H
  H105     1.0000 0.03633  0.11797  0.17397  Biso   1.000  H
  O31      1.0000 0.55382  0.02961  0.57473  Biso   1.000  O
  O32      1.0000 0.56661  0.05526  0.47115  Biso   1.000  O
  C136     1.0000 0.57792  0.05478  0.52980  Biso   1.000  C
  C137     1.0000 0.62429  0.08713  0.54782  Biso   1.000  C
  C138     1.0000 0.65298  0.11515  0.50013  Biso   1.000  C
  H106     1.0000 0.64290  0.11440  0.45660  Biso   1.000  H
  C139     1.0000 0.69627  0.14410  0.51638  Biso   1.000  C
  H107     1.0000 0.71570  0.16350  0.48400  Biso   1.000  H
  C140     1.0000 0.71139  0.14500  0.57957  Biso   1.000  C
  C141     1.0000 0.68180  0.11752  0.62803  Biso   1.000  C
  H108     1.0000 0.69130  0.11910  0.67210  Biso   1.000  H
  C142     1.0000 0.63883  0.08827  0.61110  Biso   1.000  C
  H109     1.0000 0.61930  0.06890  0.64330  Biso   1.000  H
  C143     1.0000 0.75865  0.17258  0.59677  Biso   1.000  C
  C144     1.0000 0.77866  0.15410  0.63162  Biso   1.000  C
  H110     1.0000 0.76180  0.12430  0.64410  Biso   1.000  H
  H111     1.0000 0.76740  0.27810  0.61160  Biso   1.000  H
  H112     1.0000 0.74830  0.29700  0.50730  Biso   1.000  H
  O33      1.0000 0.22049  0.36294  0.90806  Biso   1.000  O
  O34      1.0000 0.23328  0.38859  0.80448  Biso   1.000  O
  C145     1.0000 0.24459  0.38811  0.86313  Biso   1.000  C
  C146     1.0000 0.29096  0.42046  0.88115  Biso   1.000  C
  C147     1.0000 0.31965  0.44848  0.83346  Biso   1.000  C
  H113     1.0000 0.30957  0.44773  0.78993  Biso   1.000  H
  C148     1.0000 0.36294  0.47743  0.84971  Biso   1.000  C
  H114     1.0000 0.38237  0.49683  0.81733  Biso   1.000  H
  C149     1.0000 0.37806  0.47833  0.91290  Biso   1.000  C
  C150     1.0000 0.34847  0.45085  0.96136  Biso   1.000  C
  H115     1.0000 0.35797  0.45243  0.00543  Biso   1.000  H
  C151     1.0000 0.30550  0.42160  0.94443  Biso   1.000  C
  H116     1.0000 0.28597  0.40223  0.97663  Biso   1.000  H
  C152     1.0000 0.42532  0.50591  0.93010  Biso   1.000  C
  C153     1.0000 0.44533  0.48743  0.96495  Biso   1.000  C
  H117     1.0000 0.42847  0.45763  0.97743  Biso   1.000  H
  H118     1.0000 0.43407  0.61143  0.94493  Biso   1.000  H
  H119     1.0000 0.41497  0.63033  0.84063  Biso   1.000  H
  O35      1.0000 0.88715  0.69628  0.24140  Biso   1.000  O
  O36      1.0000 0.89994  0.72193  0.13782  Biso   1.000  O
  C154     1.0000 0.91125  0.72145  0.19647  Biso   1.000  C
  C155     1.0000 0.95762  0.75380  0.21449  Biso   1.000  C
  C156     1.0000 0.98631  0.78182  0.16680  Biso   1.000  C
  H120     1.0000 0.97623  0.78107  0.12327  Biso   1.000  H
  C157     1.0000 0.02960  0.81077  0.18305  Biso   1.000  C
  H121     1.0000 0.04903  0.83017  0.15067  Biso   1.000  H
  C158     1.0000 0.04472  0.81167  0.24624  Biso   1.000  C
  C159     1.0000 0.01513  0.78419  0.29470  Biso   1.000  C
  H122     1.0000 0.02463  0.78577  0.33877  Biso   1.000  H
  C160     1.0000 0.97216  0.75494  0.27777  Biso   1.000  C
  H123     1.0000 0.95263  0.73557  0.30997  Biso   1.000  H
  C161     1.0000 0.09198  0.83925  0.26344  Biso   1.000  C
  C162     1.0000 0.11199  0.82077  0.29829  Biso   1.000  C
  H124     1.0000 0.09513  0.79097  0.31077  Biso   1.000  H
  H125     1.0000 0.10073  0.94477  0.27827  Biso   1.000  H
  H126     1.0000 0.08163  0.96367  0.17397  Biso   1.000  H
  O37      1.0000 0.55382  0.52421  0.57473  Biso   1.000  O
  O38      1.0000 0.56661  0.51135  0.47115  Biso   1.000  O
  C163     1.0000 0.57792  0.52314  0.52980  Biso   1.000  C
  C164     1.0000 0.62429  0.53716  0.54782  Biso   1.000  C
  C165     1.0000 0.65298  0.53783  0.50013  Biso   1.000  C
  H127     1.0000 0.64290  0.52850  0.45660  Biso   1.000  H
  C166     1.0000 0.69627  0.55217  0.51638  Biso   1.000  C
  H128     1.0000 0.71570  0.55220  0.48400  Biso   1.000  H
  C167     1.0000 0.71139  0.56639  0.57957  Biso   1.000  C
  C168     1.0000 0.68180  0.56428  0.62803  Biso   1.000  C
  H129     1.0000 0.69130  0.57220  0.67210  Biso   1.000  H
  C169     1.0000 0.63883  0.55056  0.61110  Biso   1.000  C
  H130     1.0000 0.61930  0.55040  0.64330  Biso   1.000  H
  C170     1.0000 0.75865  0.58607  0.59677  Biso   1.000  C
  C171     1.0000 0.77866  0.62456  0.63162  Biso   1.000  C
  H131     1.0000 0.76180  0.63750  0.64410  Biso   1.000  H
  H132     1.0000 0.76740  0.48930  0.61160  Biso   1.000  H
  H133     1.0000 0.74830  0.45130  0.50730  Biso   1.000  H
  O39      1.0000 0.22049  0.85754  0.90806  Biso   1.000  O
  O40      1.0000 0.23328  0.84468  0.80448  Biso   1.000  O
  C172     1.0000 0.24459  0.85647  0.86313  Biso   1.000  C
  C173     1.0000 0.29096  0.87049  0.88115  Biso   1.000  C
  C174     1.0000 0.31965  0.87116  0.83346  Biso   1.000  C
  H134     1.0000 0.30957  0.86183  0.78993  Biso   1.000  H
  C175     1.0000 0.36294  0.88550  0.84971  Biso   1.000  C
  H135     1.0000 0.38237  0.88553  0.81733  Biso   1.000  H
  C176     1.0000 0.37806  0.89972  0.91290  Biso   1.000  C
  C177     1.0000 0.34847  0.89761  0.96136  Biso   1.000  C
  H136     1.0000 0.35797  0.90553  0.00543  Biso   1.000  H
  C178     1.0000 0.30550  0.88389  0.94443  Biso   1.000  C
  H137     1.0000 0.28597  0.88373  0.97663  Biso   1.000  H
  C179     1.0000 0.42532  0.91940  0.93010  Biso   1.000  C
  C180     1.0000 0.44533  0.95789  0.96495  Biso   1.000  C
  H138     1.0000 0.42847  0.97083  0.97743  Biso   1.000  H
  H139     1.0000 0.43407  0.82263  0.94493  Biso   1.000  H
  H140     1.0000 0.41497  0.78463  0.84063  Biso   1.000  H
  O41      1.0000 0.88715  0.19088  0.24140  Biso   1.000  O
  O42      1.0000 0.89994  0.17802  0.13782  Biso   1.000  O
  C181     1.0000 0.91125  0.18981  0.19647  Biso   1.000  C
  C182     1.0000 0.95762  0.20383  0.21449  Biso   1.000  C
  C183     1.0000 0.98631  0.20450  0.16680  Biso   1.000  C
  H141     1.0000 0.97623  0.19517  0.12327  Biso   1.000  H
  C184     1.0000 0.02960  0.21884  0.18305  Biso   1.000  C
  H142     1.0000 0.04903  0.21887  0.15067  Biso   1.000  H
  C185     1.0000 0.04472  0.23306  0.24624  Biso   1.000  C
  C186     1.0000 0.01513  0.23095  0.29470  Biso   1.000  C
  H143     1.0000 0.02463  0.23887  0.33877  Biso   1.000  H
  C187     1.0000 0.97216  0.21723  0.27777  Biso   1.000  C
  H144     1.0000 0.95263  0.21707  0.30997  Biso   1.000  H
  C188     1.0000 0.09198  0.25274  0.26344  Biso   1.000  C
  C189     1.0000 0.11199  0.29123  0.29829  Biso   1.000  C
  H145     1.0000 0.09513  0.30417  0.31077  Biso   1.000  H
  H146     1.0000 0.10073  0.15597  0.27827  Biso   1.000  H
  H147     1.0000 0.08163  0.11797  0.17397  Biso   1.000  H
  O43      1.0000 0.47579  0.02961  0.57473  Biso   1.000  O
  O44      1.0000 0.48865  0.05526  0.47115  Biso   1.000  O
  C190     1.0000 0.47686  0.05478  0.52980  Biso   1.000  C
  C191     1.0000 0.46284  0.08713  0.54782  Biso   1.000  C
  C192     1.0000 0.46217  0.11515  0.50013  Biso   1.000  C
  H148     1.0000 0.47150  0.11440  0.45660  Biso   1.000  H
  C193     1.0000 0.44783  0.14410  0.51638  Biso   1.000  C
  H149     1.0000 0.44780  0.16350  0.48400  Biso   1.000  H
  C194     1.0000 0.43361  0.14500  0.57957  Biso   1.000  C
  C195     1.0000 0.43572  0.11752  0.62803  Biso   1.000  C
  H150     1.0000 0.42780  0.11910  0.67210  Biso   1.000  H
  C196     1.0000 0.44944  0.08827  0.61110  Biso   1.000  C
  H151     1.0000 0.44960  0.06890  0.64330  Biso   1.000  H
  C197     1.0000 0.41393  0.17258  0.59677  Biso   1.000  C
  C198     1.0000 0.37544  0.15410  0.63162  Biso   1.000  C
  H152     1.0000 0.36250  0.12430  0.64410  Biso   1.000  H
  H153     1.0000 0.51070  0.27810  0.61160  Biso   1.000  H
  H154     1.0000 0.54870  0.29700  0.50730  Biso   1.000  H
  O45      1.0000 0.14246  0.36294  0.90806  Biso   1.000  O
  O46      1.0000 0.15532  0.38859  0.80448  Biso   1.000  O
  C199     1.0000 0.14353  0.38811  0.86313  Biso   1.000  C
  C200     1.0000 0.12951  0.42046  0.88115  Biso   1.000  C
  C201     1.0000 0.12884  0.44848  0.83346  Biso   1.000  C
  H155     1.0000 0.13817  0.44773  0.78993  Biso   1.000  H
  C202     1.0000 0.11450  0.47743  0.84971  Biso   1.000  C
  H156     1.0000 0.11447  0.49683  0.81733  Biso   1.000  H
  C203     1.0000 0.10028  0.47833  0.91290  Biso   1.000  C
  C204     1.0000 0.10239  0.45085  0.96136  Biso   1.000  C
  H157     1.0000 0.09447  0.45243  0.00543  Biso   1.000  H
  C205     1.0000 0.11611  0.42160  0.94443  Biso   1.000  C
  H158     1.0000 0.11627  0.40223  0.97663  Biso   1.000  H
  C206     1.0000 0.08060  0.50591  0.93010  Biso   1.000  C
  C207     1.0000 0.04211  0.48743  0.96495  Biso   1.000  C
  H159     1.0000 0.02917  0.45763  0.97743  Biso   1.000  H
  H160     1.0000 0.17737  0.61143  0.94493  Biso   1.000  H
  H161     1.0000 0.21537  0.63033  0.84063  Biso   1.000  H
  O47      1.0000 0.80912  0.69628  0.24140  Biso   1.000  O
  O48      1.0000 0.82198  0.72193  0.13782  Biso   1.000  O
  C208     1.0000 0.81019  0.72145  0.19647  Biso   1.000  C
  C209     1.0000 0.79617  0.75380  0.21449  Biso   1.000  C
  C210     1.0000 0.79550  0.78182  0.16680  Biso   1.000  C
  H162     1.0000 0.80483  0.78107  0.12327  Biso   1.000  H
  C211     1.0000 0.78116  0.81077  0.18305  Biso   1.000  C
  H163     1.0000 0.78113  0.83017  0.15067  Biso   1.000  H
  C212     1.0000 0.76694  0.81167  0.24624  Biso   1.000  C
  C213     1.0000 0.76905  0.78419  0.29470  Biso   1.000  C
  H164     1.0000 0.76113  0.78577  0.33877  Biso   1.000  H
  C214     1.0000 0.78277  0.75494  0.27777  Biso   1.000  C
  H165     1.0000 0.78293  0.73557  0.30997  Biso   1.000  H
  C215     1.0000 0.74726  0.83925  0.26344  Biso   1.000  C
  C216     1.0000 0.70877  0.82077  0.29829  Biso   1.000  C
  H166     1.0000 0.69583  0.79097  0.31077  Biso   1.000  H
  H167     1.0000 0.84403  0.94477  0.27827  Biso   1.000  H
  H168     1.0000 0.88203  0.96367  0.17397  Biso   1.000  H
  O49      1.0000 0.97039  0.44618  0.57473  Biso   1.000  O
  O50      1.0000 0.94474  0.43339  0.47115  Biso   1.000  O
  C217     1.0000 0.94522  0.42208  0.52980  Biso   1.000  C
  C218     1.0000 0.91287  0.37571  0.54782  Biso   1.000  C
  C219     1.0000 0.88485  0.34702  0.50013  Biso   1.000  C
  H169     1.0000 0.88560  0.35710  0.45660  Biso   1.000  H
  C220     1.0000 0.85590  0.30373  0.51638  Biso   1.000  C
  H170     1.0000 0.83650  0.28430  0.48400  Biso   1.000  H
  C221     1.0000 0.85500  0.28861  0.57957  Biso   1.000  C
  C222     1.0000 0.88248  0.31820  0.62803  Biso   1.000  C
  H171     1.0000 0.88090  0.30870  0.67210  Biso   1.000  H
  C223     1.0000 0.91173  0.36117  0.61110  Biso   1.000  C
  H172     1.0000 0.93110  0.38070  0.64330  Biso   1.000  H
  C224     1.0000 0.82742  0.24135  0.59677  Biso   1.000  C
  C225     1.0000 0.84590  0.22134  0.63162  Biso   1.000  C
  H173     1.0000 0.87570  0.23820  0.64410  Biso   1.000  H
  H174     1.0000 0.72190  0.23260  0.61160  Biso   1.000  H
  H175     1.0000 0.70300  0.25170  0.50730  Biso   1.000  H
  O51      1.0000 0.63706  0.77951  0.90806  Biso   1.000  O
  O52      1.0000 0.61141  0.76672  0.80448  Biso   1.000  O
  C226     1.0000 0.61189  0.75541  0.86313  Biso   1.000  C
  C227     1.0000 0.57954  0.70904  0.88115  Biso   1.000  C
  C228     1.0000 0.55152  0.68035  0.83346  Biso   1.000  C
  H176     1.0000 0.55227  0.69043  0.78993  Biso   1.000  H
  C229     1.0000 0.52257  0.63706  0.84971  Biso   1.000  C
  H177     1.0000 0.50317  0.61763  0.81733  Biso   1.000  H
  C230     1.0000 0.52167  0.62194  0.91290  Biso   1.000  C
  C231     1.0000 0.54915  0.65153  0.96136  Biso   1.000  C
  H178     1.0000 0.54757  0.64203  0.00543  Biso   1.000  H
  C232     1.0000 0.57840  0.69450  0.94443  Biso   1.000  C
  H179     1.0000 0.59777  0.71403  0.97663  Biso   1.000  H
  C233     1.0000 0.49409  0.57468  0.93010  Biso   1.000  C
  C234     1.0000 0.51257  0.55467  0.96495  Biso   1.000  C
  H180     1.0000 0.54237  0.57153  0.97743  Biso   1.000  H
  H181     1.0000 0.38857  0.56593  0.94493  Biso   1.000  H
  H182     1.0000 0.36967  0.58503  0.84063  Biso   1.000  H
  O53      1.0000 0.30372  0.11285  0.24140  Biso   1.000  O
  O54      1.0000 0.27807  0.10006  0.13782  Biso   1.000  O
  C235     1.0000 0.27855  0.08875  0.19647  Biso   1.000  C
  C236     1.0000 0.24620  0.04238  0.21449  Biso   1.000  C
  C237     1.0000 0.21818  0.01369  0.16680  Biso   1.000  C
  H183     1.0000 0.21893  0.02377  0.12327  Biso   1.000  H
  C238     1.0000 0.18923  0.97040  0.18305  Biso   1.000  C
  H184     1.0000 0.16983  0.95097  0.15067  Biso   1.000  H
  C239     1.0000 0.18833  0.95528  0.24624  Biso   1.000  C
  C240     1.0000 0.21581  0.98487  0.29470  Biso   1.000  C
  H185     1.0000 0.21423  0.97537  0.33877  Biso   1.000  H
  C241     1.0000 0.24506  0.02784  0.27777  Biso   1.000  C
  H186     1.0000 0.26443  0.04737  0.30997  Biso   1.000  H
  C242     1.0000 0.16075  0.90802  0.26344  Biso   1.000  C
  C243     1.0000 0.17923  0.88801  0.29829  Biso   1.000  C
  H187     1.0000 0.20903  0.90487  0.31077  Biso   1.000  H
  H188     1.0000 0.05523  0.89927  0.27827  Biso   1.000  H
  H189     1.0000 0.03633  0.91837  0.17397  Biso   1.000  H
  O55      1.0000 0.52421  0.55382  0.42527  Biso   1.000  O
  O56      1.0000 0.51135  0.56661  0.52885  Biso   1.000  O
  C244     1.0000 0.52314  0.57792  0.47020  Biso   1.000  C
  C245     1.0000 0.53716  0.62429  0.45218  Biso   1.000  C
  C246     1.0000 0.53783  0.65298  0.49987  Biso   1.000  C
  H190     1.0000 0.52850  0.64290  0.54340  Biso   1.000  H
  C247     1.0000 0.55217  0.69627  0.48362  Biso   1.000  C
  H191     1.0000 0.55220  0.71570  0.51600  Biso   1.000  H
  C248     1.0000 0.56639  0.71139  0.42043  Biso   1.000  C
  C249     1.0000 0.56428  0.68180  0.37197  Biso   1.000  C
  H192     1.0000 0.57220  0.69130  0.32790  Biso   1.000  H
  C250     1.0000 0.55056  0.63883  0.38890  Biso   1.000  C
  H193     1.0000 0.55040  0.61930  0.35670  Biso   1.000  H
  C251     1.0000 0.58607  0.75865  0.40323  Biso   1.000  C
  C252     1.0000 0.62456  0.77866  0.36838  Biso   1.000  C
  H194     1.0000 0.63750  0.76180  0.35590  Biso   1.000  H
  H195     1.0000 0.48930  0.76740  0.38840  Biso   1.000  H
  H196     1.0000 0.45130  0.74830  0.49270  Biso   1.000  H
  O57      1.0000 0.19088  0.88715  0.75860  Biso   1.000  O
  O58      1.0000 0.17802  0.89994  0.86218  Biso   1.000  O
  C253     1.0000 0.18981  0.91125  0.80353  Biso   1.000  C
  C254     1.0000 0.20383  0.95762  0.78551  Biso   1.000  C
  C255     1.0000 0.20450  0.98631  0.83320  Biso   1.000  C
  H197     1.0000 0.19517  0.97623  0.87673  Biso   1.000  H
  C256     1.0000 0.21884  0.02960  0.81695  Biso   1.000  C
  H198     1.0000 0.21887  0.04903  0.84933  Biso   1.000  H
  C257     1.0000 0.23306  0.04472  0.75376  Biso   1.000  C
  C258     1.0000 0.23095  0.01513  0.70530  Biso   1.000  C
  H199     1.0000 0.23887  0.02463  0.66123  Biso   1.000  H
  C259     1.0000 0.21723  0.97216  0.72223  Biso   1.000  C
  H200     1.0000 0.21707  0.95263  0.69003  Biso   1.000  H
  C260     1.0000 0.25274  0.09198  0.73656  Biso   1.000  C
  C261     1.0000 0.29123  0.11199  0.70171  Biso   1.000  C
  H201     1.0000 0.30417  0.09513  0.68923  Biso   1.000  H
  H202     1.0000 0.15597  0.10073  0.72173  Biso   1.000  H
  H203     1.0000 0.11797  0.08163  0.82603  Biso   1.000  H
  O59      1.0000 0.85754  0.22049  0.09194  Biso   1.000  O
  O60      1.0000 0.84468  0.23328  0.19552  Biso   1.000  O
  C262     1.0000 0.85647  0.24459  0.13687  Biso   1.000  C
  C263     1.0000 0.87049  0.29096  0.11885  Biso   1.000  C
  C264     1.0000 0.87116  0.31965  0.16654  Biso   1.000  C
  H204     1.0000 0.86183  0.30957  0.21007  Biso   1.000  H
  C265     1.0000 0.88550  0.36294  0.15029  Biso   1.000  C
  H205     1.0000 0.88553  0.38237  0.18267  Biso   1.000  H
  C266     1.0000 0.89972  0.37806  0.08710  Biso   1.000  C
  C267     1.0000 0.89761  0.34847  0.03864  Biso   1.000  C
  H206     1.0000 0.90553  0.35797  0.99457  Biso   1.000  H
  C268     1.0000 0.88389  0.30550  0.05557  Biso   1.000  C
  H207     1.0000 0.88373  0.28597  0.02337  Biso   1.000  H
  C269     1.0000 0.91940  0.42532  0.06990  Biso   1.000  C
  C270     1.0000 0.95789  0.44533  0.03505  Biso   1.000  C
  H208     1.0000 0.97083  0.42847  0.02257  Biso   1.000  H
  H209     1.0000 0.82263  0.43407  0.05507  Biso   1.000  H
  H210     1.0000 0.78463  0.41497  0.15937  Biso   1.000  H
  O61      1.0000 0.02961  0.47579  0.42527  Biso   1.000  O
  O62      1.0000 0.05526  0.48865  0.52885  Biso   1.000  O
  C271     1.0000 0.05478  0.47686  0.47020  Biso   1.000  C
  C272     1.0000 0.08713  0.46284  0.45218  Biso   1.000  C
  C273     1.0000 0.11515  0.46217  0.49987  Biso   1.000  C
  H211     1.0000 0.11440  0.47150  0.54340  Biso   1.000  H
  C274     1.0000 0.14410  0.44783  0.48362  Biso   1.000  C
  H212     1.0000 0.16350  0.44780  0.51600  Biso   1.000  H
  C275     1.0000 0.14500  0.43361  0.42043  Biso   1.000  C
  C276     1.0000 0.11752  0.43572  0.37197  Biso   1.000  C
  H213     1.0000 0.11910  0.42780  0.32790  Biso   1.000  H
  C277     1.0000 0.08827  0.44944  0.38890  Biso   1.000  C
  H214     1.0000 0.06890  0.44960  0.35670  Biso   1.000  H
  C278     1.0000 0.17258  0.41393  0.40323  Biso   1.000  C
  C279     1.0000 0.15410  0.37544  0.36838  Biso   1.000  C
  H215     1.0000 0.12430  0.36250  0.35590  Biso   1.000  H
  H216     1.0000 0.27810  0.51070  0.38840  Biso   1.000  H
  H217     1.0000 0.29700  0.54870  0.49270  Biso   1.000  H
  O63      1.0000 0.69628  0.80912  0.75860  Biso   1.000  O
  O64      1.0000 0.72193  0.82198  0.86218  Biso   1.000  O
  C280     1.0000 0.72145  0.81019  0.80353  Biso   1.000  C
  C281     1.0000 0.75380  0.79617  0.78551  Biso   1.000  C
  C282     1.0000 0.78182  0.79550  0.83320  Biso   1.000  C
  H218     1.0000 0.78107  0.80483  0.87673  Biso   1.000  H
  C283     1.0000 0.81077  0.78116  0.81695  Biso   1.000  C
  H219     1.0000 0.83017  0.78113  0.84933  Biso   1.000  H
  C284     1.0000 0.81167  0.76694  0.75376  Biso   1.000  C
  C285     1.0000 0.78419  0.76905  0.70530  Biso   1.000  C
  H220     1.0000 0.78577  0.76113  0.66123  Biso   1.000  H
  C286     1.0000 0.75494  0.78277  0.72223  Biso   1.000  C
  H221     1.0000 0.73557  0.78293  0.69003  Biso   1.000  H
  C287     1.0000 0.83925  0.74726  0.73656  Biso   1.000  C
  C288     1.0000 0.82077  0.70877  0.70171  Biso   1.000  C
  H222     1.0000 0.79097  0.69583  0.68923  Biso   1.000  H
  H223     1.0000 0.94477  0.84403  0.72173  Biso   1.000  H
  H224     1.0000 0.96367  0.88203  0.82603  Biso   1.000  H
  O65      1.0000 0.36294  0.14246  0.09194  Biso   1.000  O
  O66      1.0000 0.38859  0.15532  0.19552  Biso   1.000  O
  C289     1.0000 0.38811  0.14353  0.13687  Biso   1.000  C
  C290     1.0000 0.42046  0.12951  0.11885  Biso   1.000  C
  C291     1.0000 0.44848  0.12884  0.16654  Biso   1.000  C
  H225     1.0000 0.44773  0.13817  0.21007  Biso   1.000  H
  C292     1.0000 0.47743  0.11450  0.15029  Biso   1.000  C
  H226     1.0000 0.49683  0.11447  0.18267  Biso   1.000  H
  C293     1.0000 0.47833  0.10028  0.08710  Biso   1.000  C
  C294     1.0000 0.45085  0.10239  0.03864  Biso   1.000  C
  H227     1.0000 0.45243  0.09447  0.99457  Biso   1.000  H
  C295     1.0000 0.42160  0.11611  0.05557  Biso   1.000  C
  H228     1.0000 0.40223  0.11627  0.02337  Biso   1.000  H
  C296     1.0000 0.50591  0.08060  0.06990  Biso   1.000  C
  C297     1.0000 0.48743  0.04211  0.03505  Biso   1.000  C
  H229     1.0000 0.45763  0.02917  0.02257  Biso   1.000  H
  H230     1.0000 0.61143  0.17737  0.05507  Biso   1.000  H
  H231     1.0000 0.63033  0.21537  0.15937  Biso   1.000  H
  O67      1.0000 0.44618  0.97039  0.42527  Biso   1.000  O
  O68      1.0000 0.43339  0.94474  0.52885  Biso   1.000  O
  C298     1.0000 0.42208  0.94522  0.47020  Biso   1.000  C
  C299     1.0000 0.37571  0.91287  0.45218  Biso   1.000  C
  C300     1.0000 0.34702  0.88485  0.49987  Biso   1.000  C
  H232     1.0000 0.35710  0.88560  0.54340  Biso   1.000  H
  C301     1.0000 0.30373  0.85590  0.48362  Biso   1.000  C
  H233     1.0000 0.28430  0.83650  0.51600  Biso   1.000  H
  C302     1.0000 0.28861  0.85500  0.42043  Biso   1.000  C
  C303     1.0000 0.31820  0.88248  0.37197  Biso   1.000  C
  H234     1.0000 0.30870  0.88090  0.32790  Biso   1.000  H
  C304     1.0000 0.36117  0.91173  0.38890  Biso   1.000  C
  H235     1.0000 0.38070  0.93110  0.35670  Biso   1.000  H
  C305     1.0000 0.24135  0.82742  0.40323  Biso   1.000  C
  C306     1.0000 0.22134  0.84590  0.36838  Biso   1.000  C
  H236     1.0000 0.23820  0.87570  0.35590  Biso   1.000  H
  H237     1.0000 0.23260  0.72190  0.38840  Biso   1.000  H
  H238     1.0000 0.25170  0.70300  0.49270  Biso   1.000  H
  O69      1.0000 0.11285  0.30372  0.75860  Biso   1.000  O
  O70      1.0000 0.10006  0.27807  0.86218  Biso   1.000  O
  C307     1.0000 0.08875  0.27855  0.80353  Biso   1.000  C
  C308     1.0000 0.04238  0.24620  0.78551  Biso   1.000  C
  C309     1.0000 0.01369  0.21818  0.83320  Biso   1.000  C
  H239     1.0000 0.02377  0.21893  0.87673  Biso   1.000  H
  C310     1.0000 0.97040  0.18923  0.81695  Biso   1.000  C
  H240     1.0000 0.95097  0.16983  0.84933  Biso   1.000  H
  C311     1.0000 0.95528  0.18833  0.75376  Biso   1.000  C
  C312     1.0000 0.98487  0.21581  0.70530  Biso   1.000  C
  H241     1.0000 0.97537  0.21423  0.66123  Biso   1.000  H
  C313     1.0000 0.02784  0.24506  0.72223  Biso   1.000  C
  H242     1.0000 0.04737  0.26443  0.69003  Biso   1.000  H
  C314     1.0000 0.90802  0.16075  0.73656  Biso   1.000  C
  C315     1.0000 0.88801  0.17923  0.70171  Biso   1.000  C
  H243     1.0000 0.90487  0.20903  0.68923  Biso   1.000  H
  H244     1.0000 0.89927  0.05523  0.72173  Biso   1.000  H
  H245     1.0000 0.91837  0.03633  0.82603  Biso   1.000  H
  O71      1.0000 0.77951  0.63706  0.09194  Biso   1.000  O
  O72      1.0000 0.76672  0.61141  0.19552  Biso   1.000  O
  C316     1.0000 0.75541  0.61189  0.13687  Biso   1.000  C
  C317     1.0000 0.70904  0.57954  0.11885  Biso   1.000  C
  C318     1.0000 0.68035  0.55152  0.16654  Biso   1.000  C
  H246     1.0000 0.69043  0.55227  0.21007  Biso   1.000  H
  C319     1.0000 0.63706  0.52257  0.15029  Biso   1.000  C
  H247     1.0000 0.61763  0.50317  0.18267  Biso   1.000  H
  C320     1.0000 0.62194  0.52167  0.08710  Biso   1.000  C
  C321     1.0000 0.65153  0.54915  0.03864  Biso   1.000  C
  H248     1.0000 0.64203  0.54757  0.99457  Biso   1.000  H
  C322     1.0000 0.69450  0.57840  0.05557  Biso   1.000  C
  H249     1.0000 0.71403  0.59777  0.02337  Biso   1.000  H
  C323     1.0000 0.57468  0.49409  0.06990  Biso   1.000  C
  C324     1.0000 0.55467  0.51257  0.03505  Biso   1.000  C
  H250     1.0000 0.57153  0.54237  0.02257  Biso   1.000  H
  H251     1.0000 0.56593  0.38857  0.05507  Biso   1.000  H
  H252     1.0000 0.58503  0.36967  0.15937  Biso   1.000  H
  Cu1      1.0000 0.50745  0.49255  0.43921  Biso   1.000  Cu
  Cu2      1.0000 0.17412  0.82588  0.77254  Biso   1.000  Cu
  Cu3      1.0000 0.84078  0.15922  0.10588  Biso   1.000  Cu
  Cu4      1.0000 0.50745  0.01490  0.43921  Biso   1.000  Cu
  Cu5      1.0000 0.17412  0.34823  0.77254  Biso   1.000  Cu
  Cu6      1.0000 0.84078  0.68157  0.10588  Biso   1.000  Cu
  Cu7      1.0000 0.98510  0.49255  0.43921  Biso   1.000  Cu
  Cu8      1.0000 0.65177  0.82588  0.77254  Biso   1.000  Cu
  Cu9      1.0000 0.31843  0.15922  0.10588  Biso   1.000  Cu
  Cu10     1.0000 0.49255  0.50745  0.56079  Biso   1.000  Cu
  Cu11     1.0000 0.15922  0.84078  0.89412  Biso   1.000  Cu
  Cu12     1.0000 0.82588  0.17412  0.22746  Biso   1.000  Cu
  Cu13     1.0000 0.01490  0.50745  0.56079  Biso   1.000  Cu
  Cu14     1.0000 0.68157  0.84078  0.89412  Biso   1.000  Cu
  Cu15     1.0000 0.34823  0.17412  0.22746  Biso   1.000  Cu
  Cu16     1.0000 0.49255  0.98510  0.56079  Biso   1.000  Cu
  Cu17     1.0000 0.15922  0.31843  0.89412  Biso   1.000  Cu
  Cu18     1.0000 0.82588  0.65177  0.22746  Biso   1.000  Cu
  O73      1.0000 0.23620  0.47240  0.45613  Biso   1.000  O
  C325     1.0000 0.17726  0.35453  0.35040  Biso   1.000  C
  C326     1.0000 0.21684  0.43369  0.42154  Biso   1.000  C
  C327     1.0000 0.25504  0.51008  0.41670  Biso   1.000  C
  C328     1.0000 0.27490  0.54980  0.46500  Biso   1.000  C
  H253     1.0000 0.28860  0.57720  0.43970  Biso   1.000  H
  O74      1.0000 0.90287  0.80573  0.78946  Biso   1.000  O
  C329     1.0000 0.84393  0.68786  0.68373  Biso   1.000  C
  C330     1.0000 0.88351  0.76702  0.75487  Biso   1.000  C
  C331     1.0000 0.92171  0.84341  0.75003  Biso   1.000  C
  C332     1.0000 0.94157  0.88313  0.79833  Biso   1.000  C
  H254     1.0000 0.95527  0.91053  0.77303  Biso   1.000  H
  O75      1.0000 0.56953  0.13907  0.12280  Biso   1.000  O
  C333     1.0000 0.51060  0.02120  0.01707  Biso   1.000  C
  C334     1.0000 0.55018  0.10036  0.08821  Biso   1.000  C
  C335     1.0000 0.58837  0.17675  0.08337  Biso   1.000  C
  C336     1.0000 0.60823  0.21647  0.13167  Biso   1.000  C
  H255     1.0000 0.62193  0.24387  0.10637  Biso   1.000  H
  O76      1.0000 0.52760  0.76380  0.45613  Biso   1.000  O
  C337     1.0000 0.64547  0.82274  0.35040  Biso   1.000  C
  C338     1.0000 0.56631  0.78316  0.42154  Biso   1.000  C
  C339     1.0000 0.48992  0.74496  0.41670  Biso   1.000  C
  C340     1.0000 0.45020  0.72510  0.46500  Biso   1.000  C
  H256     1.0000 0.42280  0.71140  0.43970  Biso   1.000  H
  O77      1.0000 0.19427  0.09713  0.78946  Biso   1.000  O
  C341     1.0000 0.31214  0.15607  0.68373  Biso   1.000  C
  C342     1.0000 0.23298  0.11649  0.75487  Biso   1.000  C
  C343     1.0000 0.15659  0.07829  0.75003  Biso   1.000  C
  C344     1.0000 0.11687  0.05843  0.79833  Biso   1.000  C
  H257     1.0000 0.08947  0.04473  0.77303  Biso   1.000  H
  O78      1.0000 0.86093  0.43047  0.12280  Biso   1.000  O
  C345     1.0000 0.97880  0.48940  0.01707  Biso   1.000  C
  C346     1.0000 0.89964  0.44982  0.08821  Biso   1.000  C
  C347     1.0000 0.82325  0.41163  0.08337  Biso   1.000  C
  C348     1.0000 0.78353  0.39177  0.13167  Biso   1.000  C
  H258     1.0000 0.75613  0.37807  0.10637  Biso   1.000  H
  O79      1.0000 0.23620  0.76380  0.45613  Biso   1.000  O
  C349     1.0000 0.17726  0.82274  0.35040  Biso   1.000  C
  C350     1.0000 0.21684  0.78316  0.42154  Biso   1.000  C
  C351     1.0000 0.25504  0.74496  0.41670  Biso   1.000  C
  C352     1.0000 0.27490  0.72510  0.46500  Biso   1.000  C
  H259     1.0000 0.28860  0.71140  0.43970  Biso   1.000  H
  O80      1.0000 0.90287  0.09713  0.78946  Biso   1.000  O
  C353     1.0000 0.84393  0.15607  0.68373  Biso   1.000  C
  C354     1.0000 0.88351  0.11649  0.75487  Biso   1.000  C
  C355     1.0000 0.92171  0.07829  0.75003  Biso   1.000  C
  C356     1.0000 0.94157  0.05843  0.79833  Biso   1.000  C
  H260     1.0000 0.95527  0.04473  0.77303  Biso   1.000  H
  O81      1.0000 0.56953  0.43047  0.12280  Biso   1.000  O
  C357     1.0000 0.51060  0.48940  0.01707  Biso   1.000  C
  C358     1.0000 0.55018  0.44982  0.08821  Biso   1.000  C
  C359     1.0000 0.58837  0.41163  0.08337  Biso   1.000  C
  C360     1.0000 0.60823  0.39177  0.13167  Biso   1.000  C
  H261     1.0000 0.62193  0.37807  0.10637  Biso   1.000  H
  O82      1.0000 0.47240  0.23620  0.54387  Biso   1.000  O
  C361     1.0000 0.35453  0.17726  0.64960  Biso   1.000  C
  C362     1.0000 0.43369  0.21684  0.57846  Biso   1.000  C
  C363     1.0000 0.51008  0.25504  0.58330  Biso   1.000  C
  C364     1.0000 0.54980  0.27490  0.53500  Biso   1.000  C
  H262     1.0000 0.57720  0.28860  0.56030  Biso   1.000  H
  O83      1.0000 0.13907  0.56953  0.87720  Biso   1.000  O
  C365     1.0000 0.02120  0.51060  0.98293  Biso   1.000  C
  C366     1.0000 0.10036  0.55018  0.91179  Biso   1.000  C
  C367     1.0000 0.17675  0.58837  0.91663  Biso   1.000  C
  C368     1.0000 0.21647  0.60823  0.86833  Biso   1.000  C
  H263     1.0000 0.24387  0.62193  0.89363  Biso   1.000  H
  O84      1.0000 0.80573  0.90287  0.21054  Biso   1.000  O
  C369     1.0000 0.68786  0.84393  0.31627  Biso   1.000  C
  C370     1.0000 0.76702  0.88351  0.24513  Biso   1.000  C
  C371     1.0000 0.84341  0.92171  0.24997  Biso   1.000  C
  C372     1.0000 0.88313  0.94157  0.20167  Biso   1.000  C
  H264     1.0000 0.91053  0.95527  0.22697  Biso   1.000  H
  O85      1.0000 0.76380  0.52760  0.54387  Biso   1.000  O
  C373     1.0000 0.82274  0.64547  0.64960  Biso   1.000  C
  C374     1.0000 0.78316  0.56631  0.57846  Biso   1.000  C
  C375     1.0000 0.74496  0.48992  0.58330  Biso   1.000  C
  C376     1.0000 0.72510  0.45020  0.53500  Biso   1.000  C
  H265     1.0000 0.71140  0.42280  0.56030  Biso   1.000  H
  O86      1.0000 0.43047  0.86093  0.87720  Biso   1.000  O
  C377     1.0000 0.48940  0.97880  0.98293  Biso   1.000  C
  C378     1.0000 0.44982  0.89964  0.91179  Biso   1.000  C
  C379     1.0000 0.41163  0.82325  0.91663  Biso   1.000  C
  C380     1.0000 0.39177  0.78353  0.86833  Biso   1.000  C
  H266     1.0000 0.37807  0.75613  0.89363  Biso   1.000  H
  O87      1.0000 0.09713  0.19427  0.21054  Biso   1.000  O
  C381     1.0000 0.15607  0.31214  0.31627  Biso   1.000  C
  C382     1.0000 0.11649  0.23298  0.24513  Biso   1.000  C
  C383     1.0000 0.07829  0.15659  0.24997  Biso   1.000  C
  C384     1.0000 0.05843  0.11687  0.20167  Biso   1.000  C
  H267     1.0000 0.04473  0.08947  0.22697  Biso   1.000  H
  O88      1.0000 0.76380  0.23620  0.54387  Biso   1.000  O
  C385     1.0000 0.82274  0.17726  0.64960  Biso   1.000  C
  C386     1.0000 0.78316  0.21684  0.57846  Biso   1.000  C
  C387     1.0000 0.74496  0.25504  0.58330  Biso   1.000  C
  C388     1.0000 0.72510  0.27490  0.53500  Biso   1.000  C
  H268     1.0000 0.71140  0.28860  0.56030  Biso   1.000  H
  O89      1.0000 0.43047  0.56953  0.87720  Biso   1.000  O
  C389     1.0000 0.48940  0.51060  0.98293  Biso   1.000  C
  C390     1.0000 0.44982  0.55018  0.91179  Biso   1.000  C
  C391     1.0000 0.41163  0.58837  0.91663  Biso   1.000  C
  C392     1.0000 0.39177  0.60823  0.86833  Biso   1.000  C
  H269     1.0000 0.37807  0.62193  0.89363  Biso   1.000  H
  O90      1.0000 0.09713  0.90287  0.21054  Biso   1.000  O
  C393     1.0000 0.15607  0.84393  0.31627  Biso   1.000  C
  C394     1.0000 0.11649  0.88351  0.24513  Biso   1.000  C
  C395     1.0000 0.07829  0.92171  0.24997  Biso   1.000  C
  C396     1.0000 0.05843  0.94157  0.20167  Biso   1.000  C
  H270     1.0000 0.04473  0.95527  0.22697  Biso   1.000  H
