data_image0
_cell_length_a       35.1852
_cell_length_b       35.1852
_cell_length_c       21.6517
_cell_angle_alpha    90
_cell_angle_beta     90
_cell_angle_gamma    120

_symmetry_space_group_name_H-M    "P 1"
_symmetry_int_tables_number       1

loop_
  _symmetry_equiv_pos_as_xyz
  'x, y, z'

loop_
  _atom_site_label
  _atom_site_occupancy
  _atom_site_fract_x
  _atom_site_fract_y
  _atom_site_fract_z
  _atom_site_thermal_displace_type
  _atom_site_B_iso_or_equiv
  _atom_site_type_symbol
  O1       1.0000 0.36245  0.22038  0.09608  Biso   1.000  O
  O2       1.0000 0.38888  0.23375  0.19320  Biso   1.000  O
  C1       1.0000 0.38772  0.24486  0.13854  Biso   1.000  C
  C2       1.0000 0.41943  0.29156  0.12069  Biso   1.000  C
  C3       1.0000 0.44704  0.32143  0.16530  Biso   1.000  C
  H1       1.0000 0.44620  0.31220  0.20630  Biso   1.000  H
  C4       1.0000 0.47557  0.36455  0.14914  Biso   1.000  C
  H2       1.0000 0.49440  0.38420  0.17920  Biso   1.000  H
  C5       1.0000 0.47680  0.37925  0.08933  Biso   1.000  C
  C6       1.0000 0.44984  0.34894  0.04483  Biso   1.000  C
  H3       1.0000 0.45120  0.35790  0.00360  Biso   1.000  H
  C7       1.0000 0.42112  0.30582  0.06132  Biso   1.000  C
  H4       1.0000 0.40250  0.28600  0.03130  Biso   1.000  H
  C8       1.0000 0.50477  0.42611  0.07182  Biso   1.000  C
  C9       1.0000 0.48677  0.44581  0.03675  Biso   1.000  C
  H5       1.0000 0.45720  0.42890  0.02470  Biso   1.000  H
  H6       1.0000 0.61150  0.43400  0.06160  Biso   1.000  H
  H7       1.0000 0.62590  0.41910  0.16520  Biso   1.000  H
  O3       1.0000 0.02912  0.55371  0.42941  Biso   1.000  O
  O4       1.0000 0.05555  0.56708  0.52653  Biso   1.000  O
  C10      1.0000 0.05439  0.57819  0.47187  Biso   1.000  C
  C11      1.0000 0.08610  0.62489  0.45402  Biso   1.000  C
  C12      1.0000 0.11371  0.65476  0.49863  Biso   1.000  C
  H8       1.0000 0.11287  0.64553  0.53963  Biso   1.000  H
  C13      1.0000 0.14224  0.69788  0.48247  Biso   1.000  C
  H9       1.0000 0.16107  0.71753  0.51253  Biso   1.000  H
  C14      1.0000 0.14347  0.71258  0.42266  Biso   1.000  C
  C15      1.0000 0.11651  0.68227  0.37816  Biso   1.000  C
  H10      1.0000 0.11787  0.69123  0.33693  Biso   1.000  H
  C16      1.0000 0.08779  0.63915  0.39465  Biso   1.000  C
  H11      1.0000 0.06917  0.61933  0.36463  Biso   1.000  H
  C17      1.0000 0.17144  0.75944  0.40515  Biso   1.000  C
  C18      1.0000 0.15344  0.77914  0.37008  Biso   1.000  C
  H12      1.0000 0.12387  0.76223  0.35803  Biso   1.000  H
  H13      1.0000 0.27817  0.76733  0.39493  Biso   1.000  H
  H14      1.0000 0.29257  0.75243  0.49853  Biso   1.000  H
  O5       1.0000 0.69578  0.88705  0.76275  Biso   1.000  O
  O6       1.0000 0.72221  0.90042  0.85987  Biso   1.000  O
  C19      1.0000 0.72105  0.91153  0.80521  Biso   1.000  C
  C20      1.0000 0.75276  0.95823  0.78736  Biso   1.000  C
  C21      1.0000 0.78037  0.98810  0.83197  Biso   1.000  C
  H15      1.0000 0.77953  0.97887  0.87297  Biso   1.000  H
  C22      1.0000 0.80890  0.03122  0.81581  Biso   1.000  C
  H16      1.0000 0.82773  0.05087  0.84587  Biso   1.000  H
  C23      1.0000 0.81013  0.04592  0.75600  Biso   1.000  C
  C24      1.0000 0.78317  0.01561  0.71150  Biso   1.000  C
  H17      1.0000 0.78453  0.02457  0.67027  Biso   1.000  H
  C25      1.0000 0.75445  0.97249  0.72799  Biso   1.000  C
  H18      1.0000 0.73583  0.95267  0.69797  Biso   1.000  H
  C26      1.0000 0.83810  0.09278  0.73849  Biso   1.000  C
  C27      1.0000 0.82010  0.11248  0.70342  Biso   1.000  C
  H19      1.0000 0.79053  0.09557  0.69137  Biso   1.000  H
  H20      1.0000 0.94483  0.10067  0.72827  Biso   1.000  H
  H21      1.0000 0.95923  0.08577  0.83187  Biso   1.000  H
  O7       1.0000 0.77962  0.14207  0.09608  Biso   1.000  O
  O8       1.0000 0.76625  0.15513  0.19320  Biso   1.000  O
  C28      1.0000 0.75514  0.14286  0.13854  Biso   1.000  C
  C29      1.0000 0.70844  0.12787  0.12069  Biso   1.000  C
  C30      1.0000 0.67857  0.12561  0.16530  Biso   1.000  C
  H22      1.0000 0.68780  0.13400  0.20630  Biso   1.000  H
  C31      1.0000 0.63545  0.11102  0.14914  Biso   1.000  C
  H23      1.0000 0.61580  0.11020  0.17920  Biso   1.000  H
  C32      1.0000 0.62075  0.09755  0.08933  Biso   1.000  C
  C33      1.0000 0.65106  0.10090  0.04483  Biso   1.000  C
  H24      1.0000 0.64210  0.09330  0.00360  Biso   1.000  H
  C34      1.0000 0.69418  0.11530  0.06132  Biso   1.000  C
  H25      1.0000 0.71400  0.11650  0.03130  Biso   1.000  H
  C35      1.0000 0.57389  0.07866  0.07182  Biso   1.000  C
  C36      1.0000 0.55419  0.04096  0.03675  Biso   1.000  C
  H26      1.0000 0.57110  0.02830  0.02470  Biso   1.000  H
  H27      1.0000 0.56600  0.17750  0.06160  Biso   1.000  H
  H28      1.0000 0.58090  0.20680  0.16520  Biso   1.000  H
  O9       1.0000 0.44629  0.47540  0.42941  Biso   1.000  O
  O10      1.0000 0.43292  0.48846  0.52653  Biso   1.000  O
  C37      1.0000 0.42181  0.47619  0.47187  Biso   1.000  C
  C38      1.0000 0.37511  0.46120  0.45402  Biso   1.000  C
  C39      1.0000 0.34524  0.45894  0.49863  Biso   1.000  C
  H29      1.0000 0.35447  0.46733  0.53963  Biso   1.000  H
  C40      1.0000 0.30212  0.44435  0.48247  Biso   1.000  C
  H30      1.0000 0.28247  0.44353  0.51253  Biso   1.000  H
  C41      1.0000 0.28742  0.43088  0.42266  Biso   1.000  C
  C42      1.0000 0.31773  0.43423  0.37816  Biso   1.000  C
  H31      1.0000 0.30877  0.42663  0.33693  Biso   1.000  H
  C43      1.0000 0.36085  0.44863  0.39465  Biso   1.000  C
  H32      1.0000 0.38067  0.44983  0.36463  Biso   1.000  H
  C44      1.0000 0.24056  0.41199  0.40515  Biso   1.000  C
  C45      1.0000 0.22086  0.37429  0.37008  Biso   1.000  C
  H33      1.0000 0.23777  0.36163  0.35803  Biso   1.000  H
  H34      1.0000 0.23267  0.51083  0.39493  Biso   1.000  H
  H35      1.0000 0.24757  0.54013  0.49853  Biso   1.000  H
  O11      1.0000 0.11295  0.80874  0.76275  Biso   1.000  O
  O12      1.0000 0.09958  0.82180  0.85987  Biso   1.000  O
  C46      1.0000 0.08847  0.80953  0.80521  Biso   1.000  C
  C47      1.0000 0.04177  0.79454  0.78736  Biso   1.000  C
  C48      1.0000 0.01190  0.79228  0.83197  Biso   1.000  C
  H36      1.0000 0.02113  0.80067  0.87297  Biso   1.000  H
  C49      1.0000 0.96878  0.77769  0.81581  Biso   1.000  C
  H37      1.0000 0.94913  0.77687  0.84587  Biso   1.000  H
  C50      1.0000 0.95408  0.76422  0.75600  Biso   1.000  C
  C51      1.0000 0.98439  0.76757  0.71150  Biso   1.000  C
  H38      1.0000 0.97543  0.75997  0.67027  Biso   1.000  H
  C52      1.0000 0.02751  0.78197  0.72799  Biso   1.000  C
  H39      1.0000 0.04733  0.78317  0.69797  Biso   1.000  H
  C53      1.0000 0.90722  0.74533  0.73849  Biso   1.000  C
  C54      1.0000 0.88752  0.70763  0.70342  Biso   1.000  C
  H40      1.0000 0.90443  0.69497  0.69137  Biso   1.000  H
  H41      1.0000 0.89933  0.84417  0.72827  Biso   1.000  H
  H42      1.0000 0.91423  0.87347  0.83187  Biso   1.000  H
  O13      1.0000 0.85793  0.63755  0.09608  Biso   1.000  O
  O14      1.0000 0.84487  0.61112  0.19320  Biso   1.000  O
  C55      1.0000 0.85714  0.61228  0.13854  Biso   1.000  C
  C56      1.0000 0.87213  0.58057  0.12069  Biso   1.000  C
  C57      1.0000 0.87439  0.55296  0.16530  Biso   1.000  C
  H43      1.0000 0.86600  0.55380  0.20630  Biso   1.000  H
  C58      1.0000 0.88898  0.52443  0.14914  Biso   1.000  C
  H44      1.0000 0.88980  0.50560  0.17920  Biso   1.000  H
  C59      1.0000 0.90245  0.52320  0.08933  Biso   1.000  C
  C60      1.0000 0.89910  0.55016  0.04483  Biso   1.000  C
  H45      1.0000 0.90670  0.54880  0.00360  Biso   1.000  H
  C61      1.0000 0.88470  0.57888  0.06132  Biso   1.000  C
  H46      1.0000 0.88350  0.59750  0.03130  Biso   1.000  H
  C62      1.0000 0.92134  0.49523  0.07182  Biso   1.000  C
  C63      1.0000 0.95904  0.51323  0.03675  Biso   1.000  C
  H47      1.0000 0.97170  0.54280  0.02470  Biso   1.000  H
  H48      1.0000 0.82250  0.38850  0.06160  Biso   1.000  H
  H49      1.0000 0.79320  0.37410  0.16520  Biso   1.000  H
  O15      1.0000 0.52460  0.97088  0.42941  Biso   1.000  O
  O16      1.0000 0.51154  0.94445  0.52653  Biso   1.000  O
  C64      1.0000 0.52381  0.94561  0.47187  Biso   1.000  C
  C65      1.0000 0.53880  0.91390  0.45402  Biso   1.000  C
  C66      1.0000 0.54106  0.88629  0.49863  Biso   1.000  C
  H50      1.0000 0.53267  0.88713  0.53963  Biso   1.000  H
  C67      1.0000 0.55565  0.85776  0.48247  Biso   1.000  C
  H51      1.0000 0.55647  0.83893  0.51253  Biso   1.000  H
  C68      1.0000 0.56912  0.85653  0.42266  Biso   1.000  C
  C69      1.0000 0.56577  0.88349  0.37816  Biso   1.000  C
  H52      1.0000 0.57337  0.88213  0.33693  Biso   1.000  H
  C70      1.0000 0.55137  0.91221  0.39465  Biso   1.000  C
  H53      1.0000 0.55017  0.93083  0.36463  Biso   1.000  H
  C71      1.0000 0.58801  0.82856  0.40515  Biso   1.000  C
  C72      1.0000 0.62571  0.84656  0.37008  Biso   1.000  C
  H54      1.0000 0.63837  0.87613  0.35803  Biso   1.000  H
  H55      1.0000 0.48917  0.72183  0.39493  Biso   1.000  H
  H56      1.0000 0.45987  0.70743  0.49853  Biso   1.000  H
  O17      1.0000 0.19126  0.30422  0.76275  Biso   1.000  O
  O18      1.0000 0.17820  0.27779  0.85987  Biso   1.000  O
  C73      1.0000 0.19047  0.27895  0.80521  Biso   1.000  C
  C74      1.0000 0.20546  0.24724  0.78736  Biso   1.000  C
  C75      1.0000 0.20772  0.21963  0.83197  Biso   1.000  C
  H57      1.0000 0.19933  0.22047  0.87297  Biso   1.000  H
  C76      1.0000 0.22231  0.19110  0.81581  Biso   1.000  C
  H58      1.0000 0.22313  0.17227  0.84587  Biso   1.000  H
  C77      1.0000 0.23578  0.18987  0.75600  Biso   1.000  C
  C78      1.0000 0.23243  0.21683  0.71150  Biso   1.000  C
  H59      1.0000 0.24003  0.21547  0.67027  Biso   1.000  H
  C79      1.0000 0.21803  0.24555  0.72799  Biso   1.000  C
  H60      1.0000 0.21683  0.26417  0.69797  Biso   1.000  H
  C80      1.0000 0.25467  0.16190  0.73849  Biso   1.000  C
  C81      1.0000 0.29237  0.17990  0.70342  Biso   1.000  C
  H61      1.0000 0.30503  0.20947  0.69137  Biso   1.000  H
  H62      1.0000 0.15583  0.05517  0.72827  Biso   1.000  H
  H63      1.0000 0.12653  0.04077  0.83187  Biso   1.000  H
  O19      1.0000 0.22038  0.36245  0.90392  Biso   1.000  O
  O20      1.0000 0.23375  0.38888  0.80680  Biso   1.000  O
  C82      1.0000 0.24486  0.38772  0.86146  Biso   1.000  C
  C83      1.0000 0.29156  0.41943  0.87931  Biso   1.000  C
  C84      1.0000 0.32143  0.44704  0.83470  Biso   1.000  C
  H64      1.0000 0.31220  0.44620  0.79370  Biso   1.000  H
  C85      1.0000 0.36455  0.47557  0.85086  Biso   1.000  C
  H65      1.0000 0.38420  0.49440  0.82080  Biso   1.000  H
  C86      1.0000 0.37925  0.47680  0.91067  Biso   1.000  C
  C87      1.0000 0.34894  0.44984  0.95517  Biso   1.000  C
  H66      1.0000 0.35790  0.45120  0.99640  Biso   1.000  H
  C88      1.0000 0.30582  0.42112  0.93868  Biso   1.000  C
  H67      1.0000 0.28600  0.40250  0.96870  Biso   1.000  H
  C89      1.0000 0.42611  0.50477  0.92818  Biso   1.000  C
  C90      1.0000 0.44581  0.48677  0.96325  Biso   1.000  C
  H68      1.0000 0.42890  0.45720  0.97530  Biso   1.000  H
  H69      1.0000 0.43400  0.61150  0.93840  Biso   1.000  H
  H70      1.0000 0.41910  0.62590  0.83480  Biso   1.000  H
  O21      1.0000 0.88705  0.69578  0.23725  Biso   1.000  O
  O22      1.0000 0.90042  0.72221  0.14013  Biso   1.000  O
  C91      1.0000 0.91153  0.72105  0.19479  Biso   1.000  C
  C92      1.0000 0.95823  0.75276  0.21264  Biso   1.000  C
  C93      1.0000 0.98810  0.78037  0.16803  Biso   1.000  C
  H71      1.0000 0.97887  0.77953  0.12703  Biso   1.000  H
  C94      1.0000 0.03122  0.80890  0.18419  Biso   1.000  C
  H72      1.0000 0.05087  0.82773  0.15413  Biso   1.000  H
  C95      1.0000 0.04592  0.81013  0.24400  Biso   1.000  C
  C96      1.0000 0.01561  0.78317  0.28850  Biso   1.000  C
  H73      1.0000 0.02457  0.78453  0.32973  Biso   1.000  H
  C97      1.0000 0.97249  0.75445  0.27201  Biso   1.000  C
  H74      1.0000 0.95267  0.73583  0.30203  Biso   1.000  H
  C98      1.0000 0.09278  0.83810  0.26151  Biso   1.000  C
  C99      1.0000 0.11248  0.82010  0.29658  Biso   1.000  C
  H75      1.0000 0.09557  0.79053  0.30863  Biso   1.000  H
  H76      1.0000 0.10067  0.94483  0.27173  Biso   1.000  H
  H77      1.0000 0.08577  0.95923  0.16813  Biso   1.000  H
  O23      1.0000 0.55371  0.02912  0.57059  Biso   1.000  O
  O24      1.0000 0.56708  0.05555  0.47347  Biso   1.000  O
  C100     1.0000 0.57819  0.05439  0.52813  Biso   1.000  C
  C101     1.0000 0.62489  0.08610  0.54598  Biso   1.000  C
  C102     1.0000 0.65476  0.11371  0.50137  Biso   1.000  C
  H78      1.0000 0.64553  0.11287  0.46037  Biso   1.000  H
  C103     1.0000 0.69788  0.14224  0.51753  Biso   1.000  C
  H79      1.0000 0.71753  0.16107  0.48747  Biso   1.000  H
  C104     1.0000 0.71258  0.14347  0.57734  Biso   1.000  C
  C105     1.0000 0.68227  0.11651  0.62184  Biso   1.000  C
  H80      1.0000 0.69123  0.11787  0.66307  Biso   1.000  H
  C106     1.0000 0.63915  0.08779  0.60535  Biso   1.000  C
  H81      1.0000 0.61933  0.06917  0.63537  Biso   1.000  H
  C107     1.0000 0.75944  0.17144  0.59485  Biso   1.000  C
  C108     1.0000 0.77914  0.15344  0.62992  Biso   1.000  C
  H82      1.0000 0.76223  0.12387  0.64197  Biso   1.000  H
  H83      1.0000 0.76733  0.27817  0.60507  Biso   1.000  H
  H84      1.0000 0.75243  0.29257  0.50147  Biso   1.000  H
  O25      1.0000 0.14207  0.77962  0.90392  Biso   1.000  O
  O26      1.0000 0.15513  0.76625  0.80680  Biso   1.000  O
  C109     1.0000 0.14286  0.75514  0.86146  Biso   1.000  C
  C110     1.0000 0.12787  0.70844  0.87931  Biso   1.000  C
  C111     1.0000 0.12561  0.67857  0.83470  Biso   1.000  C
  H85      1.0000 0.13400  0.68780  0.79370  Biso   1.000  H
  C112     1.0000 0.11102  0.63545  0.85086  Biso   1.000  C
  H86      1.0000 0.11020  0.61580  0.82080  Biso   1.000  H
  C113     1.0000 0.09755  0.62075  0.91067  Biso   1.000  C
  C114     1.0000 0.10090  0.65106  0.95517  Biso   1.000  C
  H87      1.0000 0.09330  0.64210  0.99640  Biso   1.000  H
  C115     1.0000 0.11530  0.69418  0.93868  Biso   1.000  C
  H88      1.0000 0.11650  0.71400  0.96870  Biso   1.000  H
  C116     1.0000 0.07866  0.57389  0.92818  Biso   1.000  C
  C117     1.0000 0.04096  0.55419  0.96325  Biso   1.000  C
  H89      1.0000 0.02830  0.57110  0.97530  Biso   1.000  H
  H90      1.0000 0.17750  0.56600  0.93840  Biso   1.000  H
  H91      1.0000 0.20680  0.58090  0.83480  Biso   1.000  H
  O27      1.0000 0.80874  0.11295  0.23725  Biso   1.000  O
  O28      1.0000 0.82180  0.09958  0.14013  Biso   1.000  O
  C118     1.0000 0.80953  0.08847  0.19479  Biso   1.000  C
  C119     1.0000 0.79454  0.04177  0.21264  Biso   1.000  C
  C120     1.0000 0.79228  0.01190  0.16803  Biso   1.000  C
  H92      1.0000 0.80067  0.02113  0.12703  Biso   1.000  H
  C121     1.0000 0.77769  0.96878  0.18419  Biso   1.000  C
  H93      1.0000 0.77687  0.94913  0.15413  Biso   1.000  H
  C122     1.0000 0.76422  0.95408  0.24400  Biso   1.000  C
  C123     1.0000 0.76757  0.98439  0.28850  Biso   1.000  C
  H94      1.0000 0.75997  0.97543  0.32973  Biso   1.000  H
  C124     1.0000 0.78197  0.02751  0.27201  Biso   1.000  C
  H95      1.0000 0.78317  0.04733  0.30203  Biso   1.000  H
  C125     1.0000 0.74533  0.90722  0.26151  Biso   1.000  C
  C126     1.0000 0.70763  0.88752  0.29658  Biso   1.000  C
  H96      1.0000 0.69497  0.90443  0.30863  Biso   1.000  H
  H97      1.0000 0.84417  0.89933  0.27173  Biso   1.000  H
  H98      1.0000 0.87347  0.91423  0.16813  Biso   1.000  H
  O29      1.0000 0.47540  0.44629  0.57059  Biso   1.000  O
  O30      1.0000 0.48846  0.43292  0.47347  Biso   1.000  O
  C127     1.0000 0.47619  0.42181  0.52813  Biso   1.000  C
  C128     1.0000 0.46120  0.37511  0.54598  Biso   1.000  C
  C129     1.0000 0.45894  0.34524  0.50137  Biso   1.000  C
  H99      1.0000 0.46733  0.35447  0.46037  Biso   1.000  H
  C130     1.0000 0.44435  0.30212  0.51753  Biso   1.000  C
  H100     1.0000 0.44353  0.28247  0.48747  Biso   1.000  H
  C131     1.0000 0.43088  0.28742  0.57734  Biso   1.000  C
  C132     1.0000 0.43423  0.31773  0.62184  Biso   1.000  C
  H101     1.0000 0.42663  0.30877  0.66307  Biso   1.000  H
  C133     1.0000 0.44863  0.36085  0.60535  Biso   1.000  C
  H102     1.0000 0.44983  0.38067  0.63537  Biso   1.000  H
  C134     1.0000 0.41199  0.24056  0.59485  Biso   1.000  C
  C135     1.0000 0.37429  0.22086  0.62992  Biso   1.000  C
  H103     1.0000 0.36163  0.23777  0.64197  Biso   1.000  H
  H104     1.0000 0.51083  0.23267  0.60507  Biso   1.000  H
  H105     1.0000 0.54013  0.24757  0.50147  Biso   1.000  H
  O31      1.0000 0.63755  0.85793  0.90392  Biso   1.000  O
  O32      1.0000 0.61112  0.84487  0.80680  Biso   1.000  O
  C136     1.0000 0.61228  0.85714  0.86146  Biso   1.000  C
  C137     1.0000 0.58057  0.87213  0.87931  Biso   1.000  C
  C138     1.0000 0.55296  0.87439  0.83470  Biso   1.000  C
  H106     1.0000 0.55380  0.86600  0.79370  Biso   1.000  H
  C139     1.0000 0.52443  0.88898  0.85086  Biso   1.000  C
  H107     1.0000 0.50560  0.88980  0.82080  Biso   1.000  H
  C140     1.0000 0.52320  0.90245  0.91067  Biso   1.000  C
  C141     1.0000 0.55016  0.89910  0.95517  Biso   1.000  C
  H108     1.0000 0.54880  0.90670  0.99640  Biso   1.000  H
  C142     1.0000 0.57888  0.88470  0.93868  Biso   1.000  C
  H109     1.0000 0.59750  0.88350  0.96870  Biso   1.000  H
  C143     1.0000 0.49523  0.92134  0.92818  Biso   1.000  C
  C144     1.0000 0.51323  0.95904  0.96325  Biso   1.000  C
  H110     1.0000 0.54280  0.97170  0.97530  Biso   1.000  H
  H111     1.0000 0.38850  0.82250  0.93840  Biso   1.000  H
  H112     1.0000 0.37410  0.79320  0.83480  Biso   1.000  H
  O33      1.0000 0.30422  0.19126  0.23725  Biso   1.000  O
  O34      1.0000 0.27779  0.17820  0.14013  Biso   1.000  O
  C145     1.0000 0.27895  0.19047  0.19479  Biso   1.000  C
  C146     1.0000 0.24724  0.20546  0.21264  Biso   1.000  C
  C147     1.0000 0.21963  0.20772  0.16803  Biso   1.000  C
  H113     1.0000 0.22047  0.19933  0.12703  Biso   1.000  H
  C148     1.0000 0.19110  0.22231  0.18419  Biso   1.000  C
  H114     1.0000 0.17227  0.22313  0.15413  Biso   1.000  H
  C149     1.0000 0.18987  0.23578  0.24400  Biso   1.000  C
  C150     1.0000 0.21683  0.23243  0.28850  Biso   1.000  C
  H115     1.0000 0.21547  0.24003  0.32973  Biso   1.000  H
  C151     1.0000 0.24555  0.21803  0.27201  Biso   1.000  C
  H116     1.0000 0.26417  0.21683  0.30203  Biso   1.000  H
  C152     1.0000 0.16190  0.25467  0.26151  Biso   1.000  C
  C153     1.0000 0.17990  0.29237  0.29658  Biso   1.000  C
  H117     1.0000 0.20947  0.30503  0.30863  Biso   1.000  H
  H118     1.0000 0.05517  0.15583  0.27173  Biso   1.000  H
  H119     1.0000 0.04077  0.12653  0.16813  Biso   1.000  H
  O35      1.0000 0.97088  0.52460  0.57059  Biso   1.000  O
  O36      1.0000 0.94445  0.51154  0.47347  Biso   1.000  O
  C154     1.0000 0.94561  0.52381  0.52813  Biso   1.000  C
  C155     1.0000 0.91390  0.53880  0.54598  Biso   1.000  C
  C156     1.0000 0.88629  0.54106  0.50137  Biso   1.000  C
  H120     1.0000 0.88713  0.53267  0.46037  Biso   1.000  H
  C157     1.0000 0.85776  0.55565  0.51753  Biso   1.000  C
  H121     1.0000 0.83893  0.55647  0.48747  Biso   1.000  H
  C158     1.0000 0.85653  0.56912  0.57734  Biso   1.000  C
  C159     1.0000 0.88349  0.56577  0.62184  Biso   1.000  C
  H122     1.0000 0.88213  0.57337  0.66307  Biso   1.000  H
  C160     1.0000 0.91221  0.55137  0.60535  Biso   1.000  C
  H123     1.0000 0.93083  0.55017  0.63537  Biso   1.000  H
  C161     1.0000 0.82856  0.58801  0.59485  Biso   1.000  C
  C162     1.0000 0.84656  0.62571  0.62992  Biso   1.000  C
  H124     1.0000 0.87613  0.63837  0.64197  Biso   1.000  H
  H125     1.0000 0.72183  0.48917  0.60507  Biso   1.000  H
  H126     1.0000 0.70743  0.45987  0.50147  Biso   1.000  H
  O37      1.0000 0.63755  0.77962  0.90392  Biso   1.000  O
  O38      1.0000 0.61112  0.76625  0.80680  Biso   1.000  O
  C163     1.0000 0.61228  0.75514  0.86146  Biso   1.000  C
  C164     1.0000 0.58057  0.70844  0.87931  Biso   1.000  C
  C165     1.0000 0.55296  0.67857  0.83470  Biso   1.000  C
  H127     1.0000 0.55380  0.68780  0.79370  Biso   1.000  H
  C166     1.0000 0.52443  0.63545  0.85086  Biso   1.000  C
  H128     1.0000 0.50560  0.61580  0.82080  Biso   1.000  H
  C167     1.0000 0.52320  0.62075  0.91067  Biso   1.000  C
  C168     1.0000 0.55016  0.65106  0.95517  Biso   1.000  C
  H129     1.0000 0.54880  0.64210  0.99640  Biso   1.000  H
  C169     1.0000 0.57888  0.69418  0.93868  Biso   1.000  C
  H130     1.0000 0.59750  0.71400  0.96870  Biso   1.000  H
  C170     1.0000 0.49523  0.57389  0.92818  Biso   1.000  C
  C171     1.0000 0.51323  0.55419  0.96325  Biso   1.000  C
  H131     1.0000 0.54280  0.57110  0.97530  Biso   1.000  H
  H132     1.0000 0.38850  0.56600  0.93840  Biso   1.000  H
  H133     1.0000 0.37410  0.58090  0.83480  Biso   1.000  H
  O39      1.0000 0.30422  0.11295  0.23725  Biso   1.000  O
  O40      1.0000 0.27779  0.09958  0.14013  Biso   1.000  O
  C172     1.0000 0.27895  0.08847  0.19479  Biso   1.000  C
  C173     1.0000 0.24724  0.04177  0.21264  Biso   1.000  C
  C174     1.0000 0.21963  0.01190  0.16803  Biso   1.000  C
  H134     1.0000 0.22047  0.02113  0.12703  Biso   1.000  H
  C175     1.0000 0.19110  0.96878  0.18419  Biso   1.000  C
  H135     1.0000 0.17227  0.94913  0.15413  Biso   1.000  H
  C176     1.0000 0.18987  0.95408  0.24400  Biso   1.000  C
  C177     1.0000 0.21683  0.98439  0.28850  Biso   1.000  C
  H136     1.0000 0.21547  0.97543  0.32973  Biso   1.000  H
  C178     1.0000 0.24555  0.02751  0.27201  Biso   1.000  C
  H137     1.0000 0.26417  0.04733  0.30203  Biso   1.000  H
  C179     1.0000 0.16190  0.90722  0.26151  Biso   1.000  C
  C180     1.0000 0.17990  0.88752  0.29658  Biso   1.000  C
  H138     1.0000 0.20947  0.90443  0.30863  Biso   1.000  H
  H139     1.0000 0.05517  0.89933  0.27173  Biso   1.000  H
  H140     1.0000 0.04077  0.91423  0.16813  Biso   1.000  H
  O41      1.0000 0.97088  0.44629  0.57059  Biso   1.000  O
  O42      1.0000 0.94445  0.43292  0.47347  Biso   1.000  O
  C181     1.0000 0.94561  0.42181  0.52813  Biso   1.000  C
  C182     1.0000 0.91390  0.37511  0.54598  Biso   1.000  C
  C183     1.0000 0.88629  0.34524  0.50137  Biso   1.000  C
  H141     1.0000 0.88713  0.35447  0.46037  Biso   1.000  H
  C184     1.0000 0.85776  0.30212  0.51753  Biso   1.000  C
  H142     1.0000 0.83893  0.28247  0.48747  Biso   1.000  H
  C185     1.0000 0.85653  0.28742  0.57734  Biso   1.000  C
  C186     1.0000 0.88349  0.31773  0.62184  Biso   1.000  C
  H143     1.0000 0.88213  0.30877  0.66307  Biso   1.000  H
  C187     1.0000 0.91221  0.36085  0.60535  Biso   1.000  C
  H144     1.0000 0.93083  0.38067  0.63537  Biso   1.000  H
  C188     1.0000 0.82856  0.24056  0.59485  Biso   1.000  C
  C189     1.0000 0.84656  0.22086  0.62992  Biso   1.000  C
  H145     1.0000 0.87613  0.23777  0.64197  Biso   1.000  H
  H146     1.0000 0.72183  0.23267  0.60507  Biso   1.000  H
  H147     1.0000 0.70743  0.24757  0.50147  Biso   1.000  H
  O43      1.0000 0.22038  0.85793  0.90392  Biso   1.000  O
  O44      1.0000 0.23375  0.84487  0.80680  Biso   1.000  O
  C190     1.0000 0.24486  0.85714  0.86146  Biso   1.000  C
  C191     1.0000 0.29156  0.87213  0.87931  Biso   1.000  C
  C192     1.0000 0.32143  0.87439  0.83470  Biso   1.000  C
  H148     1.0000 0.31220  0.86600  0.79370  Biso   1.000  H
  C193     1.0000 0.36455  0.88898  0.85086  Biso   1.000  C
  H149     1.0000 0.38420  0.88980  0.82080  Biso   1.000  H
  C194     1.0000 0.37925  0.90245  0.91067  Biso   1.000  C
  C195     1.0000 0.34894  0.89910  0.95517  Biso   1.000  C
  H150     1.0000 0.35790  0.90670  0.99640  Biso   1.000  H
  C196     1.0000 0.30582  0.88470  0.93868  Biso   1.000  C
  H151     1.0000 0.28600  0.88350  0.96870  Biso   1.000  H
  C197     1.0000 0.42611  0.92134  0.92818  Biso   1.000  C
  C198     1.0000 0.44581  0.95904  0.96325  Biso   1.000  C
  H152     1.0000 0.42890  0.97170  0.97530  Biso   1.000  H
  H153     1.0000 0.43400  0.82250  0.93840  Biso   1.000  H
  H154     1.0000 0.41910  0.79320  0.83480  Biso   1.000  H
  O45      1.0000 0.88705  0.19126  0.23725  Biso   1.000  O
  O46      1.0000 0.90042  0.17820  0.14013  Biso   1.000  O
  C199     1.0000 0.91153  0.19047  0.19479  Biso   1.000  C
  C200     1.0000 0.95823  0.20546  0.21264  Biso   1.000  C
  C201     1.0000 0.98810  0.20772  0.16803  Biso   1.000  C
  H155     1.0000 0.97887  0.19933  0.12703  Biso   1.000  H
  C202     1.0000 0.03122  0.22231  0.18419  Biso   1.000  C
  H156     1.0000 0.05087  0.22313  0.15413  Biso   1.000  H
  C203     1.0000 0.04592  0.23578  0.24400  Biso   1.000  C
  C204     1.0000 0.01561  0.23243  0.28850  Biso   1.000  C
  H157     1.0000 0.02457  0.24003  0.32973  Biso   1.000  H
  C205     1.0000 0.97249  0.21803  0.27201  Biso   1.000  C
  H158     1.0000 0.95267  0.21683  0.30203  Biso   1.000  H
  C206     1.0000 0.09278  0.25467  0.26151  Biso   1.000  C
  C207     1.0000 0.11248  0.29237  0.29658  Biso   1.000  C
  H159     1.0000 0.09557  0.30503  0.30863  Biso   1.000  H
  H160     1.0000 0.10067  0.15583  0.27173  Biso   1.000  H
  H161     1.0000 0.08577  0.12653  0.16813  Biso   1.000  H
  O47      1.0000 0.55371  0.52460  0.57059  Biso   1.000  O
  O48      1.0000 0.56708  0.51154  0.47347  Biso   1.000  O
  C208     1.0000 0.57819  0.52381  0.52813  Biso   1.000  C
  C209     1.0000 0.62489  0.53880  0.54598  Biso   1.000  C
  C210     1.0000 0.65476  0.54106  0.50137  Biso   1.000  C
  H162     1.0000 0.64553  0.53267  0.46037  Biso   1.000  H
  C211     1.0000 0.69788  0.55565  0.51753  Biso   1.000  C
  H163     1.0000 0.71753  0.55647  0.48747  Biso   1.000  H
  C212     1.0000 0.71258  0.56912  0.57734  Biso   1.000  C
  C213     1.0000 0.68227  0.56577  0.62184  Biso   1.000  C
  H164     1.0000 0.69123  0.57337  0.66307  Biso   1.000  H
  C214     1.0000 0.63915  0.55137  0.60535  Biso   1.000  C
  H165     1.0000 0.61933  0.55017  0.63537  Biso   1.000  H
  C215     1.0000 0.75944  0.58801  0.59485  Biso   1.000  C
  C216     1.0000 0.77914  0.62571  0.62992  Biso   1.000  C
  H166     1.0000 0.76223  0.63837  0.64197  Biso   1.000  H
  H167     1.0000 0.76733  0.48917  0.60507  Biso   1.000  H
  H168     1.0000 0.75243  0.45987  0.50147  Biso   1.000  H
  O49      1.0000 0.14207  0.36245  0.90392  Biso   1.000  O
  O50      1.0000 0.15513  0.38888  0.80680  Biso   1.000  O
  C217     1.0000 0.14286  0.38772  0.86146  Biso   1.000  C
  C218     1.0000 0.12787  0.41943  0.87931  Biso   1.000  C
  C219     1.0000 0.12561  0.44704  0.83470  Biso   1.000  C
  H169     1.0000 0.13400  0.44620  0.79370  Biso   1.000  H
  C220     1.0000 0.11102  0.47557  0.85086  Biso   1.000  C
  H170     1.0000 0.11020  0.49440  0.82080  Biso   1.000  H
  C221     1.0000 0.09755  0.47680  0.91067  Biso   1.000  C
  C222     1.0000 0.10090  0.44984  0.95517  Biso   1.000  C
  H171     1.0000 0.09330  0.45120  0.99640  Biso   1.000  H
  C223     1.0000 0.11530  0.42112  0.93868  Biso   1.000  C
  H172     1.0000 0.11650  0.40250  0.96870  Biso   1.000  H
  C224     1.0000 0.07866  0.50477  0.92818  Biso   1.000  C
  C225     1.0000 0.04096  0.48677  0.96325  Biso   1.000  C
  H173     1.0000 0.02830  0.45720  0.97530  Biso   1.000  H
  H174     1.0000 0.17750  0.61150  0.93840  Biso   1.000  H
  H175     1.0000 0.20680  0.62590  0.83480  Biso   1.000  H
  O51      1.0000 0.80874  0.69578  0.23725  Biso   1.000  O
  O52      1.0000 0.82180  0.72221  0.14013  Biso   1.000  O
  C226     1.0000 0.80953  0.72105  0.19479  Biso   1.000  C
  C227     1.0000 0.79454  0.75276  0.21264  Biso   1.000  C
  C228     1.0000 0.79228  0.78037  0.16803  Biso   1.000  C
  H176     1.0000 0.80067  0.77953  0.12703  Biso   1.000  H
  C229     1.0000 0.77769  0.80890  0.18419  Biso   1.000  C
  H177     1.0000 0.77687  0.82773  0.15413  Biso   1.000  H
  C230     1.0000 0.76422  0.81013  0.24400  Biso   1.000  C
  C231     1.0000 0.76757  0.78317  0.28850  Biso   1.000  C
  H178     1.0000 0.75997  0.78453  0.32973  Biso   1.000  H
  C232     1.0000 0.78197  0.75445  0.27201  Biso   1.000  C
  H179     1.0000 0.78317  0.73583  0.30203  Biso   1.000  H
  C233     1.0000 0.74533  0.83810  0.26151  Biso   1.000  C
  C234     1.0000 0.70763  0.82010  0.29658  Biso   1.000  C
  H180     1.0000 0.69497  0.79053  0.30863  Biso   1.000  H
  H181     1.0000 0.84417  0.94483  0.27173  Biso   1.000  H
  H182     1.0000 0.87347  0.95923  0.16813  Biso   1.000  H
  O53      1.0000 0.47540  0.02912  0.57059  Biso   1.000  O
  O54      1.0000 0.48846  0.05555  0.47347  Biso   1.000  O
  C235     1.0000 0.47619  0.05439  0.52813  Biso   1.000  C
  C236     1.0000 0.46120  0.08610  0.54598  Biso   1.000  C
  C237     1.0000 0.45894  0.11371  0.50137  Biso   1.000  C
  H183     1.0000 0.46733  0.11287  0.46037  Biso   1.000  H
  C238     1.0000 0.44435  0.14224  0.51753  Biso   1.000  C
  H184     1.0000 0.44353  0.16107  0.48747  Biso   1.000  H
  C239     1.0000 0.43088  0.14347  0.57734  Biso   1.000  C
  C240     1.0000 0.43423  0.11651  0.62184  Biso   1.000  C
  H185     1.0000 0.42663  0.11787  0.66307  Biso   1.000  H
  C241     1.0000 0.44863  0.08779  0.60535  Biso   1.000  C
  H186     1.0000 0.44983  0.06917  0.63537  Biso   1.000  H
  C242     1.0000 0.41199  0.17144  0.59485  Biso   1.000  C
  C243     1.0000 0.37429  0.15344  0.62992  Biso   1.000  C
  H187     1.0000 0.36163  0.12387  0.64197  Biso   1.000  H
  H188     1.0000 0.51083  0.27817  0.60507  Biso   1.000  H
  H189     1.0000 0.54013  0.29257  0.50147  Biso   1.000  H
  O55      1.0000 0.77962  0.63755  0.09608  Biso   1.000  O
  O56      1.0000 0.76625  0.61112  0.19320  Biso   1.000  O
  C244     1.0000 0.75514  0.61228  0.13854  Biso   1.000  C
  C245     1.0000 0.70844  0.58057  0.12069  Biso   1.000  C
  C246     1.0000 0.67857  0.55296  0.16530  Biso   1.000  C
  H190     1.0000 0.68780  0.55380  0.20630  Biso   1.000  H
  C247     1.0000 0.63545  0.52443  0.14914  Biso   1.000  C
  H191     1.0000 0.61580  0.50560  0.17920  Biso   1.000  H
  C248     1.0000 0.62075  0.52320  0.08933  Biso   1.000  C
  C249     1.0000 0.65106  0.55016  0.04483  Biso   1.000  C
  H192     1.0000 0.64210  0.54880  0.00360  Biso   1.000  H
  C250     1.0000 0.69418  0.57888  0.06132  Biso   1.000  C
  H193     1.0000 0.71400  0.59750  0.03130  Biso   1.000  H
  C251     1.0000 0.57389  0.49523  0.07182  Biso   1.000  C
  C252     1.0000 0.55419  0.51323  0.03675  Biso   1.000  C
  H194     1.0000 0.57110  0.54280  0.02470  Biso   1.000  H
  H195     1.0000 0.56600  0.38850  0.06160  Biso   1.000  H
  H196     1.0000 0.58090  0.37410  0.16520  Biso   1.000  H
  O57      1.0000 0.44629  0.97088  0.42941  Biso   1.000  O
  O58      1.0000 0.43292  0.94445  0.52653  Biso   1.000  O
  C253     1.0000 0.42181  0.94561  0.47187  Biso   1.000  C
  C254     1.0000 0.37511  0.91390  0.45402  Biso   1.000  C
  C255     1.0000 0.34524  0.88629  0.49863  Biso   1.000  C
  H197     1.0000 0.35447  0.88713  0.53963  Biso   1.000  H
  C256     1.0000 0.30212  0.85776  0.48247  Biso   1.000  C
  H198     1.0000 0.28247  0.83893  0.51253  Biso   1.000  H
  C257     1.0000 0.28742  0.85653  0.42266  Biso   1.000  C
  C258     1.0000 0.31773  0.88349  0.37816  Biso   1.000  C
  H199     1.0000 0.30877  0.88213  0.33693  Biso   1.000  H
  C259     1.0000 0.36085  0.91221  0.39465  Biso   1.000  C
  H200     1.0000 0.38067  0.93083  0.36463  Biso   1.000  H
  C260     1.0000 0.24056  0.82856  0.40515  Biso   1.000  C
  C261     1.0000 0.22086  0.84656  0.37008  Biso   1.000  C
  H201     1.0000 0.23777  0.87613  0.35803  Biso   1.000  H
  H202     1.0000 0.23267  0.72183  0.39493  Biso   1.000  H
  H203     1.0000 0.24757  0.70743  0.49853  Biso   1.000  H
  O59      1.0000 0.11295  0.30422  0.76275  Biso   1.000  O
  O60      1.0000 0.09958  0.27779  0.85987  Biso   1.000  O
  C262     1.0000 0.08847  0.27895  0.80521  Biso   1.000  C
  C263     1.0000 0.04177  0.24724  0.78736  Biso   1.000  C
  C264     1.0000 0.01190  0.21963  0.83197  Biso   1.000  C
  H204     1.0000 0.02113  0.22047  0.87297  Biso   1.000  H
  C265     1.0000 0.96878  0.19110  0.81581  Biso   1.000  C
  H205     1.0000 0.94913  0.17227  0.84587  Biso   1.000  H
  C266     1.0000 0.95408  0.18987  0.75600  Biso   1.000  C
  C267     1.0000 0.98439  0.21683  0.71150  Biso   1.000  C
  H206     1.0000 0.97543  0.21547  0.67027  Biso   1.000  H
  C268     1.0000 0.02751  0.24555  0.72799  Biso   1.000  C
  H207     1.0000 0.04733  0.26417  0.69797  Biso   1.000  H
  C269     1.0000 0.90722  0.16190  0.73849  Biso   1.000  C
  C270     1.0000 0.88752  0.17990  0.70342  Biso   1.000  C
  H208     1.0000 0.90443  0.20947  0.69137  Biso   1.000  H
  H209     1.0000 0.89933  0.05517  0.72827  Biso   1.000  H
  H210     1.0000 0.91423  0.04077  0.83187  Biso   1.000  H
  O61      1.0000 0.85793  0.22038  0.09608  Biso   1.000  O
  O62      1.0000 0.84487  0.23375  0.19320  Biso   1.000  O
  C271     1.0000 0.85714  0.24486  0.13854  Biso   1.000  C
  C272     1.0000 0.87213  0.29156  0.12069  Biso   1.000  C
  C273     1.0000 0.87439  0.32143  0.16530  Biso   1.000  C
  H211     1.0000 0.86600  0.31220  0.20630  Biso   1.000  H
  C274     1.0000 0.88898  0.36455  0.14914  Biso   1.000  C
  H212     1.0000 0.88980  0.38420  0.17920  Biso   1.000  H
  C275     1.0000 0.90245  0.37925  0.08933  Biso   1.000  C
  C276     1.0000 0.89910  0.34894  0.04483  Biso   1.000  C
  H213     1.0000 0.90670  0.35790  0.00360  Biso   1.000  H
  C277     1.0000 0.88470  0.30582  0.06132  Biso   1.000  C
  H214     1.0000 0.88350  0.28600  0.03130  Biso   1.000  H
  C278     1.0000 0.92134  0.42611  0.07182  Biso   1.000  C
  C279     1.0000 0.95904  0.44581  0.03675  Biso   1.000  C
  H215     1.0000 0.97170  0.42890  0.02470  Biso   1.000  H
  H216     1.0000 0.82250  0.43400  0.06160  Biso   1.000  H
  H217     1.0000 0.79320  0.41910  0.16520  Biso   1.000  H
  O63      1.0000 0.52460  0.55371  0.42941  Biso   1.000  O
  O64      1.0000 0.51154  0.56708  0.52653  Biso   1.000  O
  C280     1.0000 0.52381  0.57819  0.47187  Biso   1.000  C
  C281     1.0000 0.53880  0.62489  0.45402  Biso   1.000  C
  C282     1.0000 0.54106  0.65476  0.49863  Biso   1.000  C
  H218     1.0000 0.53267  0.64553  0.53963  Biso   1.000  H
  C283     1.0000 0.55565  0.69788  0.48247  Biso   1.000  C
  H219     1.0000 0.55647  0.71753  0.51253  Biso   1.000  H
  C284     1.0000 0.56912  0.71258  0.42266  Biso   1.000  C
  C285     1.0000 0.56577  0.68227  0.37816  Biso   1.000  C
  H220     1.0000 0.57337  0.69123  0.33693  Biso   1.000  H
  C286     1.0000 0.55137  0.63915  0.39465  Biso   1.000  C
  H221     1.0000 0.55017  0.61933  0.36463  Biso   1.000  H
  C287     1.0000 0.58801  0.75944  0.40515  Biso   1.000  C
  C288     1.0000 0.62571  0.77914  0.37008  Biso   1.000  C
  H222     1.0000 0.63837  0.76223  0.35803  Biso   1.000  H
  H223     1.0000 0.48917  0.76733  0.39493  Biso   1.000  H
  H224     1.0000 0.45987  0.75243  0.49853  Biso   1.000  H
  O65      1.0000 0.19126  0.88705  0.76275  Biso   1.000  O
  O66      1.0000 0.17820  0.90042  0.85987  Biso   1.000  O
  C289     1.0000 0.19047  0.91153  0.80521  Biso   1.000  C
  C290     1.0000 0.20546  0.95823  0.78736  Biso   1.000  C
  C291     1.0000 0.20772  0.98810  0.83197  Biso   1.000  C
  H225     1.0000 0.19933  0.97887  0.87297  Biso   1.000  H
  C292     1.0000 0.22231  0.03122  0.81581  Biso   1.000  C
  H226     1.0000 0.22313  0.05087  0.84587  Biso   1.000  H
  C293     1.0000 0.23578  0.04592  0.75600  Biso   1.000  C
  C294     1.0000 0.23243  0.01561  0.71150  Biso   1.000  C
  H227     1.0000 0.24003  0.02457  0.67027  Biso   1.000  H
  C295     1.0000 0.21803  0.97249  0.72799  Biso   1.000  C
  H228     1.0000 0.21683  0.95267  0.69797  Biso   1.000  H
  C296     1.0000 0.25467  0.09278  0.73849  Biso   1.000  C
  C297     1.0000 0.29237  0.11248  0.70342  Biso   1.000  C
  H229     1.0000 0.30503  0.09557  0.69137  Biso   1.000  H
  H230     1.0000 0.15583  0.10067  0.72827  Biso   1.000  H
  H231     1.0000 0.12653  0.08577  0.83187  Biso   1.000  H
  O67      1.0000 0.36245  0.14207  0.09608  Biso   1.000  O
  O68      1.0000 0.38888  0.15513  0.19320  Biso   1.000  O
  C298     1.0000 0.38772  0.14286  0.13854  Biso   1.000  C
  C299     1.0000 0.41943  0.12787  0.12069  Biso   1.000  C
  C300     1.0000 0.44704  0.12561  0.16530  Biso   1.000  C
  H232     1.0000 0.44620  0.13400  0.20630  Biso   1.000  H
  C301     1.0000 0.47557  0.11102  0.14914  Biso   1.000  C
  H233     1.0000 0.49440  0.11020  0.17920  Biso   1.000  H
  C302     1.0000 0.47680  0.09755  0.08933  Biso   1.000  C
  C303     1.0000 0.44984  0.10090  0.04483  Biso   1.000  C
  H234     1.0000 0.45120  0.09330  0.00360  Biso   1.000  H
  C304     1.0000 0.42112  0.11530  0.06132  Biso   1.000  C
  H235     1.0000 0.40250  0.11650  0.03130  Biso   1.000  H
  C305     1.0000 0.50477  0.07866  0.07182  Biso   1.000  C
  C306     1.0000 0.48677  0.04096  0.03675  Biso   1.000  C
  H236     1.0000 0.45720  0.02830  0.02470  Biso   1.000  H
  H237     1.0000 0.61150  0.17750  0.06160  Biso   1.000  H
  H238     1.0000 0.62590  0.20680  0.16520  Biso   1.000  H
  O69      1.0000 0.02912  0.47540  0.42941  Biso   1.000  O
  O70      1.0000 0.05555  0.48846  0.52653  Biso   1.000  O
  C307     1.0000 0.05439  0.47619  0.47187  Biso   1.000  C
  C308     1.0000 0.08610  0.46120  0.45402  Biso   1.000  C
  C309     1.0000 0.11371  0.45894  0.49863  Biso   1.000  C
  H239     1.0000 0.11287  0.46733  0.53963  Biso   1.000  H
  C310     1.0000 0.14224  0.44435  0.48247  Biso   1.000  C
  H240     1.0000 0.16107  0.44353  0.51253  Biso   1.000  H
  C311     1.0000 0.14347  0.43088  0.42266  Biso   1.000  C
  C312     1.0000 0.11651  0.43423  0.37816  Biso   1.000  C
  H241     1.0000 0.11787  0.42663  0.33693  Biso   1.000  H
  C313     1.0000 0.08779  0.44863  0.39465  Biso   1.000  C
  H242     1.0000 0.06917  0.44983  0.36463  Biso   1.000  H
  C314     1.0000 0.17144  0.41199  0.40515  Biso   1.000  C
  C315     1.0000 0.15344  0.37429  0.37008  Biso   1.000  C
  H243     1.0000 0.12387  0.36163  0.35803  Biso   1.000  H
  H244     1.0000 0.27817  0.51083  0.39493  Biso   1.000  H
  H245     1.0000 0.29257  0.54013  0.49853  Biso   1.000  H
  O71      1.0000 0.69578  0.80874  0.76275  Biso   1.000  O
  O72      1.0000 0.72221  0.82180  0.85987  Biso   1.000  O
  C316     1.0000 0.72105  0.80953  0.80521  Biso   1.000  C
  C317     1.0000 0.75276  0.79454  0.78736  Biso   1.000  C
  C318     1.0000 0.78037  0.79228  0.83197  Biso   1.000  C
  H246     1.0000 0.77953  0.80067  0.87297  Biso   1.000  H
  C319     1.0000 0.80890  0.77769  0.81581  Biso   1.000  C
  H247     1.0000 0.82773  0.77687  0.84587  Biso   1.000  H
  C320     1.0000 0.81013  0.76422  0.75600  Biso   1.000  C
  C321     1.0000 0.78317  0.76757  0.71150  Biso   1.000  C
  H248     1.0000 0.78453  0.75997  0.67027  Biso   1.000  H
  C322     1.0000 0.75445  0.78197  0.72799  Biso   1.000  C
  H249     1.0000 0.73583  0.78317  0.69797  Biso   1.000  H
  C323     1.0000 0.83810  0.74533  0.73849  Biso   1.000  C
  C324     1.0000 0.82010  0.70763  0.70342  Biso   1.000  C
  H250     1.0000 0.79053  0.69497  0.69137  Biso   1.000  H
  H251     1.0000 0.94483  0.84417  0.72827  Biso   1.000  H
  H252     1.0000 0.95923  0.87347  0.83187  Biso   1.000  H
  Cu1      1.0000 0.31794  0.15897  0.10958  Biso   1.000  Cu
  Cu2      1.0000 0.98461  0.49230  0.44291  Biso   1.000  Cu
  Cu3      1.0000 0.65127  0.82564  0.77625  Biso   1.000  Cu
  Cu4      1.0000 0.84103  0.15897  0.10958  Biso   1.000  Cu
  Cu5      1.0000 0.50770  0.49230  0.44291  Biso   1.000  Cu
  Cu6      1.0000 0.17436  0.82564  0.77625  Biso   1.000  Cu
  Cu7      1.0000 0.84103  0.68206  0.10958  Biso   1.000  Cu
  Cu8      1.0000 0.50770  0.01539  0.44291  Biso   1.000  Cu
  Cu9      1.0000 0.17436  0.34873  0.77625  Biso   1.000  Cu
  Cu10     1.0000 0.15897  0.31794  0.89042  Biso   1.000  Cu
  Cu11     1.0000 0.82564  0.65127  0.22375  Biso   1.000  Cu
  Cu12     1.0000 0.49230  0.98461  0.55709  Biso   1.000  Cu
  Cu13     1.0000 0.15897  0.84103  0.89042  Biso   1.000  Cu
  Cu14     1.0000 0.82564  0.17436  0.22375  Biso   1.000  Cu
  Cu15     1.0000 0.49230  0.50770  0.55709  Biso   1.000  Cu
  Cu16     1.0000 0.68206  0.84103  0.89042  Biso   1.000  Cu
  Cu17     1.0000 0.34873  0.17436  0.22375  Biso   1.000  Cu
  Cu18     1.0000 0.01539  0.50770  0.55709  Biso   1.000  Cu
  O73      1.0000 0.56771  0.43229  0.12526  Biso   1.000  O
  C325     1.0000 0.51022  0.48978  0.01824  Biso   1.000  C
  C326     1.0000 0.54880  0.45120  0.08914  Biso   1.000  C
  C327     1.0000 0.58770  0.41230  0.08750  Biso   1.000  C
  C328     1.0000 0.60525  0.39475  0.13980  Biso   1.000  C
  H253     1.0000 0.61980  0.38020  0.12170  Biso   1.000  H
  O74      1.0000 0.23438  0.76562  0.45859  Biso   1.000  O
  C329     1.0000 0.17689  0.82311  0.35157  Biso   1.000  C
  C330     1.0000 0.21547  0.78453  0.42247  Biso   1.000  C
  C331     1.0000 0.25437  0.74563  0.42083  Biso   1.000  C
  C332     1.0000 0.27192  0.72808  0.47313  Biso   1.000  C
  H254     1.0000 0.28647  0.71353  0.45503  Biso   1.000  H
  O75      1.0000 0.90104  0.09896  0.79193  Biso   1.000  O
  C333     1.0000 0.84355  0.15645  0.68491  Biso   1.000  C
  C334     1.0000 0.88213  0.11787  0.75581  Biso   1.000  C
  C335     1.0000 0.92103  0.07897  0.75417  Biso   1.000  C
  C336     1.0000 0.93858  0.06142  0.80647  Biso   1.000  C
  H255     1.0000 0.95313  0.04687  0.78837  Biso   1.000  H
  O76      1.0000 0.56771  0.13542  0.12526  Biso   1.000  O
  C337     1.0000 0.51022  0.02044  0.01824  Biso   1.000  C
  C338     1.0000 0.54880  0.09760  0.08914  Biso   1.000  C
  C339     1.0000 0.58770  0.17540  0.08750  Biso   1.000  C
  C340     1.0000 0.60525  0.21050  0.13980  Biso   1.000  C
  H256     1.0000 0.61980  0.23960  0.12170  Biso   1.000  H
  O77      1.0000 0.23438  0.46875  0.45859  Biso   1.000  O
  C341     1.0000 0.17689  0.35377  0.35157  Biso   1.000  C
  C342     1.0000 0.21547  0.43093  0.42247  Biso   1.000  C
  C343     1.0000 0.25437  0.50873  0.42083  Biso   1.000  C
  C344     1.0000 0.27192  0.54383  0.47313  Biso   1.000  C
  H257     1.0000 0.28647  0.57293  0.45503  Biso   1.000  H
  O78      1.0000 0.90104  0.80209  0.79193  Biso   1.000  O
  C345     1.0000 0.84355  0.68711  0.68491  Biso   1.000  C
  C346     1.0000 0.88213  0.76427  0.75581  Biso   1.000  C
  C347     1.0000 0.92103  0.84207  0.75417  Biso   1.000  C
  C348     1.0000 0.93858  0.87717  0.80647  Biso   1.000  C
  H258     1.0000 0.95313  0.90627  0.78837  Biso   1.000  H
  O79      1.0000 0.86458  0.43229  0.12526  Biso   1.000  O
  C349     1.0000 0.97956  0.48978  0.01824  Biso   1.000  C
  C350     1.0000 0.90240  0.45120  0.08914  Biso   1.000  C
  C351     1.0000 0.82460  0.41230  0.08750  Biso   1.000  C
  C352     1.0000 0.78950  0.39475  0.13980  Biso   1.000  C
  H259     1.0000 0.76040  0.38020  0.12170  Biso   1.000  H
  O80      1.0000 0.53125  0.76562  0.45859  Biso   1.000  O
  C353     1.0000 0.64623  0.82311  0.35157  Biso   1.000  C
  C354     1.0000 0.56907  0.78453  0.42247  Biso   1.000  C
  C355     1.0000 0.49127  0.74563  0.42083  Biso   1.000  C
  C356     1.0000 0.45617  0.72808  0.47313  Biso   1.000  C
  H260     1.0000 0.42707  0.71353  0.45503  Biso   1.000  H
  O81      1.0000 0.19791  0.09896  0.79193  Biso   1.000  O
  C357     1.0000 0.31289  0.15645  0.68491  Biso   1.000  C
  C358     1.0000 0.23573  0.11787  0.75581  Biso   1.000  C
  C359     1.0000 0.15793  0.07897  0.75417  Biso   1.000  C
  C360     1.0000 0.12283  0.06142  0.80647  Biso   1.000  C
  H261     1.0000 0.09373  0.04687  0.78837  Biso   1.000  H
  O82      1.0000 0.43229  0.56771  0.87474  Biso   1.000  O
  C361     1.0000 0.48978  0.51022  0.98176  Biso   1.000  C
  C362     1.0000 0.45120  0.54880  0.91086  Biso   1.000  C
  C363     1.0000 0.41230  0.58770  0.91250  Biso   1.000  C
  C364     1.0000 0.39475  0.60525  0.86020  Biso   1.000  C
  H262     1.0000 0.38020  0.61980  0.87830  Biso   1.000  H
  O83      1.0000 0.09896  0.90104  0.20807  Biso   1.000  O
  C365     1.0000 0.15645  0.84355  0.31509  Biso   1.000  C
  C366     1.0000 0.11787  0.88213  0.24419  Biso   1.000  C
  C367     1.0000 0.07897  0.92103  0.24583  Biso   1.000  C
  C368     1.0000 0.06142  0.93858  0.19353  Biso   1.000  C
  H263     1.0000 0.04687  0.95313  0.21163  Biso   1.000  H
  O84      1.0000 0.76562  0.23438  0.54141  Biso   1.000  O
  C369     1.0000 0.82311  0.17689  0.64843  Biso   1.000  C
  C370     1.0000 0.78453  0.21547  0.57753  Biso   1.000  C
  C371     1.0000 0.74563  0.25437  0.57917  Biso   1.000  C
  C372     1.0000 0.72808  0.27192  0.52687  Biso   1.000  C
  H264     1.0000 0.71353  0.28647  0.54497  Biso   1.000  H
  O85      1.0000 0.13542  0.56771  0.87474  Biso   1.000  O
  C373     1.0000 0.02044  0.51022  0.98176  Biso   1.000  C
  C374     1.0000 0.09760  0.54880  0.91086  Biso   1.000  C
  C375     1.0000 0.17540  0.58770  0.91250  Biso   1.000  C
  C376     1.0000 0.21050  0.60525  0.86020  Biso   1.000  C
  H265     1.0000 0.23960  0.61980  0.87830  Biso   1.000  H
  O86      1.0000 0.80209  0.90104  0.20807  Biso   1.000  O
  C377     1.0000 0.68711  0.84355  0.31509  Biso   1.000  C
  C378     1.0000 0.76427  0.88213  0.24419  Biso   1.000  C
  C379     1.0000 0.84207  0.92103  0.24583  Biso   1.000  C
  C380     1.0000 0.87717  0.93858  0.19353  Biso   1.000  C
  H266     1.0000 0.90627  0.95313  0.21163  Biso   1.000  H
  O87      1.0000 0.46875  0.23438  0.54141  Biso   1.000  O
  C381     1.0000 0.35377  0.17689  0.64843  Biso   1.000  C
  C382     1.0000 0.43093  0.21547  0.57753  Biso   1.000  C
  C383     1.0000 0.50873  0.25437  0.57917  Biso   1.000  C
  C384     1.0000 0.54383  0.27192  0.52687  Biso   1.000  C
  H267     1.0000 0.57293  0.28647  0.54497  Biso   1.000  H
  O88      1.0000 0.43229  0.86458  0.87474  Biso   1.000  O
  C385     1.0000 0.48978  0.97956  0.98176  Biso   1.000  C
  C386     1.0000 0.45120  0.90240  0.91086  Biso   1.000  C
  C387     1.0000 0.41230  0.82460  0.91250  Biso   1.000  C
  C388     1.0000 0.39475  0.78950  0.86020  Biso   1.000  C
  H268     1.0000 0.38020  0.76040  0.87830  Biso   1.000  H
  O89      1.0000 0.09896  0.19791  0.20807  Biso   1.000  O
  C389     1.0000 0.15645  0.31289  0.31509  Biso   1.000  C
  C390     1.0000 0.11787  0.23573  0.24419  Biso   1.000  C
  C391     1.0000 0.07897  0.15793  0.24583  Biso   1.000  C
  C392     1.0000 0.06142  0.12283  0.19353  Biso   1.000  C
  H269     1.0000 0.04687  0.09373  0.21163  Biso   1.000  H
  O90      1.0000 0.76562  0.53125  0.54141  Biso   1.000  O
  C393     1.0000 0.82311  0.64623  0.64843  Biso   1.000  C
  C394     1.0000 0.78453  0.56907  0.57753  Biso   1.000  C
  C395     1.0000 0.74563  0.49127  0.57917  Biso   1.000  C
  C396     1.0000 0.72808  0.45617  0.52687  Biso   1.000  C
  H270     1.0000 0.71353  0.42707  0.54497  Biso   1.000  H
