data_image0
_cell_length_a       35.2696
_cell_length_b       35.2696
_cell_length_c       20.7424
_cell_angle_alpha    90
_cell_angle_beta     90
_cell_angle_gamma    120

_symmetry_space_group_name_H-M    "P 1"
_symmetry_int_tables_number       1

loop_
  _symmetry_equiv_pos_as_xyz
  'x, y, z'

loop_
  _atom_site_label
  _atom_site_occupancy
  _atom_site_fract_x
  _atom_site_fract_y
  _atom_site_fract_z
  _atom_site_thermal_displace_type
  _atom_site_B_iso_or_equiv
  _atom_site_type_symbol
  O1       1.0000 0.52471  0.97113  0.92496  Biso   1.000  O
  O2       1.0000 0.51141  0.94471  0.02638  Biso   1.000  O
  C1       1.0000 0.52306  0.94561  0.96826  Biso   1.000  C
  C2       1.0000 0.53742  0.91322  0.95031  Biso   1.000  C
  C3       1.0000 0.53814  0.88528  0.99669  Biso   1.000  C
  H1       1.0000 0.52870  0.88580  0.03940  Biso   1.000  H
  C4       1.0000 0.55287  0.85623  0.98052  Biso   1.000  C
  H2       1.0000 0.55370  0.83740  0.01250  Biso   1.000  H
  C5       1.0000 0.56607  0.85484  0.91869  Biso   1.000  C
  C6       1.0000 0.56325  0.88197  0.87108  Biso   1.000  C
  H3       1.0000 0.57060  0.88000  0.82760  Biso   1.000  H
  C7       1.0000 0.54978  0.91145  0.88776  Biso   1.000  C
  H4       1.0000 0.54900  0.93050  0.85600  Biso   1.000  H
  C8       1.0000 0.58495  0.82677  0.90141  Biso   1.000  C
  C9       1.0000 0.62440  0.84576  0.86712  Biso   1.000  C
  H5       1.0000 0.63750  0.87580  0.85550  Biso   1.000  H
  H6       1.0000 0.49280  0.72360  0.89000  Biso   1.000  H
  H7       1.0000 0.45100  0.74810  0.99350  Biso   1.000  H
  O3       1.0000 0.19138  0.30446  0.25829  Biso   1.000  O
  O4       1.0000 0.17808  0.27804  0.35971  Biso   1.000  O
  C10      1.0000 0.18973  0.27894  0.30159  Biso   1.000  C
  C11      1.0000 0.20409  0.24655  0.28364  Biso   1.000  C
  C12      1.0000 0.20481  0.21861  0.33002  Biso   1.000  C
  H8       1.0000 0.19537  0.21913  0.37273  Biso   1.000  H
  C13      1.0000 0.21954  0.18956  0.31385  Biso   1.000  C
  H9       1.0000 0.22037  0.17073  0.34583  Biso   1.000  H
  C14      1.0000 0.23274  0.18817  0.25202  Biso   1.000  C
  C15      1.0000 0.22992  0.21530  0.20441  Biso   1.000  C
  H10      1.0000 0.23727  0.21333  0.16093  Biso   1.000  H
  C16      1.0000 0.21645  0.24478  0.22109  Biso   1.000  C
  H11      1.0000 0.21567  0.26383  0.18933  Biso   1.000  H
  C17      1.0000 0.25162  0.16010  0.23474  Biso   1.000  C
  C18      1.0000 0.29107  0.17909  0.20045  Biso   1.000  C
  H12      1.0000 0.30417  0.20913  0.18883  Biso   1.000  H
  H13      1.0000 0.15947  0.05693  0.22333  Biso   1.000  H
  H14      1.0000 0.11767  0.08143  0.32683  Biso   1.000  H
  O5       1.0000 0.85804  0.63780  0.59163  Biso   1.000  O
  O6       1.0000 0.84474  0.61138  0.69305  Biso   1.000  O
  C19      1.0000 0.85639  0.61228  0.63493  Biso   1.000  C
  C20      1.0000 0.87075  0.57989  0.61698  Biso   1.000  C
  C21      1.0000 0.87147  0.55195  0.66336  Biso   1.000  C
  H15      1.0000 0.86203  0.55247  0.70607  Biso   1.000  H
  C22      1.0000 0.88620  0.52290  0.64719  Biso   1.000  C
  H16      1.0000 0.88703  0.50407  0.67917  Biso   1.000  H
  C23      1.0000 0.89940  0.52151  0.58536  Biso   1.000  C
  C24      1.0000 0.89658  0.54864  0.53775  Biso   1.000  C
  H17      1.0000 0.90393  0.54667  0.49427  Biso   1.000  H
  C25      1.0000 0.88311  0.57812  0.55443  Biso   1.000  C
  H18      1.0000 0.88233  0.59717  0.52267  Biso   1.000  H
  C26      1.0000 0.91828  0.49344  0.56808  Biso   1.000  C
  C27      1.0000 0.95773  0.51243  0.53379  Biso   1.000  C
  H19      1.0000 0.97083  0.54247  0.52217  Biso   1.000  H
  H20      1.0000 0.82613  0.39027  0.55667  Biso   1.000  H
  H21      1.0000 0.78433  0.41477  0.66017  Biso   1.000  H
  O7       1.0000 0.02887  0.55358  0.92496  Biso   1.000  O
  O8       1.0000 0.05529  0.56670  0.02638  Biso   1.000  O
  C28      1.0000 0.05439  0.57745  0.96826  Biso   1.000  C
  C29      1.0000 0.08678  0.62420  0.95031  Biso   1.000  C
  C30      1.0000 0.11472  0.65286  0.99669  Biso   1.000  C
  H22      1.0000 0.11420  0.64290  0.03940  Biso   1.000  H
  C31      1.0000 0.14377  0.69664  0.98052  Biso   1.000  C
  H23      1.0000 0.16260  0.71630  0.01250  Biso   1.000  H
  C32      1.0000 0.14516  0.71123  0.91869  Biso   1.000  C
  C33      1.0000 0.11803  0.68128  0.87108  Biso   1.000  C
  H24      1.0000 0.12000  0.69060  0.82760  Biso   1.000  H
  C34      1.0000 0.08855  0.63833  0.88776  Biso   1.000  C
  H25      1.0000 0.06950  0.61850  0.85600  Biso   1.000  H
  C35      1.0000 0.17323  0.75818  0.90141  Biso   1.000  C
  C36      1.0000 0.15424  0.77864  0.86712  Biso   1.000  C
  H26      1.0000 0.12420  0.76170  0.85550  Biso   1.000  H
  H27      1.0000 0.27640  0.76920  0.89000  Biso   1.000  H
  H28      1.0000 0.25190  0.70290  0.99350  Biso   1.000  H
  O9       1.0000 0.69554  0.88691  0.25829  Biso   1.000  O
  O10      1.0000 0.72196  0.90003  0.35971  Biso   1.000  O
  C37      1.0000 0.72106  0.91078  0.30159  Biso   1.000  C
  C38      1.0000 0.75345  0.95753  0.28364  Biso   1.000  C
  C39      1.0000 0.78139  0.98619  0.33002  Biso   1.000  C
  H29      1.0000 0.78087  0.97623  0.37273  Biso   1.000  H
  C40      1.0000 0.81044  0.02997  0.31385  Biso   1.000  C
  H30      1.0000 0.82927  0.04963  0.34583  Biso   1.000  H
  C41      1.0000 0.81183  0.04456  0.25202  Biso   1.000  C
  C42      1.0000 0.78470  0.01461  0.20441  Biso   1.000  C
  H31      1.0000 0.78667  0.02393  0.16093  Biso   1.000  H
  C43      1.0000 0.75522  0.97166  0.22109  Biso   1.000  C
  H32      1.0000 0.73617  0.95183  0.18933  Biso   1.000  H
  C44      1.0000 0.83990  0.09151  0.23474  Biso   1.000  C
  C45      1.0000 0.82091  0.11197  0.20045  Biso   1.000  C
  H33      1.0000 0.79087  0.09503  0.18883  Biso   1.000  H
  H34      1.0000 0.94307  0.10253  0.22333  Biso   1.000  H
  H35      1.0000 0.91857  0.03623  0.32683  Biso   1.000  H
  O11      1.0000 0.36220  0.22025  0.59163  Biso   1.000  O
  O12      1.0000 0.38862  0.23337  0.69305  Biso   1.000  O
  C46      1.0000 0.38772  0.24412  0.63493  Biso   1.000  C
  C47      1.0000 0.42011  0.29087  0.61698  Biso   1.000  C
  C48      1.0000 0.44805  0.31953  0.66336  Biso   1.000  C
  H36      1.0000 0.44753  0.30957  0.70607  Biso   1.000  H
  C49      1.0000 0.47710  0.36331  0.64719  Biso   1.000  C
  H37      1.0000 0.49593  0.38297  0.67917  Biso   1.000  H
  C50      1.0000 0.47849  0.37790  0.58536  Biso   1.000  C
  C51      1.0000 0.45136  0.34795  0.53775  Biso   1.000  C
  H38      1.0000 0.45333  0.35727  0.49427  Biso   1.000  H
  C52      1.0000 0.42188  0.30500  0.55443  Biso   1.000  C
  H39      1.0000 0.40283  0.28517  0.52267  Biso   1.000  H
  C53      1.0000 0.50656  0.42485  0.56808  Biso   1.000  C
  C54      1.0000 0.48757  0.44531  0.53379  Biso   1.000  C
  H40      1.0000 0.45753  0.42837  0.52217  Biso   1.000  H
  H41      1.0000 0.60973  0.43587  0.55667  Biso   1.000  H
  H42      1.0000 0.58523  0.36957  0.66017  Biso   1.000  H
  O13      1.0000 0.44642  0.47529  0.92496  Biso   1.000  O
  O14      1.0000 0.43330  0.48859  0.02638  Biso   1.000  O
  C55      1.0000 0.42255  0.47694  0.96826  Biso   1.000  C
  C56      1.0000 0.37580  0.46258  0.95031  Biso   1.000  C
  C57      1.0000 0.34714  0.46186  0.99669  Biso   1.000  C
  H43      1.0000 0.35710  0.47130  0.03940  Biso   1.000  H
  C58      1.0000 0.30336  0.44713  0.98052  Biso   1.000  C
  H44      1.0000 0.28370  0.44630  0.01250  Biso   1.000  H
  C59      1.0000 0.28877  0.43393  0.91869  Biso   1.000  C
  C60      1.0000 0.31872  0.43675  0.87108  Biso   1.000  C
  H45      1.0000 0.30940  0.42940  0.82760  Biso   1.000  H
  C61      1.0000 0.36167  0.45022  0.88776  Biso   1.000  C
  H46      1.0000 0.38150  0.45100  0.85600  Biso   1.000  H
  C62      1.0000 0.24182  0.41505  0.90141  Biso   1.000  C
  C63      1.0000 0.22136  0.37560  0.86712  Biso   1.000  C
  H47      1.0000 0.23830  0.36250  0.85550  Biso   1.000  H
  H48      1.0000 0.23080  0.50720  0.89000  Biso   1.000  H
  H49      1.0000 0.29710  0.54900  0.99350  Biso   1.000  H
  O15      1.0000 0.11309  0.80862  0.25829  Biso   1.000  O
  O16      1.0000 0.09997  0.82192  0.35971  Biso   1.000  O
  C64      1.0000 0.08922  0.81027  0.30159  Biso   1.000  C
  C65      1.0000 0.04247  0.79591  0.28364  Biso   1.000  C
  C66      1.0000 0.01381  0.79519  0.33002  Biso   1.000  C
  H50      1.0000 0.02377  0.80463  0.37273  Biso   1.000  H
  C67      1.0000 0.97003  0.78046  0.31385  Biso   1.000  C
  H51      1.0000 0.95037  0.77963  0.34583  Biso   1.000  H
  C68      1.0000 0.95544  0.76726  0.25202  Biso   1.000  C
  C69      1.0000 0.98539  0.77008  0.20441  Biso   1.000  C
  H52      1.0000 0.97607  0.76273  0.16093  Biso   1.000  H
  C70      1.0000 0.02834  0.78355  0.22109  Biso   1.000  C
  H53      1.0000 0.04817  0.78433  0.18933  Biso   1.000  H
  C71      1.0000 0.90849  0.74838  0.23474  Biso   1.000  C
  C72      1.0000 0.88803  0.70893  0.20045  Biso   1.000  C
  H54      1.0000 0.90497  0.69583  0.18883  Biso   1.000  H
  H55      1.0000 0.89747  0.84053  0.22333  Biso   1.000  H
  H56      1.0000 0.96377  0.88233  0.32683  Biso   1.000  H
  O17      1.0000 0.77975  0.14196  0.59163  Biso   1.000  O
  O18      1.0000 0.76663  0.15526  0.69305  Biso   1.000  O
  C73      1.0000 0.75588  0.14361  0.63493  Biso   1.000  C
  C74      1.0000 0.70913  0.12925  0.61698  Biso   1.000  C
  C75      1.0000 0.68047  0.12853  0.66336  Biso   1.000  C
  H57      1.0000 0.69043  0.13797  0.70607  Biso   1.000  H
  C76      1.0000 0.63669  0.11380  0.64719  Biso   1.000  C
  H58      1.0000 0.61703  0.11297  0.67917  Biso   1.000  H
  C77      1.0000 0.62210  0.10060  0.58536  Biso   1.000  C
  C78      1.0000 0.65205  0.10342  0.53775  Biso   1.000  C
  H59      1.0000 0.64273  0.09607  0.49427  Biso   1.000  H
  C79      1.0000 0.69500  0.11689  0.55443  Biso   1.000  C
  H60      1.0000 0.71483  0.11767  0.52267  Biso   1.000  H
  C80      1.0000 0.57515  0.08172  0.56808  Biso   1.000  C
  C81      1.0000 0.55469  0.04227  0.53379  Biso   1.000  C
  H61      1.0000 0.57163  0.02917  0.52217  Biso   1.000  H
  H62      1.0000 0.56413  0.17387  0.55667  Biso   1.000  H
  H63      1.0000 0.63043  0.21567  0.66017  Biso   1.000  H
  O19      1.0000 0.97113  0.52471  0.07504  Biso   1.000  O
  O20      1.0000 0.94471  0.51141  0.97362  Biso   1.000  O
  C82      1.0000 0.94561  0.52306  0.03174  Biso   1.000  C
  C83      1.0000 0.91322  0.53742  0.04969  Biso   1.000  C
  C84      1.0000 0.88528  0.53814  0.00331  Biso   1.000  C
  H64      1.0000 0.88580  0.52870  0.96060  Biso   1.000  H
  C85      1.0000 0.85623  0.55287  0.01948  Biso   1.000  C
  H65      1.0000 0.83740  0.55370  0.98750  Biso   1.000  H
  C86      1.0000 0.85484  0.56607  0.08131  Biso   1.000  C
  C87      1.0000 0.88197  0.56325  0.12892  Biso   1.000  C
  H66      1.0000 0.88000  0.57060  0.17240  Biso   1.000  H
  C88      1.0000 0.91145  0.54978  0.11224  Biso   1.000  C
  H67      1.0000 0.93050  0.54900  0.14400  Biso   1.000  H
  C89      1.0000 0.82677  0.58495  0.09859  Biso   1.000  C
  C90      1.0000 0.84576  0.62440  0.13288  Biso   1.000  C
  H68      1.0000 0.87580  0.63750  0.14450  Biso   1.000  H
  H69      1.0000 0.72360  0.49280  0.11000  Biso   1.000  H
  H70      1.0000 0.74810  0.45100  0.00650  Biso   1.000  H
  O21      1.0000 0.63780  0.85804  0.40837  Biso   1.000  O
  O22      1.0000 0.61138  0.84474  0.30695  Biso   1.000  O
  C91      1.0000 0.61228  0.85639  0.36507  Biso   1.000  C
  C92      1.0000 0.57989  0.87075  0.38302  Biso   1.000  C
  C93      1.0000 0.55195  0.87147  0.33664  Biso   1.000  C
  H71      1.0000 0.55247  0.86203  0.29393  Biso   1.000  H
  C94      1.0000 0.52290  0.88620  0.35281  Biso   1.000  C
  H72      1.0000 0.50407  0.88703  0.32083  Biso   1.000  H
  C95      1.0000 0.52151  0.89940  0.41464  Biso   1.000  C
  C96      1.0000 0.54864  0.89658  0.46225  Biso   1.000  C
  H73      1.0000 0.54667  0.90393  0.50573  Biso   1.000  H
  C97      1.0000 0.57812  0.88311  0.44557  Biso   1.000  C
  H74      1.0000 0.59717  0.88233  0.47733  Biso   1.000  H
  C98      1.0000 0.49344  0.91828  0.43192  Biso   1.000  C
  C99      1.0000 0.51243  0.95773  0.46621  Biso   1.000  C
  H75      1.0000 0.54247  0.97083  0.47783  Biso   1.000  H
  H76      1.0000 0.39027  0.82613  0.44333  Biso   1.000  H
  H77      1.0000 0.41477  0.78433  0.33983  Biso   1.000  H
  O23      1.0000 0.30446  0.19138  0.74171  Biso   1.000  O
  O24      1.0000 0.27804  0.17808  0.64029  Biso   1.000  O
  C100     1.0000 0.27894  0.18973  0.69841  Biso   1.000  C
  C101     1.0000 0.24655  0.20409  0.71636  Biso   1.000  C
  C102     1.0000 0.21861  0.20481  0.66998  Biso   1.000  C
  H78      1.0000 0.21913  0.19537  0.62727  Biso   1.000  H
  C103     1.0000 0.18956  0.21954  0.68615  Biso   1.000  C
  H79      1.0000 0.17073  0.22037  0.65417  Biso   1.000  H
  C104     1.0000 0.18817  0.23274  0.74798  Biso   1.000  C
  C105     1.0000 0.21530  0.22992  0.79559  Biso   1.000  C
  H80      1.0000 0.21333  0.23727  0.83907  Biso   1.000  H
  C106     1.0000 0.24478  0.21645  0.77891  Biso   1.000  C
  H81      1.0000 0.26383  0.21567  0.81067  Biso   1.000  H
  C107     1.0000 0.16010  0.25162  0.76526  Biso   1.000  C
  C108     1.0000 0.17909  0.29107  0.79955  Biso   1.000  C
  H82      1.0000 0.20913  0.30417  0.81117  Biso   1.000  H
  H83      1.0000 0.05693  0.15947  0.77667  Biso   1.000  H
  H84      1.0000 0.08143  0.11767  0.67317  Biso   1.000  H
  O25      1.0000 0.55358  0.02887  0.07504  Biso   1.000  O
  O26      1.0000 0.56670  0.05529  0.97362  Biso   1.000  O
  C109     1.0000 0.57745  0.05439  0.03174  Biso   1.000  C
  C110     1.0000 0.62420  0.08678  0.04969  Biso   1.000  C
  C111     1.0000 0.65286  0.11472  0.00331  Biso   1.000  C
  H85      1.0000 0.64290  0.11420  0.96060  Biso   1.000  H
  C112     1.0000 0.69664  0.14377  0.01948  Biso   1.000  C
  H86      1.0000 0.71630  0.16260  0.98750  Biso   1.000  H
  C113     1.0000 0.71123  0.14516  0.08131  Biso   1.000  C
  C114     1.0000 0.68128  0.11803  0.12892  Biso   1.000  C
  H87      1.0000 0.69060  0.12000  0.17240  Biso   1.000  H
  C115     1.0000 0.63833  0.08855  0.11224  Biso   1.000  C
  H88      1.0000 0.61850  0.06950  0.14400  Biso   1.000  H
  C116     1.0000 0.75818  0.17323  0.09859  Biso   1.000  C
  C117     1.0000 0.77864  0.15424  0.13288  Biso   1.000  C
  H89      1.0000 0.76170  0.12420  0.14450  Biso   1.000  H
  H90      1.0000 0.76920  0.27640  0.11000  Biso   1.000  H
  H91      1.0000 0.70290  0.25190  0.00650  Biso   1.000  H
  O27      1.0000 0.22025  0.36220  0.40837  Biso   1.000  O
  O28      1.0000 0.23337  0.38862  0.30695  Biso   1.000  O
  C118     1.0000 0.24412  0.38772  0.36507  Biso   1.000  C
  C119     1.0000 0.29087  0.42011  0.38302  Biso   1.000  C
  C120     1.0000 0.31953  0.44805  0.33664  Biso   1.000  C
  H92      1.0000 0.30957  0.44753  0.29393  Biso   1.000  H
  C121     1.0000 0.36331  0.47710  0.35281  Biso   1.000  C
  H93      1.0000 0.38297  0.49593  0.32083  Biso   1.000  H
  C122     1.0000 0.37790  0.47849  0.41464  Biso   1.000  C
  C123     1.0000 0.34795  0.45136  0.46225  Biso   1.000  C
  H94      1.0000 0.35727  0.45333  0.50573  Biso   1.000  H
  C124     1.0000 0.30500  0.42188  0.44557  Biso   1.000  C
  H95      1.0000 0.28517  0.40283  0.47733  Biso   1.000  H
  C125     1.0000 0.42485  0.50656  0.43192  Biso   1.000  C
  C126     1.0000 0.44531  0.48757  0.46621  Biso   1.000  C
  H96      1.0000 0.42837  0.45753  0.47783  Biso   1.000  H
  H97      1.0000 0.43587  0.60973  0.44333  Biso   1.000  H
  H98      1.0000 0.36957  0.58523  0.33983  Biso   1.000  H
  O29      1.0000 0.88691  0.69554  0.74171  Biso   1.000  O
  O30      1.0000 0.90003  0.72196  0.64029  Biso   1.000  O
  C127     1.0000 0.91078  0.72106  0.69841  Biso   1.000  C
  C128     1.0000 0.95753  0.75345  0.71636  Biso   1.000  C
  C129     1.0000 0.98619  0.78139  0.66998  Biso   1.000  C
  H99      1.0000 0.97623  0.78087  0.62727  Biso   1.000  H
  C130     1.0000 0.02997  0.81044  0.68615  Biso   1.000  C
  H100     1.0000 0.04963  0.82927  0.65417  Biso   1.000  H
  C131     1.0000 0.04456  0.81183  0.74798  Biso   1.000  C
  C132     1.0000 0.01461  0.78470  0.79559  Biso   1.000  C
  H101     1.0000 0.02393  0.78667  0.83907  Biso   1.000  H
  C133     1.0000 0.97166  0.75522  0.77891  Biso   1.000  C
  H102     1.0000 0.95183  0.73617  0.81067  Biso   1.000  H
  C134     1.0000 0.09151  0.83990  0.76526  Biso   1.000  C
  C135     1.0000 0.11197  0.82091  0.79955  Biso   1.000  C
  H103     1.0000 0.09503  0.79087  0.81117  Biso   1.000  H
  H104     1.0000 0.10253  0.94307  0.77667  Biso   1.000  H
  H105     1.0000 0.03623  0.91857  0.67317  Biso   1.000  H
  O31      1.0000 0.47529  0.44642  0.07504  Biso   1.000  O
  O32      1.0000 0.48859  0.43330  0.97362  Biso   1.000  O
  C136     1.0000 0.47694  0.42255  0.03174  Biso   1.000  C
  C137     1.0000 0.46258  0.37580  0.04969  Biso   1.000  C
  C138     1.0000 0.46186  0.34714  0.00331  Biso   1.000  C
  H106     1.0000 0.47130  0.35710  0.96060  Biso   1.000  H
  C139     1.0000 0.44713  0.30336  0.01948  Biso   1.000  C
  H107     1.0000 0.44630  0.28370  0.98750  Biso   1.000  H
  C140     1.0000 0.43393  0.28877  0.08131  Biso   1.000  C
  C141     1.0000 0.43675  0.31872  0.12892  Biso   1.000  C
  H108     1.0000 0.42940  0.30940  0.17240  Biso   1.000  H
  C142     1.0000 0.45022  0.36167  0.11224  Biso   1.000  C
  H109     1.0000 0.45100  0.38150  0.14400  Biso   1.000  H
  C143     1.0000 0.41505  0.24182  0.09859  Biso   1.000  C
  C144     1.0000 0.37560  0.22136  0.13288  Biso   1.000  C
  H110     1.0000 0.36250  0.23830  0.14450  Biso   1.000  H
  H111     1.0000 0.50720  0.23080  0.11000  Biso   1.000  H
  H112     1.0000 0.54900  0.29710  0.00650  Biso   1.000  H
  O33      1.0000 0.14196  0.77975  0.40837  Biso   1.000  O
  O34      1.0000 0.15526  0.76663  0.30695  Biso   1.000  O
  C145     1.0000 0.14361  0.75588  0.36507  Biso   1.000  C
  C146     1.0000 0.12925  0.70913  0.38302  Biso   1.000  C
  C147     1.0000 0.12853  0.68047  0.33664  Biso   1.000  C
  H113     1.0000 0.13797  0.69043  0.29393  Biso   1.000  H
  C148     1.0000 0.11380  0.63669  0.35281  Biso   1.000  C
  H114     1.0000 0.11297  0.61703  0.32083  Biso   1.000  H
  C149     1.0000 0.10060  0.62210  0.41464  Biso   1.000  C
  C150     1.0000 0.10342  0.65205  0.46225  Biso   1.000  C
  H115     1.0000 0.09607  0.64273  0.50573  Biso   1.000  H
  C151     1.0000 0.11689  0.69500  0.44557  Biso   1.000  C
  H116     1.0000 0.11767  0.71483  0.47733  Biso   1.000  H
  C152     1.0000 0.08172  0.57515  0.43192  Biso   1.000  C
  C153     1.0000 0.04227  0.55469  0.46621  Biso   1.000  C
  H117     1.0000 0.02917  0.57163  0.47783  Biso   1.000  H
  H118     1.0000 0.17387  0.56413  0.44333  Biso   1.000  H
  H119     1.0000 0.21567  0.63043  0.33983  Biso   1.000  H
  O35      1.0000 0.80862  0.11309  0.74171  Biso   1.000  O
  O36      1.0000 0.82192  0.09997  0.64029  Biso   1.000  O
  C154     1.0000 0.81027  0.08922  0.69841  Biso   1.000  C
  C155     1.0000 0.79591  0.04247  0.71636  Biso   1.000  C
  C156     1.0000 0.79519  0.01381  0.66998  Biso   1.000  C
  H120     1.0000 0.80463  0.02377  0.62727  Biso   1.000  H
  C157     1.0000 0.78046  0.97003  0.68615  Biso   1.000  C
  H121     1.0000 0.77963  0.95037  0.65417  Biso   1.000  H
  C158     1.0000 0.76726  0.95544  0.74798  Biso   1.000  C
  C159     1.0000 0.77008  0.98539  0.79559  Biso   1.000  C
  H122     1.0000 0.76273  0.97607  0.83907  Biso   1.000  H
  C160     1.0000 0.78355  0.02834  0.77891  Biso   1.000  C
  H123     1.0000 0.78433  0.04817  0.81067  Biso   1.000  H
  C161     1.0000 0.74838  0.90849  0.76526  Biso   1.000  C
  C162     1.0000 0.70893  0.88803  0.79955  Biso   1.000  C
  H124     1.0000 0.69583  0.90497  0.81117  Biso   1.000  H
  H125     1.0000 0.84053  0.89747  0.77667  Biso   1.000  H
  H126     1.0000 0.88233  0.96377  0.67317  Biso   1.000  H
  O37      1.0000 0.47529  0.02887  0.07504  Biso   1.000  O
  O38      1.0000 0.48859  0.05529  0.97362  Biso   1.000  O
  C163     1.0000 0.47694  0.05439  0.03174  Biso   1.000  C
  C164     1.0000 0.46258  0.08678  0.04969  Biso   1.000  C
  C165     1.0000 0.46186  0.11472  0.00331  Biso   1.000  C
  H127     1.0000 0.47130  0.11420  0.96060  Biso   1.000  H
  C166     1.0000 0.44713  0.14377  0.01948  Biso   1.000  C
  H128     1.0000 0.44630  0.16260  0.98750  Biso   1.000  H
  C167     1.0000 0.43393  0.14516  0.08131  Biso   1.000  C
  C168     1.0000 0.43675  0.11803  0.12892  Biso   1.000  C
  H129     1.0000 0.42940  0.12000  0.17240  Biso   1.000  H
  C169     1.0000 0.45022  0.08855  0.11224  Biso   1.000  C
  H130     1.0000 0.45100  0.06950  0.14400  Biso   1.000  H
  C170     1.0000 0.41505  0.17323  0.09859  Biso   1.000  C
  C171     1.0000 0.37560  0.15424  0.13288  Biso   1.000  C
  H131     1.0000 0.36250  0.12420  0.14450  Biso   1.000  H
  H132     1.0000 0.50720  0.27640  0.11000  Biso   1.000  H
  H133     1.0000 0.54900  0.25190  0.00650  Biso   1.000  H
  O39      1.0000 0.14196  0.36220  0.40837  Biso   1.000  O
  O40      1.0000 0.15526  0.38862  0.30695  Biso   1.000  O
  C172     1.0000 0.14361  0.38772  0.36507  Biso   1.000  C
  C173     1.0000 0.12925  0.42011  0.38302  Biso   1.000  C
  C174     1.0000 0.12853  0.44805  0.33664  Biso   1.000  C
  H134     1.0000 0.13797  0.44753  0.29393  Biso   1.000  H
  C175     1.0000 0.11380  0.47710  0.35281  Biso   1.000  C
  H135     1.0000 0.11297  0.49593  0.32083  Biso   1.000  H
  C176     1.0000 0.10060  0.47849  0.41464  Biso   1.000  C
  C177     1.0000 0.10342  0.45136  0.46225  Biso   1.000  C
  H136     1.0000 0.09607  0.45333  0.50573  Biso   1.000  H
  C178     1.0000 0.11689  0.42188  0.44557  Biso   1.000  C
  H137     1.0000 0.11767  0.40283  0.47733  Biso   1.000  H
  C179     1.0000 0.08172  0.50656  0.43192  Biso   1.000  C
  C180     1.0000 0.04227  0.48757  0.46621  Biso   1.000  C
  H138     1.0000 0.02917  0.45753  0.47783  Biso   1.000  H
  H139     1.0000 0.17387  0.60973  0.44333  Biso   1.000  H
  H140     1.0000 0.21567  0.58523  0.33983  Biso   1.000  H
  O41      1.0000 0.80862  0.69554  0.74171  Biso   1.000  O
  O42      1.0000 0.82192  0.72196  0.64029  Biso   1.000  O
  C181     1.0000 0.81027  0.72106  0.69841  Biso   1.000  C
  C182     1.0000 0.79591  0.75345  0.71636  Biso   1.000  C
  C183     1.0000 0.79519  0.78139  0.66998  Biso   1.000  C
  H141     1.0000 0.80463  0.78087  0.62727  Biso   1.000  H
  C184     1.0000 0.78046  0.81044  0.68615  Biso   1.000  C
  H142     1.0000 0.77963  0.82927  0.65417  Biso   1.000  H
  C185     1.0000 0.76726  0.81183  0.74798  Biso   1.000  C
  C186     1.0000 0.77008  0.78470  0.79559  Biso   1.000  C
  H143     1.0000 0.76273  0.78667  0.83907  Biso   1.000  H
  C187     1.0000 0.78355  0.75522  0.77891  Biso   1.000  C
  H144     1.0000 0.78433  0.73617  0.81067  Biso   1.000  H
  C188     1.0000 0.74838  0.83990  0.76526  Biso   1.000  C
  C189     1.0000 0.70893  0.82091  0.79955  Biso   1.000  C
  H145     1.0000 0.69583  0.79087  0.81117  Biso   1.000  H
  H146     1.0000 0.84053  0.94307  0.77667  Biso   1.000  H
  H147     1.0000 0.88233  0.91857  0.67317  Biso   1.000  H
  O43      1.0000 0.97113  0.44642  0.07504  Biso   1.000  O
  O44      1.0000 0.94471  0.43330  0.97362  Biso   1.000  O
  C190     1.0000 0.94561  0.42255  0.03174  Biso   1.000  C
  C191     1.0000 0.91322  0.37580  0.04969  Biso   1.000  C
  C192     1.0000 0.88528  0.34714  0.00331  Biso   1.000  C
  H148     1.0000 0.88580  0.35710  0.96060  Biso   1.000  H
  C193     1.0000 0.85623  0.30336  0.01948  Biso   1.000  C
  H149     1.0000 0.83740  0.28370  0.98750  Biso   1.000  H
  C194     1.0000 0.85484  0.28877  0.08131  Biso   1.000  C
  C195     1.0000 0.88197  0.31872  0.12892  Biso   1.000  C
  H150     1.0000 0.88000  0.30940  0.17240  Biso   1.000  H
  C196     1.0000 0.91145  0.36167  0.11224  Biso   1.000  C
  H151     1.0000 0.93050  0.38150  0.14400  Biso   1.000  H
  C197     1.0000 0.82677  0.24182  0.09859  Biso   1.000  C
  C198     1.0000 0.84576  0.22136  0.13288  Biso   1.000  C
  H152     1.0000 0.87580  0.23830  0.14450  Biso   1.000  H
  H153     1.0000 0.72360  0.23080  0.11000  Biso   1.000  H
  H154     1.0000 0.74810  0.29710  0.00650  Biso   1.000  H
  O45      1.0000 0.63780  0.77975  0.40837  Biso   1.000  O
  O46      1.0000 0.61138  0.76663  0.30695  Biso   1.000  O
  C199     1.0000 0.61228  0.75588  0.36507  Biso   1.000  C
  C200     1.0000 0.57989  0.70913  0.38302  Biso   1.000  C
  C201     1.0000 0.55195  0.68047  0.33664  Biso   1.000  C
  H155     1.0000 0.55247  0.69043  0.29393  Biso   1.000  H
  C202     1.0000 0.52290  0.63669  0.35281  Biso   1.000  C
  H156     1.0000 0.50407  0.61703  0.32083  Biso   1.000  H
  C203     1.0000 0.52151  0.62210  0.41464  Biso   1.000  C
  C204     1.0000 0.54864  0.65205  0.46225  Biso   1.000  C
  H157     1.0000 0.54667  0.64273  0.50573  Biso   1.000  H
  C205     1.0000 0.57812  0.69500  0.44557  Biso   1.000  C
  H158     1.0000 0.59717  0.71483  0.47733  Biso   1.000  H
  C206     1.0000 0.49344  0.57515  0.43192  Biso   1.000  C
  C207     1.0000 0.51243  0.55469  0.46621  Biso   1.000  C
  H159     1.0000 0.54247  0.57163  0.47783  Biso   1.000  H
  H160     1.0000 0.39027  0.56413  0.44333  Biso   1.000  H
  H161     1.0000 0.41477  0.63043  0.33983  Biso   1.000  H
  O47      1.0000 0.30446  0.11309  0.74171  Biso   1.000  O
  O48      1.0000 0.27804  0.09997  0.64029  Biso   1.000  O
  C208     1.0000 0.27894  0.08922  0.69841  Biso   1.000  C
  C209     1.0000 0.24655  0.04247  0.71636  Biso   1.000  C
  C210     1.0000 0.21861  0.01381  0.66998  Biso   1.000  C
  H162     1.0000 0.21913  0.02377  0.62727  Biso   1.000  H
  C211     1.0000 0.18956  0.97003  0.68615  Biso   1.000  C
  H163     1.0000 0.17073  0.95037  0.65417  Biso   1.000  H
  C212     1.0000 0.18817  0.95544  0.74798  Biso   1.000  C
  C213     1.0000 0.21530  0.98539  0.79559  Biso   1.000  C
  H164     1.0000 0.21333  0.97607  0.83907  Biso   1.000  H
  C214     1.0000 0.24478  0.02834  0.77891  Biso   1.000  C
  H165     1.0000 0.26383  0.04817  0.81067  Biso   1.000  H
  C215     1.0000 0.16010  0.90849  0.76526  Biso   1.000  C
  C216     1.0000 0.17909  0.88803  0.79955  Biso   1.000  C
  H166     1.0000 0.20913  0.90497  0.81117  Biso   1.000  H
  H167     1.0000 0.05693  0.89747  0.77667  Biso   1.000  H
  H168     1.0000 0.08143  0.96377  0.67317  Biso   1.000  H
  O49      1.0000 0.55358  0.52471  0.07504  Biso   1.000  O
  O50      1.0000 0.56670  0.51141  0.97362  Biso   1.000  O
  C217     1.0000 0.57745  0.52306  0.03174  Biso   1.000  C
  C218     1.0000 0.62420  0.53742  0.04969  Biso   1.000  C
  C219     1.0000 0.65286  0.53814  0.00331  Biso   1.000  C
  H169     1.0000 0.64290  0.52870  0.96060  Biso   1.000  H
  C220     1.0000 0.69664  0.55287  0.01948  Biso   1.000  C
  H170     1.0000 0.71630  0.55370  0.98750  Biso   1.000  H
  C221     1.0000 0.71123  0.56607  0.08131  Biso   1.000  C
  C222     1.0000 0.68128  0.56325  0.12892  Biso   1.000  C
  H171     1.0000 0.69060  0.57060  0.17240  Biso   1.000  H
  C223     1.0000 0.63833  0.54978  0.11224  Biso   1.000  C
  H172     1.0000 0.61850  0.54900  0.14400  Biso   1.000  H
  C224     1.0000 0.75818  0.58495  0.09859  Biso   1.000  C
  C225     1.0000 0.77864  0.62440  0.13288  Biso   1.000  C
  H173     1.0000 0.76170  0.63750  0.14450  Biso   1.000  H
  H174     1.0000 0.76920  0.49280  0.11000  Biso   1.000  H
  H175     1.0000 0.70290  0.45100  0.00650  Biso   1.000  H
  O51      1.0000 0.22025  0.85804  0.40837  Biso   1.000  O
  O52      1.0000 0.23337  0.84474  0.30695  Biso   1.000  O
  C226     1.0000 0.24412  0.85639  0.36507  Biso   1.000  C
  C227     1.0000 0.29087  0.87075  0.38302  Biso   1.000  C
  C228     1.0000 0.31953  0.87147  0.33664  Biso   1.000  C
  H176     1.0000 0.30957  0.86203  0.29393  Biso   1.000  H
  C229     1.0000 0.36331  0.88620  0.35281  Biso   1.000  C
  H177     1.0000 0.38297  0.88703  0.32083  Biso   1.000  H
  C230     1.0000 0.37790  0.89940  0.41464  Biso   1.000  C
  C231     1.0000 0.34795  0.89658  0.46225  Biso   1.000  C
  H178     1.0000 0.35727  0.90393  0.50573  Biso   1.000  H
  C232     1.0000 0.30500  0.88311  0.44557  Biso   1.000  C
  H179     1.0000 0.28517  0.88233  0.47733  Biso   1.000  H
  C233     1.0000 0.42485  0.91828  0.43192  Biso   1.000  C
  C234     1.0000 0.44531  0.95773  0.46621  Biso   1.000  C
  H180     1.0000 0.42837  0.97083  0.47783  Biso   1.000  H
  H181     1.0000 0.43587  0.82613  0.44333  Biso   1.000  H
  H182     1.0000 0.36957  0.78433  0.33983  Biso   1.000  H
  O53      1.0000 0.88691  0.19138  0.74171  Biso   1.000  O
  O54      1.0000 0.90003  0.17808  0.64029  Biso   1.000  O
  C235     1.0000 0.91078  0.18973  0.69841  Biso   1.000  C
  C236     1.0000 0.95753  0.20409  0.71636  Biso   1.000  C
  C237     1.0000 0.98619  0.20481  0.66998  Biso   1.000  C
  H183     1.0000 0.97623  0.19537  0.62727  Biso   1.000  H
  C238     1.0000 0.02997  0.21954  0.68615  Biso   1.000  C
  H184     1.0000 0.04963  0.22037  0.65417  Biso   1.000  H
  C239     1.0000 0.04456  0.23274  0.74798  Biso   1.000  C
  C240     1.0000 0.01461  0.22992  0.79559  Biso   1.000  C
  H185     1.0000 0.02393  0.23727  0.83907  Biso   1.000  H
  C241     1.0000 0.97166  0.21645  0.77891  Biso   1.000  C
  H186     1.0000 0.95183  0.21567  0.81067  Biso   1.000  H
  C242     1.0000 0.09151  0.25162  0.76526  Biso   1.000  C
  C243     1.0000 0.11197  0.29107  0.79955  Biso   1.000  C
  H187     1.0000 0.09503  0.30417  0.81117  Biso   1.000  H
  H188     1.0000 0.10253  0.15947  0.77667  Biso   1.000  H
  H189     1.0000 0.03623  0.11767  0.67317  Biso   1.000  H
  O55      1.0000 0.02887  0.47529  0.92496  Biso   1.000  O
  O56      1.0000 0.05529  0.48859  0.02638  Biso   1.000  O
  C244     1.0000 0.05439  0.47694  0.96826  Biso   1.000  C
  C245     1.0000 0.08678  0.46258  0.95031  Biso   1.000  C
  C246     1.0000 0.11472  0.46186  0.99669  Biso   1.000  C
  H190     1.0000 0.11420  0.47130  0.03940  Biso   1.000  H
  C247     1.0000 0.14377  0.44713  0.98052  Biso   1.000  C
  H191     1.0000 0.16260  0.44630  0.01250  Biso   1.000  H
  C248     1.0000 0.14516  0.43393  0.91869  Biso   1.000  C
  C249     1.0000 0.11803  0.43675  0.87108  Biso   1.000  C
  H192     1.0000 0.12000  0.42940  0.82760  Biso   1.000  H
  C250     1.0000 0.08855  0.45022  0.88776  Biso   1.000  C
  H193     1.0000 0.06950  0.45100  0.85600  Biso   1.000  H
  C251     1.0000 0.17323  0.41505  0.90141  Biso   1.000  C
  C252     1.0000 0.15424  0.37560  0.86712  Biso   1.000  C
  H194     1.0000 0.12420  0.36250  0.85550  Biso   1.000  H
  H195     1.0000 0.27640  0.50720  0.89000  Biso   1.000  H
  H196     1.0000 0.25190  0.54900  0.99350  Biso   1.000  H
  O57      1.0000 0.69554  0.80862  0.25829  Biso   1.000  O
  O58      1.0000 0.72196  0.82192  0.35971  Biso   1.000  O
  C253     1.0000 0.72106  0.81027  0.30159  Biso   1.000  C
  C254     1.0000 0.75345  0.79591  0.28364  Biso   1.000  C
  C255     1.0000 0.78139  0.79519  0.33002  Biso   1.000  C
  H197     1.0000 0.78087  0.80463  0.37273  Biso   1.000  H
  C256     1.0000 0.81044  0.78046  0.31385  Biso   1.000  C
  H198     1.0000 0.82927  0.77963  0.34583  Biso   1.000  H
  C257     1.0000 0.81183  0.76726  0.25202  Biso   1.000  C
  C258     1.0000 0.78470  0.77008  0.20441  Biso   1.000  C
  H199     1.0000 0.78667  0.76273  0.16093  Biso   1.000  H
  C259     1.0000 0.75522  0.78355  0.22109  Biso   1.000  C
  H200     1.0000 0.73617  0.78433  0.18933  Biso   1.000  H
  C260     1.0000 0.83990  0.74838  0.23474  Biso   1.000  C
  C261     1.0000 0.82091  0.70893  0.20045  Biso   1.000  C
  H201     1.0000 0.79087  0.69583  0.18883  Biso   1.000  H
  H202     1.0000 0.94307  0.84053  0.22333  Biso   1.000  H
  H203     1.0000 0.91857  0.88233  0.32683  Biso   1.000  H
  O59      1.0000 0.36220  0.14196  0.59163  Biso   1.000  O
  O60      1.0000 0.38862  0.15526  0.69305  Biso   1.000  O
  C262     1.0000 0.38772  0.14361  0.63493  Biso   1.000  C
  C263     1.0000 0.42011  0.12925  0.61698  Biso   1.000  C
  C264     1.0000 0.44805  0.12853  0.66336  Biso   1.000  C
  H204     1.0000 0.44753  0.13797  0.70607  Biso   1.000  H
  C265     1.0000 0.47710  0.11380  0.64719  Biso   1.000  C
  H205     1.0000 0.49593  0.11297  0.67917  Biso   1.000  H
  C266     1.0000 0.47849  0.10060  0.58536  Biso   1.000  C
  C267     1.0000 0.45136  0.10342  0.53775  Biso   1.000  C
  H206     1.0000 0.45333  0.09607  0.49427  Biso   1.000  H
  C268     1.0000 0.42188  0.11689  0.55443  Biso   1.000  C
  H207     1.0000 0.40283  0.11767  0.52267  Biso   1.000  H
  C269     1.0000 0.50656  0.08172  0.56808  Biso   1.000  C
  C270     1.0000 0.48757  0.04227  0.53379  Biso   1.000  C
  H208     1.0000 0.45753  0.02917  0.52217  Biso   1.000  H
  H209     1.0000 0.60973  0.17387  0.55667  Biso   1.000  H
  H210     1.0000 0.58523  0.21567  0.66017  Biso   1.000  H
  O61      1.0000 0.44642  0.97113  0.92496  Biso   1.000  O
  O62      1.0000 0.43330  0.94471  0.02638  Biso   1.000  O
  C271     1.0000 0.42255  0.94561  0.96826  Biso   1.000  C
  C272     1.0000 0.37580  0.91322  0.95031  Biso   1.000  C
  C273     1.0000 0.34714  0.88528  0.99669  Biso   1.000  C
  H211     1.0000 0.35710  0.88580  0.03940  Biso   1.000  H
  C274     1.0000 0.30336  0.85623  0.98052  Biso   1.000  C
  H212     1.0000 0.28370  0.83740  0.01250  Biso   1.000  H
  C275     1.0000 0.28877  0.85484  0.91869  Biso   1.000  C
  C276     1.0000 0.31872  0.88197  0.87108  Biso   1.000  C
  H213     1.0000 0.30940  0.88000  0.82760  Biso   1.000  H
  C277     1.0000 0.36167  0.91145  0.88776  Biso   1.000  C
  H214     1.0000 0.38150  0.93050  0.85600  Biso   1.000  H
  C278     1.0000 0.24182  0.82677  0.90141  Biso   1.000  C
  C279     1.0000 0.22136  0.84576  0.86712  Biso   1.000  C
  H215     1.0000 0.23830  0.87580  0.85550  Biso   1.000  H
  H216     1.0000 0.23080  0.72360  0.89000  Biso   1.000  H
  H217     1.0000 0.29710  0.74810  0.99350  Biso   1.000  H
  O63      1.0000 0.11309  0.30446  0.25829  Biso   1.000  O
  O64      1.0000 0.09997  0.27804  0.35971  Biso   1.000  O
  C280     1.0000 0.08922  0.27894  0.30159  Biso   1.000  C
  C281     1.0000 0.04247  0.24655  0.28364  Biso   1.000  C
  C282     1.0000 0.01381  0.21861  0.33002  Biso   1.000  C
  H218     1.0000 0.02377  0.21913  0.37273  Biso   1.000  H
  C283     1.0000 0.97003  0.18956  0.31385  Biso   1.000  C
  H219     1.0000 0.95037  0.17073  0.34583  Biso   1.000  H
  C284     1.0000 0.95544  0.18817  0.25202  Biso   1.000  C
  C285     1.0000 0.98539  0.21530  0.20441  Biso   1.000  C
  H220     1.0000 0.97607  0.21333  0.16093  Biso   1.000  H
  C286     1.0000 0.02834  0.24478  0.22109  Biso   1.000  C
  H221     1.0000 0.04817  0.26383  0.18933  Biso   1.000  H
  C287     1.0000 0.90849  0.16010  0.23474  Biso   1.000  C
  C288     1.0000 0.88803  0.17909  0.20045  Biso   1.000  C
  H222     1.0000 0.90497  0.20913  0.18883  Biso   1.000  H
  H223     1.0000 0.89747  0.05693  0.22333  Biso   1.000  H
  H224     1.0000 0.96377  0.08143  0.32683  Biso   1.000  H
  O65      1.0000 0.77975  0.63780  0.59163  Biso   1.000  O
  O66      1.0000 0.76663  0.61138  0.69305  Biso   1.000  O
  C289     1.0000 0.75588  0.61228  0.63493  Biso   1.000  C
  C290     1.0000 0.70913  0.57989  0.61698  Biso   1.000  C
  C291     1.0000 0.68047  0.55195  0.66336  Biso   1.000  C
  H225     1.0000 0.69043  0.55247  0.70607  Biso   1.000  H
  C292     1.0000 0.63669  0.52290  0.64719  Biso   1.000  C
  H226     1.0000 0.61703  0.50407  0.67917  Biso   1.000  H
  C293     1.0000 0.62210  0.52151  0.58536  Biso   1.000  C
  C294     1.0000 0.65205  0.54864  0.53775  Biso   1.000  C
  H227     1.0000 0.64273  0.54667  0.49427  Biso   1.000  H
  C295     1.0000 0.69500  0.57812  0.55443  Biso   1.000  C
  H228     1.0000 0.71483  0.59717  0.52267  Biso   1.000  H
  C296     1.0000 0.57515  0.49344  0.56808  Biso   1.000  C
  C297     1.0000 0.55469  0.51243  0.53379  Biso   1.000  C
  H229     1.0000 0.57163  0.54247  0.52217  Biso   1.000  H
  H230     1.0000 0.56413  0.39027  0.55667  Biso   1.000  H
  H231     1.0000 0.63043  0.41477  0.66017  Biso   1.000  H
  O67      1.0000 0.52471  0.55358  0.92496  Biso   1.000  O
  O68      1.0000 0.51141  0.56670  0.02638  Biso   1.000  O
  C298     1.0000 0.52306  0.57745  0.96826  Biso   1.000  C
  C299     1.0000 0.53742  0.62420  0.95031  Biso   1.000  C
  C300     1.0000 0.53814  0.65286  0.99669  Biso   1.000  C
  H232     1.0000 0.52870  0.64290  0.03940  Biso   1.000  H
  C301     1.0000 0.55287  0.69664  0.98052  Biso   1.000  C
  H233     1.0000 0.55370  0.71630  0.01250  Biso   1.000  H
  C302     1.0000 0.56607  0.71123  0.91869  Biso   1.000  C
  C303     1.0000 0.56325  0.68128  0.87108  Biso   1.000  C
  H234     1.0000 0.57060  0.69060  0.82760  Biso   1.000  H
  C304     1.0000 0.54978  0.63833  0.88776  Biso   1.000  C
  H235     1.0000 0.54900  0.61850  0.85600  Biso   1.000  H
  C305     1.0000 0.58495  0.75818  0.90141  Biso   1.000  C
  C306     1.0000 0.62440  0.77864  0.86712  Biso   1.000  C
  H236     1.0000 0.63750  0.76170  0.85550  Biso   1.000  H
  H237     1.0000 0.49280  0.76920  0.89000  Biso   1.000  H
  H238     1.0000 0.45100  0.70290  0.99350  Biso   1.000  H
  O69      1.0000 0.19138  0.88691  0.25829  Biso   1.000  O
  O70      1.0000 0.17808  0.90003  0.35971  Biso   1.000  O
  C307     1.0000 0.18973  0.91078  0.30159  Biso   1.000  C
  C308     1.0000 0.20409  0.95753  0.28364  Biso   1.000  C
  C309     1.0000 0.20481  0.98619  0.33002  Biso   1.000  C
  H239     1.0000 0.19537  0.97623  0.37273  Biso   1.000  H
  C310     1.0000 0.21954  0.02997  0.31385  Biso   1.000  C
  H240     1.0000 0.22037  0.04963  0.34583  Biso   1.000  H
  C311     1.0000 0.23274  0.04456  0.25202  Biso   1.000  C
  C312     1.0000 0.22992  0.01461  0.20441  Biso   1.000  C
  H241     1.0000 0.23727  0.02393  0.16093  Biso   1.000  H
  C313     1.0000 0.21645  0.97166  0.22109  Biso   1.000  C
  H242     1.0000 0.21567  0.95183  0.18933  Biso   1.000  H
  C314     1.0000 0.25162  0.09151  0.23474  Biso   1.000  C
  C315     1.0000 0.29107  0.11197  0.20045  Biso   1.000  C
  H243     1.0000 0.30417  0.09503  0.18883  Biso   1.000  H
  H244     1.0000 0.15947  0.10253  0.22333  Biso   1.000  H
  H245     1.0000 0.11767  0.03623  0.32683  Biso   1.000  H
  O71      1.0000 0.85804  0.22025  0.59163  Biso   1.000  O
  O72      1.0000 0.84474  0.23337  0.69305  Biso   1.000  O
  C316     1.0000 0.85639  0.24412  0.63493  Biso   1.000  C
  C317     1.0000 0.87075  0.29087  0.61698  Biso   1.000  C
  C318     1.0000 0.87147  0.31953  0.66336  Biso   1.000  C
  H246     1.0000 0.86203  0.30957  0.70607  Biso   1.000  H
  C319     1.0000 0.88620  0.36331  0.64719  Biso   1.000  C
  H247     1.0000 0.88703  0.38297  0.67917  Biso   1.000  H
  C320     1.0000 0.89940  0.37790  0.58536  Biso   1.000  C
  C321     1.0000 0.89658  0.34795  0.53775  Biso   1.000  C
  H248     1.0000 0.90393  0.35727  0.49427  Biso   1.000  H
  C322     1.0000 0.88311  0.30500  0.55443  Biso   1.000  C
  H249     1.0000 0.88233  0.28517  0.52267  Biso   1.000  H
  C323     1.0000 0.91828  0.42485  0.56808  Biso   1.000  C
  C324     1.0000 0.95773  0.44531  0.53379  Biso   1.000  C
  H250     1.0000 0.97083  0.42837  0.52217  Biso   1.000  H
  H251     1.0000 0.82613  0.43587  0.55667  Biso   1.000  H
  H252     1.0000 0.78433  0.36957  0.66017  Biso   1.000  H
  Cu1      1.0000 0.50768  0.01536  0.94049  Biso   1.000  Cu
  Cu2      1.0000 0.17435  0.34869  0.27382  Biso   1.000  Cu
  Cu3      1.0000 0.84101  0.68203  0.60716  Biso   1.000  Cu
  Cu4      1.0000 0.98464  0.49232  0.94049  Biso   1.000  Cu
  Cu5      1.0000 0.65131  0.82565  0.27382  Biso   1.000  Cu
  Cu6      1.0000 0.31797  0.15899  0.60716  Biso   1.000  Cu
  Cu7      1.0000 0.50768  0.49232  0.94049  Biso   1.000  Cu
  Cu8      1.0000 0.17435  0.82565  0.27382  Biso   1.000  Cu
  Cu9      1.0000 0.84101  0.15899  0.60716  Biso   1.000  Cu
  Cu10     1.0000 0.01536  0.50768  0.05951  Biso   1.000  Cu
  Cu11     1.0000 0.68203  0.84101  0.39284  Biso   1.000  Cu
  Cu12     1.0000 0.34869  0.17435  0.72618  Biso   1.000  Cu
  Cu13     1.0000 0.49232  0.98464  0.05951  Biso   1.000  Cu
  Cu14     1.0000 0.15899  0.31797  0.39284  Biso   1.000  Cu
  Cu15     1.0000 0.82565  0.65131  0.72618  Biso   1.000  Cu
  Cu16     1.0000 0.49232  0.50768  0.05951  Biso   1.000  Cu
  Cu17     1.0000 0.15899  0.84101  0.39284  Biso   1.000  Cu
  Cu18     1.0000 0.82565  0.17435  0.72618  Biso   1.000  Cu
  O73      1.0000 0.52773  0.76386  0.95385  Biso   1.000  O
  C325     1.0000 0.64541  0.82270  0.84920  Biso   1.000  C
  C326     1.0000 0.56507  0.78253  0.91820  Biso   1.000  C
  C327     1.0000 0.49320  0.74660  0.91790  Biso   1.000  C
  C328     1.0000 0.45030  0.72515  0.96610  Biso   1.000  C
  H253     1.0000 0.42340  0.71170  0.94020  Biso   1.000  H
  O74      1.0000 0.19440  0.09720  0.28718  Biso   1.000  O
  C329     1.0000 0.31208  0.15604  0.18253  Biso   1.000  C
  C330     1.0000 0.23174  0.11587  0.25153  Biso   1.000  C
  C331     1.0000 0.15987  0.07993  0.25123  Biso   1.000  C
  C332     1.0000 0.11697  0.05848  0.29943  Biso   1.000  C
  H254     1.0000 0.09007  0.04503  0.27353  Biso   1.000  H
  O75      1.0000 0.86106  0.43053  0.62052  Biso   1.000  O
  C333     1.0000 0.97874  0.48937  0.51587  Biso   1.000  C
  C334     1.0000 0.89840  0.44920  0.58487  Biso   1.000  C
  C335     1.0000 0.82653  0.41327  0.58457  Biso   1.000  C
  C336     1.0000 0.78363  0.39182  0.63277  Biso   1.000  C
  H255     1.0000 0.75673  0.37837  0.60687  Biso   1.000  H
  O76      1.0000 0.23614  0.76386  0.95385  Biso   1.000  O
  C337     1.0000 0.17730  0.82270  0.84920  Biso   1.000  C
  C338     1.0000 0.21747  0.78253  0.91820  Biso   1.000  C
  C339     1.0000 0.25340  0.74660  0.91790  Biso   1.000  C
  C340     1.0000 0.27485  0.72515  0.96610  Biso   1.000  C
  H256     1.0000 0.28830  0.71170  0.94020  Biso   1.000  H
  O77      1.0000 0.90280  0.09720  0.28718  Biso   1.000  O
  C341     1.0000 0.84396  0.15604  0.18253  Biso   1.000  C
  C342     1.0000 0.88413  0.11587  0.25153  Biso   1.000  C
  C343     1.0000 0.92007  0.07993  0.25123  Biso   1.000  C
  C344     1.0000 0.94152  0.05848  0.29943  Biso   1.000  C
  H257     1.0000 0.95497  0.04503  0.27353  Biso   1.000  H
  O78      1.0000 0.56947  0.43053  0.62052  Biso   1.000  O
  C345     1.0000 0.51063  0.48937  0.51587  Biso   1.000  C
  C346     1.0000 0.55080  0.44920  0.58487  Biso   1.000  C
  C347     1.0000 0.58673  0.41327  0.58457  Biso   1.000  C
  C348     1.0000 0.60818  0.39182  0.63277  Biso   1.000  C
  H258     1.0000 0.62163  0.37837  0.60687  Biso   1.000  H
  O79      1.0000 0.23614  0.47227  0.95385  Biso   1.000  O
  C349     1.0000 0.17730  0.35459  0.84920  Biso   1.000  C
  C350     1.0000 0.21747  0.43493  0.91820  Biso   1.000  C
  C351     1.0000 0.25340  0.50680  0.91790  Biso   1.000  C
  C352     1.0000 0.27485  0.54970  0.96610  Biso   1.000  C
  H259     1.0000 0.28830  0.57660  0.94020  Biso   1.000  H
  O80      1.0000 0.90280  0.80560  0.28718  Biso   1.000  O
  C353     1.0000 0.84396  0.68792  0.18253  Biso   1.000  C
  C354     1.0000 0.88413  0.76826  0.25153  Biso   1.000  C
  C355     1.0000 0.92007  0.84013  0.25123  Biso   1.000  C
  C356     1.0000 0.94152  0.88303  0.29943  Biso   1.000  C
  H260     1.0000 0.95497  0.90993  0.27353  Biso   1.000  H
  O81      1.0000 0.56947  0.13894  0.62052  Biso   1.000  O
  C357     1.0000 0.51063  0.02126  0.51587  Biso   1.000  C
  C358     1.0000 0.55080  0.10160  0.58487  Biso   1.000  C
  C359     1.0000 0.58673  0.17347  0.58457  Biso   1.000  C
  C360     1.0000 0.60818  0.21637  0.63277  Biso   1.000  C
  H261     1.0000 0.62163  0.24327  0.60687  Biso   1.000  H
  O82      1.0000 0.76386  0.52773  0.04615  Biso   1.000  O
  C361     1.0000 0.82270  0.64541  0.15080  Biso   1.000  C
  C362     1.0000 0.78253  0.56507  0.08180  Biso   1.000  C
  C363     1.0000 0.74660  0.49320  0.08210  Biso   1.000  C
  C364     1.0000 0.72515  0.45030  0.03390  Biso   1.000  C
  H262     1.0000 0.71170  0.42340  0.05980  Biso   1.000  H
  O83      1.0000 0.43053  0.86106  0.37948  Biso   1.000  O
  C365     1.0000 0.48937  0.97874  0.48413  Biso   1.000  C
  C366     1.0000 0.44920  0.89840  0.41513  Biso   1.000  C
  C367     1.0000 0.41327  0.82653  0.41543  Biso   1.000  C
  C368     1.0000 0.39182  0.78363  0.36723  Biso   1.000  C
  H263     1.0000 0.37837  0.75673  0.39313  Biso   1.000  H
  O84      1.0000 0.09720  0.19440  0.71282  Biso   1.000  O
  C369     1.0000 0.15604  0.31208  0.81747  Biso   1.000  C
  C370     1.0000 0.11587  0.23174  0.74847  Biso   1.000  C
  C371     1.0000 0.07993  0.15987  0.74877  Biso   1.000  C
  C372     1.0000 0.05848  0.11697  0.70057  Biso   1.000  C
  H264     1.0000 0.04503  0.09007  0.72647  Biso   1.000  H
  O85      1.0000 0.76386  0.23614  0.04615  Biso   1.000  O
  C373     1.0000 0.82270  0.17730  0.15080  Biso   1.000  C
  C374     1.0000 0.78253  0.21747  0.08180  Biso   1.000  C
  C375     1.0000 0.74660  0.25340  0.08210  Biso   1.000  C
  C376     1.0000 0.72515  0.27485  0.03390  Biso   1.000  C
  H265     1.0000 0.71170  0.28830  0.05980  Biso   1.000  H
  O86      1.0000 0.43053  0.56947  0.37948  Biso   1.000  O
  C377     1.0000 0.48937  0.51063  0.48413  Biso   1.000  C
  C378     1.0000 0.44920  0.55080  0.41513  Biso   1.000  C
  C379     1.0000 0.41327  0.58673  0.41543  Biso   1.000  C
  C380     1.0000 0.39182  0.60818  0.36723  Biso   1.000  C
  H266     1.0000 0.37837  0.62163  0.39313  Biso   1.000  H
  O87      1.0000 0.09720  0.90280  0.71282  Biso   1.000  O
  C381     1.0000 0.15604  0.84396  0.81747  Biso   1.000  C
  C382     1.0000 0.11587  0.88413  0.74847  Biso   1.000  C
  C383     1.0000 0.07993  0.92007  0.74877  Biso   1.000  C
  C384     1.0000 0.05848  0.94152  0.70057  Biso   1.000  C
  H267     1.0000 0.04503  0.95497  0.72647  Biso   1.000  H
  O88      1.0000 0.47227  0.23614  0.04615  Biso   1.000  O
  C385     1.0000 0.35459  0.17730  0.15080  Biso   1.000  C
  C386     1.0000 0.43493  0.21747  0.08180  Biso   1.000  C
  C387     1.0000 0.50680  0.25340  0.08210  Biso   1.000  C
  C388     1.0000 0.54970  0.27485  0.03390  Biso   1.000  C
  H268     1.0000 0.57660  0.28830  0.05980  Biso   1.000  H
  O89      1.0000 0.13894  0.56947  0.37948  Biso   1.000  O
  C389     1.0000 0.02126  0.51063  0.48413  Biso   1.000  C
  C390     1.0000 0.10160  0.55080  0.41513  Biso   1.000  C
  C391     1.0000 0.17347  0.58673  0.41543  Biso   1.000  C
  C392     1.0000 0.21637  0.60818  0.36723  Biso   1.000  C
  H269     1.0000 0.24327  0.62163  0.39313  Biso   1.000  H
  O90      1.0000 0.80560  0.90280  0.71282  Biso   1.000  O
  C393     1.0000 0.68792  0.84396  0.81747  Biso   1.000  C
  C394     1.0000 0.76826  0.88413  0.74847  Biso   1.000  C
  C395     1.0000 0.84013  0.92007  0.74877  Biso   1.000  C
  C396     1.0000 0.88303  0.94152  0.70057  Biso   1.000  C
  H270     1.0000 0.90993  0.95497  0.72647  Biso   1.000  H
