data_image0
_cell_length_a       35.2879
_cell_length_b       35.2879
_cell_length_c       20.3241
_cell_angle_alpha    90
_cell_angle_beta     90
_cell_angle_gamma    120

_symmetry_space_group_name_H-M    "P 1"
_symmetry_int_tables_number       1

loop_
  _symmetry_equiv_pos_as_xyz
  'x, y, z'

loop_
  _atom_site_label
  _atom_site_occupancy
  _atom_site_fract_x
  _atom_site_fract_y
  _atom_site_fract_z
  _atom_site_thermal_displace_type
  _atom_site_B_iso_or_equiv
  _atom_site_type_symbol
  O1       1.0000 0.36319  0.22058  0.59197  Biso   1.000  O
  O2       1.0000 0.38864  0.23326  0.69552  Biso   1.000  O
  C1       1.0000 0.38808  0.24461  0.63731  Biso   1.000  C
  C2       1.0000 0.42040  0.29099  0.61927  Biso   1.000  C
  C3       1.0000 0.44828  0.31978  0.66715  Biso   1.000  C
  H1       1.0000 0.44750  0.30980  0.71080  Biso   1.000  H
  C4       1.0000 0.47709  0.36302  0.65086  Biso   1.000  C
  H2       1.0000 0.49640  0.38240  0.68340  Biso   1.000  H
  C5       1.0000 0.47809  0.37829  0.58812  Biso   1.000  C
  C6       1.0000 0.45088  0.34874  0.53949  Biso   1.000  C
  H3       1.0000 0.45240  0.35830  0.49540  Biso   1.000  H
  C7       1.0000 0.42189  0.30567  0.55643  Biso   1.000  C
  H4       1.0000 0.40280  0.28600  0.52400  Biso   1.000  H
  C8       1.0000 0.50548  0.42568  0.57134  Biso   1.000  C
  C9       1.0000 0.48733  0.44550  0.53511  Biso   1.000  C
  H5       1.0000 0.45760  0.42850  0.52180  Biso   1.000  H
  H6       1.0000 0.61120  0.43430  0.55680  Biso   1.000  H
  H7       1.0000 0.63150  0.41380  0.66270  Biso   1.000  H
  O3       1.0000 0.02986  0.55391  0.92530  Biso   1.000  O
  O4       1.0000 0.05531  0.56659  0.02885  Biso   1.000  O
  C10      1.0000 0.05475  0.57794  0.97064  Biso   1.000  C
  C11      1.0000 0.08707  0.62432  0.95260  Biso   1.000  C
  C12      1.0000 0.11495  0.65311  0.00048  Biso   1.000  C
  H8       1.0000 0.11417  0.64313  0.04413  Biso   1.000  H
  C13      1.0000 0.14376  0.69635  0.98419  Biso   1.000  C
  H9       1.0000 0.16307  0.71573  0.01673  Biso   1.000  H
  C14      1.0000 0.14476  0.71162  0.92145  Biso   1.000  C
  C15      1.0000 0.11755  0.68207  0.87282  Biso   1.000  C
  H10      1.0000 0.11907  0.69163  0.82873  Biso   1.000  H
  C16      1.0000 0.08856  0.63900  0.88976  Biso   1.000  C
  H11      1.0000 0.06947  0.61933  0.85733  Biso   1.000  H
  C17      1.0000 0.17215  0.75901  0.90467  Biso   1.000  C
  C18      1.0000 0.15400  0.77883  0.86844  Biso   1.000  C
  H12      1.0000 0.12427  0.76183  0.85513  Biso   1.000  H
  H13      1.0000 0.27787  0.76763  0.89013  Biso   1.000  H
  H14      1.0000 0.29817  0.74713  0.99603  Biso   1.000  H
  O5       1.0000 0.69652  0.88725  0.25864  Biso   1.000  O
  O6       1.0000 0.72197  0.89993  0.36219  Biso   1.000  O
  C19      1.0000 0.72141  0.91128  0.30398  Biso   1.000  C
  C20      1.0000 0.75373  0.95766  0.28594  Biso   1.000  C
  C21      1.0000 0.78161  0.98645  0.33382  Biso   1.000  C
  H15      1.0000 0.78083  0.97647  0.37747  Biso   1.000  H
  C22      1.0000 0.81042  0.02969  0.31753  Biso   1.000  C
  H16      1.0000 0.82973  0.04907  0.35007  Biso   1.000  H
  C23      1.0000 0.81142  0.04496  0.25479  Biso   1.000  C
  C24      1.0000 0.78421  0.01541  0.20616  Biso   1.000  C
  H17      1.0000 0.78573  0.02497  0.16207  Biso   1.000  H
  C25      1.0000 0.75522  0.97234  0.22310  Biso   1.000  C
  H18      1.0000 0.73613  0.95267  0.19067  Biso   1.000  H
  C26      1.0000 0.83881  0.09235  0.23801  Biso   1.000  C
  C27      1.0000 0.82066  0.11217  0.20178  Biso   1.000  C
  H19      1.0000 0.79093  0.09517  0.18847  Biso   1.000  H
  H20      1.0000 0.94453  0.10097  0.22347  Biso   1.000  H
  H21      1.0000 0.96483  0.08047  0.32937  Biso   1.000  H
  O7       1.0000 0.77942  0.14261  0.59197  Biso   1.000  O
  O8       1.0000 0.76674  0.15538  0.69552  Biso   1.000  O
  C28      1.0000 0.75539  0.14347  0.63731  Biso   1.000  C
  C29      1.0000 0.70901  0.12941  0.61927  Biso   1.000  C
  C30      1.0000 0.68022  0.12850  0.66715  Biso   1.000  C
  H22      1.0000 0.69020  0.13770  0.71080  Biso   1.000  H
  C31      1.0000 0.63698  0.11407  0.65086  Biso   1.000  C
  H23      1.0000 0.61760  0.11400  0.68340  Biso   1.000  H
  C32      1.0000 0.62171  0.09980  0.58812  Biso   1.000  C
  C33      1.0000 0.65126  0.10214  0.53949  Biso   1.000  C
  H24      1.0000 0.64170  0.09410  0.49540  Biso   1.000  H
  C34      1.0000 0.69433  0.11622  0.55643  Biso   1.000  C
  H25      1.0000 0.71400  0.11680  0.52400  Biso   1.000  H
  C35      1.0000 0.57432  0.07980  0.57134  Biso   1.000  C
  C36      1.0000 0.55450  0.04183  0.53511  Biso   1.000  C
  H26      1.0000 0.57150  0.02910  0.52180  Biso   1.000  H
  H27      1.0000 0.56570  0.17690  0.55680  Biso   1.000  H
  H28      1.0000 0.58620  0.21770  0.66270  Biso   1.000  H
  O9       1.0000 0.44609  0.47594  0.92530  Biso   1.000  O
  O10      1.0000 0.43341  0.48871  0.02885  Biso   1.000  O
  C37      1.0000 0.42206  0.47680  0.97064  Biso   1.000  C
  C38      1.0000 0.37568  0.46274  0.95260  Biso   1.000  C
  C39      1.0000 0.34689  0.46183  0.00048  Biso   1.000  C
  H29      1.0000 0.35687  0.47103  0.04413  Biso   1.000  H
  C40      1.0000 0.30365  0.44740  0.98419  Biso   1.000  C
  H30      1.0000 0.28427  0.44733  0.01673  Biso   1.000  H
  C41      1.0000 0.28838  0.43313  0.92145  Biso   1.000  C
  C42      1.0000 0.31793  0.43547  0.87282  Biso   1.000  C
  H31      1.0000 0.30837  0.42743  0.82873  Biso   1.000  H
  C43      1.0000 0.36100  0.44955  0.88976  Biso   1.000  C
  H32      1.0000 0.38067  0.45013  0.85733  Biso   1.000  H
  C44      1.0000 0.24099  0.41313  0.90467  Biso   1.000  C
  C45      1.0000 0.22117  0.37516  0.86844  Biso   1.000  C
  H33      1.0000 0.23817  0.36243  0.85513  Biso   1.000  H
  H34      1.0000 0.23237  0.51023  0.89013  Biso   1.000  H
  H35      1.0000 0.25287  0.55103  0.99603  Biso   1.000  H
  O11      1.0000 0.11275  0.80928  0.25864  Biso   1.000  O
  O12      1.0000 0.10007  0.82205  0.36219  Biso   1.000  O
  C46      1.0000 0.08872  0.81014  0.30398  Biso   1.000  C
  C47      1.0000 0.04234  0.79608  0.28594  Biso   1.000  C
  C48      1.0000 0.01355  0.79517  0.33382  Biso   1.000  C
  H36      1.0000 0.02353  0.80437  0.37747  Biso   1.000  H
  C49      1.0000 0.97031  0.78074  0.31753  Biso   1.000  C
  H37      1.0000 0.95093  0.78067  0.35007  Biso   1.000  H
  C50      1.0000 0.95504  0.76647  0.25479  Biso   1.000  C
  C51      1.0000 0.98459  0.76881  0.20616  Biso   1.000  C
  H38      1.0000 0.97503  0.76077  0.16207  Biso   1.000  H
  C52      1.0000 0.02766  0.78289  0.22310  Biso   1.000  C
  H39      1.0000 0.04733  0.78347  0.19067  Biso   1.000  H
  C53      1.0000 0.90765  0.74647  0.23801  Biso   1.000  C
  C54      1.0000 0.88783  0.70850  0.20178  Biso   1.000  C
  H40      1.0000 0.90483  0.69577  0.18847  Biso   1.000  H
  H41      1.0000 0.89903  0.84357  0.22347  Biso   1.000  H
  H42      1.0000 0.91953  0.88437  0.32937  Biso   1.000  H
  O13      1.0000 0.85739  0.63681  0.59197  Biso   1.000  O
  O14      1.0000 0.84462  0.61136  0.69552  Biso   1.000  O
  C55      1.0000 0.85653  0.61192  0.63731  Biso   1.000  C
  C56      1.0000 0.87059  0.57960  0.61927  Biso   1.000  C
  C57      1.0000 0.87150  0.55172  0.66715  Biso   1.000  C
  H43      1.0000 0.86230  0.55250  0.71080  Biso   1.000  H
  C58      1.0000 0.88593  0.52291  0.65086  Biso   1.000  C
  H44      1.0000 0.88600  0.50360  0.68340  Biso   1.000  H
  C59      1.0000 0.90020  0.52191  0.58812  Biso   1.000  C
  C60      1.0000 0.89786  0.54912  0.53949  Biso   1.000  C
  H45      1.0000 0.90590  0.54760  0.49540  Biso   1.000  H
  C61      1.0000 0.88378  0.57811  0.55643  Biso   1.000  C
  H46      1.0000 0.88320  0.59720  0.52400  Biso   1.000  H
  C62      1.0000 0.92020  0.49452  0.57134  Biso   1.000  C
  C63      1.0000 0.95817  0.51267  0.53511  Biso   1.000  C
  H47      1.0000 0.97090  0.54240  0.52180  Biso   1.000  H
  H48      1.0000 0.82310  0.38880  0.55680  Biso   1.000  H
  H49      1.0000 0.78230  0.36850  0.66270  Biso   1.000  H
  O15      1.0000 0.52406  0.97014  0.92530  Biso   1.000  O
  O16      1.0000 0.51129  0.94469  0.02885  Biso   1.000  O
  C64      1.0000 0.52320  0.94525  0.97064  Biso   1.000  C
  C65      1.0000 0.53726  0.91293  0.95260  Biso   1.000  C
  C66      1.0000 0.53817  0.88505  0.00048  Biso   1.000  C
  H50      1.0000 0.52897  0.88583  0.04413  Biso   1.000  H
  C67      1.0000 0.55260  0.85624  0.98419  Biso   1.000  C
  H51      1.0000 0.55267  0.83693  0.01673  Biso   1.000  H
  C68      1.0000 0.56687  0.85524  0.92145  Biso   1.000  C
  C69      1.0000 0.56453  0.88245  0.87282  Biso   1.000  C
  H52      1.0000 0.57257  0.88093  0.82873  Biso   1.000  H
  C70      1.0000 0.55045  0.91144  0.88976  Biso   1.000  C
  H53      1.0000 0.54987  0.93053  0.85733  Biso   1.000  H
  C71      1.0000 0.58687  0.82785  0.90467  Biso   1.000  C
  C72      1.0000 0.62484  0.84600  0.86844  Biso   1.000  C
  H54      1.0000 0.63757  0.87573  0.85513  Biso   1.000  H
  H55      1.0000 0.48977  0.72213  0.89013  Biso   1.000  H
  H56      1.0000 0.44897  0.70183  0.99603  Biso   1.000  H
  O17      1.0000 0.19072  0.30348  0.25864  Biso   1.000  O
  O18      1.0000 0.17795  0.27803  0.36219  Biso   1.000  O
  C73      1.0000 0.18986  0.27859  0.30398  Biso   1.000  C
  C74      1.0000 0.20392  0.24627  0.28594  Biso   1.000  C
  C75      1.0000 0.20483  0.21839  0.33382  Biso   1.000  C
  H57      1.0000 0.19563  0.21917  0.37747  Biso   1.000  H
  C76      1.0000 0.21926  0.18958  0.31753  Biso   1.000  C
  H58      1.0000 0.21933  0.17027  0.35007  Biso   1.000  H
  C77      1.0000 0.23353  0.18858  0.25479  Biso   1.000  C
  C78      1.0000 0.23119  0.21579  0.20616  Biso   1.000  C
  H59      1.0000 0.23923  0.21427  0.16207  Biso   1.000  H
  C79      1.0000 0.21711  0.24478  0.22310  Biso   1.000  C
  H60      1.0000 0.21653  0.26387  0.19067  Biso   1.000  H
  C80      1.0000 0.25353  0.16119  0.23801  Biso   1.000  C
  C81      1.0000 0.29150  0.17934  0.20178  Biso   1.000  C
  H61      1.0000 0.30423  0.20907  0.18847  Biso   1.000  H
  H62      1.0000 0.15643  0.05547  0.22347  Biso   1.000  H
  H63      1.0000 0.11563  0.03517  0.32937  Biso   1.000  H
  O19      1.0000 0.22058  0.36319  0.40803  Biso   1.000  O
  O20      1.0000 0.23326  0.38864  0.30448  Biso   1.000  O
  C82      1.0000 0.24461  0.38808  0.36269  Biso   1.000  C
  C83      1.0000 0.29099  0.42040  0.38073  Biso   1.000  C
  C84      1.0000 0.31978  0.44828  0.33285  Biso   1.000  C
  H64      1.0000 0.30980  0.44750  0.28920  Biso   1.000  H
  C85      1.0000 0.36302  0.47709  0.34914  Biso   1.000  C
  H65      1.0000 0.38240  0.49640  0.31660  Biso   1.000  H
  C86      1.0000 0.37829  0.47809  0.41188  Biso   1.000  C
  C87      1.0000 0.34874  0.45088  0.46051  Biso   1.000  C
  H66      1.0000 0.35830  0.45240  0.50460  Biso   1.000  H
  C88      1.0000 0.30567  0.42189  0.44357  Biso   1.000  C
  H67      1.0000 0.28600  0.40280  0.47600  Biso   1.000  H
  C89      1.0000 0.42568  0.50548  0.42866  Biso   1.000  C
  C90      1.0000 0.44550  0.48733  0.46489  Biso   1.000  C
  H68      1.0000 0.42850  0.45760  0.47820  Biso   1.000  H
  H69      1.0000 0.43430  0.61120  0.44320  Biso   1.000  H
  H70      1.0000 0.41380  0.63150  0.33730  Biso   1.000  H
  O21      1.0000 0.88725  0.69652  0.74136  Biso   1.000  O
  O22      1.0000 0.89993  0.72197  0.63781  Biso   1.000  O
  C91      1.0000 0.91128  0.72141  0.69602  Biso   1.000  C
  C92      1.0000 0.95766  0.75373  0.71406  Biso   1.000  C
  C93      1.0000 0.98645  0.78161  0.66618  Biso   1.000  C
  H71      1.0000 0.97647  0.78083  0.62253  Biso   1.000  H
  C94      1.0000 0.02969  0.81042  0.68247  Biso   1.000  C
  H72      1.0000 0.04907  0.82973  0.64993  Biso   1.000  H
  C95      1.0000 0.04496  0.81142  0.74521  Biso   1.000  C
  C96      1.0000 0.01541  0.78421  0.79384  Biso   1.000  C
  H73      1.0000 0.02497  0.78573  0.83793  Biso   1.000  H
  C97      1.0000 0.97234  0.75522  0.77690  Biso   1.000  C
  H74      1.0000 0.95267  0.73613  0.80933  Biso   1.000  H
  C98      1.0000 0.09235  0.83881  0.76199  Biso   1.000  C
  C99      1.0000 0.11217  0.82066  0.79822  Biso   1.000  C
  H75      1.0000 0.09517  0.79093  0.81153  Biso   1.000  H
  H76      1.0000 0.10097  0.94453  0.77653  Biso   1.000  H
  H77      1.0000 0.08047  0.96483  0.67063  Biso   1.000  H
  O23      1.0000 0.55391  0.02986  0.07470  Biso   1.000  O
  O24      1.0000 0.56659  0.05531  0.97115  Biso   1.000  O
  C100     1.0000 0.57794  0.05475  0.02936  Biso   1.000  C
  C101     1.0000 0.62432  0.08707  0.04740  Biso   1.000  C
  C102     1.0000 0.65311  0.11495  0.99952  Biso   1.000  C
  H78      1.0000 0.64313  0.11417  0.95587  Biso   1.000  H
  C103     1.0000 0.69635  0.14376  0.01581  Biso   1.000  C
  H79      1.0000 0.71573  0.16307  0.98327  Biso   1.000  H
  C104     1.0000 0.71162  0.14476  0.07855  Biso   1.000  C
  C105     1.0000 0.68207  0.11755  0.12718  Biso   1.000  C
  H80      1.0000 0.69163  0.11907  0.17127  Biso   1.000  H
  C106     1.0000 0.63900  0.08856  0.11024  Biso   1.000  C
  H81      1.0000 0.61933  0.06947  0.14267  Biso   1.000  H
  C107     1.0000 0.75901  0.17215  0.09533  Biso   1.000  C
  C108     1.0000 0.77883  0.15400  0.13156  Biso   1.000  C
  H82      1.0000 0.76183  0.12427  0.14487  Biso   1.000  H
  H83      1.0000 0.76763  0.27787  0.10987  Biso   1.000  H
  H84      1.0000 0.74713  0.29817  0.00397  Biso   1.000  H
  O25      1.0000 0.14261  0.77942  0.40803  Biso   1.000  O
  O26      1.0000 0.15538  0.76674  0.30448  Biso   1.000  O
  C109     1.0000 0.14347  0.75539  0.36269  Biso   1.000  C
  C110     1.0000 0.12941  0.70901  0.38073  Biso   1.000  C
  C111     1.0000 0.12850  0.68022  0.33285  Biso   1.000  C
  H85      1.0000 0.13770  0.69020  0.28920  Biso   1.000  H
  C112     1.0000 0.11407  0.63698  0.34914  Biso   1.000  C
  H86      1.0000 0.11400  0.61760  0.31660  Biso   1.000  H
  C113     1.0000 0.09980  0.62171  0.41188  Biso   1.000  C
  C114     1.0000 0.10214  0.65126  0.46051  Biso   1.000  C
  H87      1.0000 0.09410  0.64170  0.50460  Biso   1.000  H
  C115     1.0000 0.11622  0.69433  0.44357  Biso   1.000  C
  H88      1.0000 0.11680  0.71400  0.47600  Biso   1.000  H
  C116     1.0000 0.07980  0.57432  0.42866  Biso   1.000  C
  C117     1.0000 0.04183  0.55450  0.46489  Biso   1.000  C
  H89      1.0000 0.02910  0.57150  0.47820  Biso   1.000  H
  H90      1.0000 0.17690  0.56570  0.44320  Biso   1.000  H
  H91      1.0000 0.21770  0.58620  0.33730  Biso   1.000  H
  O27      1.0000 0.80928  0.11275  0.74136  Biso   1.000  O
  O28      1.0000 0.82205  0.10007  0.63781  Biso   1.000  O
  C118     1.0000 0.81014  0.08872  0.69602  Biso   1.000  C
  C119     1.0000 0.79608  0.04234  0.71406  Biso   1.000  C
  C120     1.0000 0.79517  0.01355  0.66618  Biso   1.000  C
  H92      1.0000 0.80437  0.02353  0.62253  Biso   1.000  H
  C121     1.0000 0.78074  0.97031  0.68247  Biso   1.000  C
  H93      1.0000 0.78067  0.95093  0.64993  Biso   1.000  H
  C122     1.0000 0.76647  0.95504  0.74521  Biso   1.000  C
  C123     1.0000 0.76881  0.98459  0.79384  Biso   1.000  C
  H94      1.0000 0.76077  0.97503  0.83793  Biso   1.000  H
  C124     1.0000 0.78289  0.02766  0.77690  Biso   1.000  C
  H95      1.0000 0.78347  0.04733  0.80933  Biso   1.000  H
  C125     1.0000 0.74647  0.90765  0.76199  Biso   1.000  C
  C126     1.0000 0.70850  0.88783  0.79822  Biso   1.000  C
  H96      1.0000 0.69577  0.90483  0.81153  Biso   1.000  H
  H97      1.0000 0.84357  0.89903  0.77653  Biso   1.000  H
  H98      1.0000 0.88437  0.91953  0.67063  Biso   1.000  H
  O29      1.0000 0.47594  0.44609  0.07470  Biso   1.000  O
  O30      1.0000 0.48871  0.43341  0.97115  Biso   1.000  O
  C127     1.0000 0.47680  0.42206  0.02936  Biso   1.000  C
  C128     1.0000 0.46274  0.37568  0.04740  Biso   1.000  C
  C129     1.0000 0.46183  0.34689  0.99952  Biso   1.000  C
  H99      1.0000 0.47103  0.35687  0.95587  Biso   1.000  H
  C130     1.0000 0.44740  0.30365  0.01581  Biso   1.000  C
  H100     1.0000 0.44733  0.28427  0.98327  Biso   1.000  H
  C131     1.0000 0.43313  0.28838  0.07855  Biso   1.000  C
  C132     1.0000 0.43547  0.31793  0.12718  Biso   1.000  C
  H101     1.0000 0.42743  0.30837  0.17127  Biso   1.000  H
  C133     1.0000 0.44955  0.36100  0.11024  Biso   1.000  C
  H102     1.0000 0.45013  0.38067  0.14267  Biso   1.000  H
  C134     1.0000 0.41313  0.24099  0.09533  Biso   1.000  C
  C135     1.0000 0.37516  0.22117  0.13156  Biso   1.000  C
  H103     1.0000 0.36243  0.23817  0.14487  Biso   1.000  H
  H104     1.0000 0.51023  0.23237  0.10987  Biso   1.000  H
  H105     1.0000 0.55103  0.25287  0.00397  Biso   1.000  H
  O31      1.0000 0.63681  0.85739  0.40803  Biso   1.000  O
  O32      1.0000 0.61136  0.84462  0.30448  Biso   1.000  O
  C136     1.0000 0.61192  0.85653  0.36269  Biso   1.000  C
  C137     1.0000 0.57960  0.87059  0.38073  Biso   1.000  C
  C138     1.0000 0.55172  0.87150  0.33285  Biso   1.000  C
  H106     1.0000 0.55250  0.86230  0.28920  Biso   1.000  H
  C139     1.0000 0.52291  0.88593  0.34914  Biso   1.000  C
  H107     1.0000 0.50360  0.88600  0.31660  Biso   1.000  H
  C140     1.0000 0.52191  0.90020  0.41188  Biso   1.000  C
  C141     1.0000 0.54912  0.89786  0.46051  Biso   1.000  C
  H108     1.0000 0.54760  0.90590  0.50460  Biso   1.000  H
  C142     1.0000 0.57811  0.88378  0.44357  Biso   1.000  C
  H109     1.0000 0.59720  0.88320  0.47600  Biso   1.000  H
  C143     1.0000 0.49452  0.92020  0.42866  Biso   1.000  C
  C144     1.0000 0.51267  0.95817  0.46489  Biso   1.000  C
  H110     1.0000 0.54240  0.97090  0.47820  Biso   1.000  H
  H111     1.0000 0.38880  0.82310  0.44320  Biso   1.000  H
  H112     1.0000 0.36850  0.78230  0.33730  Biso   1.000  H
  O33      1.0000 0.30348  0.19072  0.74136  Biso   1.000  O
  O34      1.0000 0.27803  0.17795  0.63781  Biso   1.000  O
  C145     1.0000 0.27859  0.18986  0.69602  Biso   1.000  C
  C146     1.0000 0.24627  0.20392  0.71406  Biso   1.000  C
  C147     1.0000 0.21839  0.20483  0.66618  Biso   1.000  C
  H113     1.0000 0.21917  0.19563  0.62253  Biso   1.000  H
  C148     1.0000 0.18958  0.21926  0.68247  Biso   1.000  C
  H114     1.0000 0.17027  0.21933  0.64993  Biso   1.000  H
  C149     1.0000 0.18858  0.23353  0.74521  Biso   1.000  C
  C150     1.0000 0.21579  0.23119  0.79384  Biso   1.000  C
  H115     1.0000 0.21427  0.23923  0.83793  Biso   1.000  H
  C151     1.0000 0.24478  0.21711  0.77690  Biso   1.000  C
  H116     1.0000 0.26387  0.21653  0.80933  Biso   1.000  H
  C152     1.0000 0.16119  0.25353  0.76199  Biso   1.000  C
  C153     1.0000 0.17934  0.29150  0.79822  Biso   1.000  C
  H117     1.0000 0.20907  0.30423  0.81153  Biso   1.000  H
  H118     1.0000 0.05547  0.15643  0.77653  Biso   1.000  H
  H119     1.0000 0.03517  0.11563  0.67063  Biso   1.000  H
  O35      1.0000 0.97014  0.52406  0.07470  Biso   1.000  O
  O36      1.0000 0.94469  0.51129  0.97115  Biso   1.000  O
  C154     1.0000 0.94525  0.52320  0.02936  Biso   1.000  C
  C155     1.0000 0.91293  0.53726  0.04740  Biso   1.000  C
  C156     1.0000 0.88505  0.53817  0.99952  Biso   1.000  C
  H120     1.0000 0.88583  0.52897  0.95587  Biso   1.000  H
  C157     1.0000 0.85624  0.55260  0.01581  Biso   1.000  C
  H121     1.0000 0.83693  0.55267  0.98327  Biso   1.000  H
  C158     1.0000 0.85524  0.56687  0.07855  Biso   1.000  C
  C159     1.0000 0.88245  0.56453  0.12718  Biso   1.000  C
  H122     1.0000 0.88093  0.57257  0.17127  Biso   1.000  H
  C160     1.0000 0.91144  0.55045  0.11024  Biso   1.000  C
  H123     1.0000 0.93053  0.54987  0.14267  Biso   1.000  H
  C161     1.0000 0.82785  0.58687  0.09533  Biso   1.000  C
  C162     1.0000 0.84600  0.62484  0.13156  Biso   1.000  C
  H124     1.0000 0.87573  0.63757  0.14487  Biso   1.000  H
  H125     1.0000 0.72213  0.48977  0.10987  Biso   1.000  H
  H126     1.0000 0.70183  0.44897  0.00397  Biso   1.000  H
  O37      1.0000 0.63681  0.77942  0.40803  Biso   1.000  O
  O38      1.0000 0.61136  0.76674  0.30448  Biso   1.000  O
  C163     1.0000 0.61192  0.75539  0.36269  Biso   1.000  C
  C164     1.0000 0.57960  0.70901  0.38073  Biso   1.000  C
  C165     1.0000 0.55172  0.68022  0.33285  Biso   1.000  C
  H127     1.0000 0.55250  0.69020  0.28920  Biso   1.000  H
  C166     1.0000 0.52291  0.63698  0.34914  Biso   1.000  C
  H128     1.0000 0.50360  0.61760  0.31660  Biso   1.000  H
  C167     1.0000 0.52191  0.62171  0.41188  Biso   1.000  C
  C168     1.0000 0.54912  0.65126  0.46051  Biso   1.000  C
  H129     1.0000 0.54760  0.64170  0.50460  Biso   1.000  H
  C169     1.0000 0.57811  0.69433  0.44357  Biso   1.000  C
  H130     1.0000 0.59720  0.71400  0.47600  Biso   1.000  H
  C170     1.0000 0.49452  0.57432  0.42866  Biso   1.000  C
  C171     1.0000 0.51267  0.55450  0.46489  Biso   1.000  C
  H131     1.0000 0.54240  0.57150  0.47820  Biso   1.000  H
  H132     1.0000 0.38880  0.56570  0.44320  Biso   1.000  H
  H133     1.0000 0.36850  0.58620  0.33730  Biso   1.000  H
  O39      1.0000 0.30348  0.11275  0.74136  Biso   1.000  O
  O40      1.0000 0.27803  0.10007  0.63781  Biso   1.000  O
  C172     1.0000 0.27859  0.08872  0.69602  Biso   1.000  C
  C173     1.0000 0.24627  0.04234  0.71406  Biso   1.000  C
  C174     1.0000 0.21839  0.01355  0.66618  Biso   1.000  C
  H134     1.0000 0.21917  0.02353  0.62253  Biso   1.000  H
  C175     1.0000 0.18958  0.97031  0.68247  Biso   1.000  C
  H135     1.0000 0.17027  0.95093  0.64993  Biso   1.000  H
  C176     1.0000 0.18858  0.95504  0.74521  Biso   1.000  C
  C177     1.0000 0.21579  0.98459  0.79384  Biso   1.000  C
  H136     1.0000 0.21427  0.97503  0.83793  Biso   1.000  H
  C178     1.0000 0.24478  0.02766  0.77690  Biso   1.000  C
  H137     1.0000 0.26387  0.04733  0.80933  Biso   1.000  H
  C179     1.0000 0.16119  0.90765  0.76199  Biso   1.000  C
  C180     1.0000 0.17934  0.88783  0.79822  Biso   1.000  C
  H138     1.0000 0.20907  0.90483  0.81153  Biso   1.000  H
  H139     1.0000 0.05547  0.89903  0.77653  Biso   1.000  H
  H140     1.0000 0.03517  0.91953  0.67063  Biso   1.000  H
  O41      1.0000 0.97014  0.44609  0.07470  Biso   1.000  O
  O42      1.0000 0.94469  0.43341  0.97115  Biso   1.000  O
  C181     1.0000 0.94525  0.42206  0.02936  Biso   1.000  C
  C182     1.0000 0.91293  0.37568  0.04740  Biso   1.000  C
  C183     1.0000 0.88505  0.34689  0.99952  Biso   1.000  C
  H141     1.0000 0.88583  0.35687  0.95587  Biso   1.000  H
  C184     1.0000 0.85624  0.30365  0.01581  Biso   1.000  C
  H142     1.0000 0.83693  0.28427  0.98327  Biso   1.000  H
  C185     1.0000 0.85524  0.28838  0.07855  Biso   1.000  C
  C186     1.0000 0.88245  0.31793  0.12718  Biso   1.000  C
  H143     1.0000 0.88093  0.30837  0.17127  Biso   1.000  H
  C187     1.0000 0.91144  0.36100  0.11024  Biso   1.000  C
  H144     1.0000 0.93053  0.38067  0.14267  Biso   1.000  H
  C188     1.0000 0.82785  0.24099  0.09533  Biso   1.000  C
  C189     1.0000 0.84600  0.22117  0.13156  Biso   1.000  C
  H145     1.0000 0.87573  0.23817  0.14487  Biso   1.000  H
  H146     1.0000 0.72213  0.23237  0.10987  Biso   1.000  H
  H147     1.0000 0.70183  0.25287  0.00397  Biso   1.000  H
  O43      1.0000 0.22058  0.85739  0.40803  Biso   1.000  O
  O44      1.0000 0.23326  0.84462  0.30448  Biso   1.000  O
  C190     1.0000 0.24461  0.85653  0.36269  Biso   1.000  C
  C191     1.0000 0.29099  0.87059  0.38073  Biso   1.000  C
  C192     1.0000 0.31978  0.87150  0.33285  Biso   1.000  C
  H148     1.0000 0.30980  0.86230  0.28920  Biso   1.000  H
  C193     1.0000 0.36302  0.88593  0.34914  Biso   1.000  C
  H149     1.0000 0.38240  0.88600  0.31660  Biso   1.000  H
  C194     1.0000 0.37829  0.90020  0.41188  Biso   1.000  C
  C195     1.0000 0.34874  0.89786  0.46051  Biso   1.000  C
  H150     1.0000 0.35830  0.90590  0.50460  Biso   1.000  H
  C196     1.0000 0.30567  0.88378  0.44357  Biso   1.000  C
  H151     1.0000 0.28600  0.88320  0.47600  Biso   1.000  H
  C197     1.0000 0.42568  0.92020  0.42866  Biso   1.000  C
  C198     1.0000 0.44550  0.95817  0.46489  Biso   1.000  C
  H152     1.0000 0.42850  0.97090  0.47820  Biso   1.000  H
  H153     1.0000 0.43430  0.82310  0.44320  Biso   1.000  H
  H154     1.0000 0.41380  0.78230  0.33730  Biso   1.000  H
  O45      1.0000 0.88725  0.19072  0.74136  Biso   1.000  O
  O46      1.0000 0.89993  0.17795  0.63781  Biso   1.000  O
  C199     1.0000 0.91128  0.18986  0.69602  Biso   1.000  C
  C200     1.0000 0.95766  0.20392  0.71406  Biso   1.000  C
  C201     1.0000 0.98645  0.20483  0.66618  Biso   1.000  C
  H155     1.0000 0.97647  0.19563  0.62253  Biso   1.000  H
  C202     1.0000 0.02969  0.21926  0.68247  Biso   1.000  C
  H156     1.0000 0.04907  0.21933  0.64993  Biso   1.000  H
  C203     1.0000 0.04496  0.23353  0.74521  Biso   1.000  C
  C204     1.0000 0.01541  0.23119  0.79384  Biso   1.000  C
  H157     1.0000 0.02497  0.23923  0.83793  Biso   1.000  H
  C205     1.0000 0.97234  0.21711  0.77690  Biso   1.000  C
  H158     1.0000 0.95267  0.21653  0.80933  Biso   1.000  H
  C206     1.0000 0.09235  0.25353  0.76199  Biso   1.000  C
  C207     1.0000 0.11217  0.29150  0.79822  Biso   1.000  C
  H159     1.0000 0.09517  0.30423  0.81153  Biso   1.000  H
  H160     1.0000 0.10097  0.15643  0.77653  Biso   1.000  H
  H161     1.0000 0.08047  0.11563  0.67063  Biso   1.000  H
  O47      1.0000 0.55391  0.52406  0.07470  Biso   1.000  O
  O48      1.0000 0.56659  0.51129  0.97115  Biso   1.000  O
  C208     1.0000 0.57794  0.52320  0.02936  Biso   1.000  C
  C209     1.0000 0.62432  0.53726  0.04740  Biso   1.000  C
  C210     1.0000 0.65311  0.53817  0.99952  Biso   1.000  C
  H162     1.0000 0.64313  0.52897  0.95587  Biso   1.000  H
  C211     1.0000 0.69635  0.55260  0.01581  Biso   1.000  C
  H163     1.0000 0.71573  0.55267  0.98327  Biso   1.000  H
  C212     1.0000 0.71162  0.56687  0.07855  Biso   1.000  C
  C213     1.0000 0.68207  0.56453  0.12718  Biso   1.000  C
  H164     1.0000 0.69163  0.57257  0.17127  Biso   1.000  H
  C214     1.0000 0.63900  0.55045  0.11024  Biso   1.000  C
  H165     1.0000 0.61933  0.54987  0.14267  Biso   1.000  H
  C215     1.0000 0.75901  0.58687  0.09533  Biso   1.000  C
  C216     1.0000 0.77883  0.62484  0.13156  Biso   1.000  C
  H166     1.0000 0.76183  0.63757  0.14487  Biso   1.000  H
  H167     1.0000 0.76763  0.48977  0.10987  Biso   1.000  H
  H168     1.0000 0.74713  0.44897  0.00397  Biso   1.000  H
  O49      1.0000 0.14261  0.36319  0.40803  Biso   1.000  O
  O50      1.0000 0.15538  0.38864  0.30448  Biso   1.000  O
  C217     1.0000 0.14347  0.38808  0.36269  Biso   1.000  C
  C218     1.0000 0.12941  0.42040  0.38073  Biso   1.000  C
  C219     1.0000 0.12850  0.44828  0.33285  Biso   1.000  C
  H169     1.0000 0.13770  0.44750  0.28920  Biso   1.000  H
  C220     1.0000 0.11407  0.47709  0.34914  Biso   1.000  C
  H170     1.0000 0.11400  0.49640  0.31660  Biso   1.000  H
  C221     1.0000 0.09980  0.47809  0.41188  Biso   1.000  C
  C222     1.0000 0.10214  0.45088  0.46051  Biso   1.000  C
  H171     1.0000 0.09410  0.45240  0.50460  Biso   1.000  H
  C223     1.0000 0.11622  0.42189  0.44357  Biso   1.000  C
  H172     1.0000 0.11680  0.40280  0.47600  Biso   1.000  H
  C224     1.0000 0.07980  0.50548  0.42866  Biso   1.000  C
  C225     1.0000 0.04183  0.48733  0.46489  Biso   1.000  C
  H173     1.0000 0.02910  0.45760  0.47820  Biso   1.000  H
  H174     1.0000 0.17690  0.61120  0.44320  Biso   1.000  H
  H175     1.0000 0.21770  0.63150  0.33730  Biso   1.000  H
  O51      1.0000 0.80928  0.69652  0.74136  Biso   1.000  O
  O52      1.0000 0.82205  0.72197  0.63781  Biso   1.000  O
  C226     1.0000 0.81014  0.72141  0.69602  Biso   1.000  C
  C227     1.0000 0.79608  0.75373  0.71406  Biso   1.000  C
  C228     1.0000 0.79517  0.78161  0.66618  Biso   1.000  C
  H176     1.0000 0.80437  0.78083  0.62253  Biso   1.000  H
  C229     1.0000 0.78074  0.81042  0.68247  Biso   1.000  C
  H177     1.0000 0.78067  0.82973  0.64993  Biso   1.000  H
  C230     1.0000 0.76647  0.81142  0.74521  Biso   1.000  C
  C231     1.0000 0.76881  0.78421  0.79384  Biso   1.000  C
  H178     1.0000 0.76077  0.78573  0.83793  Biso   1.000  H
  C232     1.0000 0.78289  0.75522  0.77690  Biso   1.000  C
  H179     1.0000 0.78347  0.73613  0.80933  Biso   1.000  H
  C233     1.0000 0.74647  0.83881  0.76199  Biso   1.000  C
  C234     1.0000 0.70850  0.82066  0.79822  Biso   1.000  C
  H180     1.0000 0.69577  0.79093  0.81153  Biso   1.000  H
  H181     1.0000 0.84357  0.94453  0.77653  Biso   1.000  H
  H182     1.0000 0.88437  0.96483  0.67063  Biso   1.000  H
  O53      1.0000 0.47594  0.02986  0.07470  Biso   1.000  O
  O54      1.0000 0.48871  0.05531  0.97115  Biso   1.000  O
  C235     1.0000 0.47680  0.05475  0.02936  Biso   1.000  C
  C236     1.0000 0.46274  0.08707  0.04740  Biso   1.000  C
  C237     1.0000 0.46183  0.11495  0.99952  Biso   1.000  C
  H183     1.0000 0.47103  0.11417  0.95587  Biso   1.000  H
  C238     1.0000 0.44740  0.14376  0.01581  Biso   1.000  C
  H184     1.0000 0.44733  0.16307  0.98327  Biso   1.000  H
  C239     1.0000 0.43313  0.14476  0.07855  Biso   1.000  C
  C240     1.0000 0.43547  0.11755  0.12718  Biso   1.000  C
  H185     1.0000 0.42743  0.11907  0.17127  Biso   1.000  H
  C241     1.0000 0.44955  0.08856  0.11024  Biso   1.000  C
  H186     1.0000 0.45013  0.06947  0.14267  Biso   1.000  H
  C242     1.0000 0.41313  0.17215  0.09533  Biso   1.000  C
  C243     1.0000 0.37516  0.15400  0.13156  Biso   1.000  C
  H187     1.0000 0.36243  0.12427  0.14487  Biso   1.000  H
  H188     1.0000 0.51023  0.27787  0.10987  Biso   1.000  H
  H189     1.0000 0.55103  0.29817  0.00397  Biso   1.000  H
  O55      1.0000 0.77942  0.63681  0.59197  Biso   1.000  O
  O56      1.0000 0.76674  0.61136  0.69552  Biso   1.000  O
  C244     1.0000 0.75539  0.61192  0.63731  Biso   1.000  C
  C245     1.0000 0.70901  0.57960  0.61927  Biso   1.000  C
  C246     1.0000 0.68022  0.55172  0.66715  Biso   1.000  C
  H190     1.0000 0.69020  0.55250  0.71080  Biso   1.000  H
  C247     1.0000 0.63698  0.52291  0.65086  Biso   1.000  C
  H191     1.0000 0.61760  0.50360  0.68340  Biso   1.000  H
  C248     1.0000 0.62171  0.52191  0.58812  Biso   1.000  C
  C249     1.0000 0.65126  0.54912  0.53949  Biso   1.000  C
  H192     1.0000 0.64170  0.54760  0.49540  Biso   1.000  H
  C250     1.0000 0.69433  0.57811  0.55643  Biso   1.000  C
  H193     1.0000 0.71400  0.59720  0.52400  Biso   1.000  H
  C251     1.0000 0.57432  0.49452  0.57134  Biso   1.000  C
  C252     1.0000 0.55450  0.51267  0.53511  Biso   1.000  C
  H194     1.0000 0.57150  0.54240  0.52180  Biso   1.000  H
  H195     1.0000 0.56570  0.38880  0.55680  Biso   1.000  H
  H196     1.0000 0.58620  0.36850  0.66270  Biso   1.000  H
  O57      1.0000 0.44609  0.97014  0.92530  Biso   1.000  O
  O58      1.0000 0.43341  0.94469  0.02885  Biso   1.000  O
  C253     1.0000 0.42206  0.94525  0.97064  Biso   1.000  C
  C254     1.0000 0.37568  0.91293  0.95260  Biso   1.000  C
  C255     1.0000 0.34689  0.88505  0.00048  Biso   1.000  C
  H197     1.0000 0.35687  0.88583  0.04413  Biso   1.000  H
  C256     1.0000 0.30365  0.85624  0.98419  Biso   1.000  C
  H198     1.0000 0.28427  0.83693  0.01673  Biso   1.000  H
  C257     1.0000 0.28838  0.85524  0.92145  Biso   1.000  C
  C258     1.0000 0.31793  0.88245  0.87282  Biso   1.000  C
  H199     1.0000 0.30837  0.88093  0.82873  Biso   1.000  H
  C259     1.0000 0.36100  0.91144  0.88976  Biso   1.000  C
  H200     1.0000 0.38067  0.93053  0.85733  Biso   1.000  H
  C260     1.0000 0.24099  0.82785  0.90467  Biso   1.000  C
  C261     1.0000 0.22117  0.84600  0.86844  Biso   1.000  C
  H201     1.0000 0.23817  0.87573  0.85513  Biso   1.000  H
  H202     1.0000 0.23237  0.72213  0.89013  Biso   1.000  H
  H203     1.0000 0.25287  0.70183  0.99603  Biso   1.000  H
  O59      1.0000 0.11275  0.30348  0.25864  Biso   1.000  O
  O60      1.0000 0.10007  0.27803  0.36219  Biso   1.000  O
  C262     1.0000 0.08872  0.27859  0.30398  Biso   1.000  C
  C263     1.0000 0.04234  0.24627  0.28594  Biso   1.000  C
  C264     1.0000 0.01355  0.21839  0.33382  Biso   1.000  C
  H204     1.0000 0.02353  0.21917  0.37747  Biso   1.000  H
  C265     1.0000 0.97031  0.18958  0.31753  Biso   1.000  C
  H205     1.0000 0.95093  0.17027  0.35007  Biso   1.000  H
  C266     1.0000 0.95504  0.18858  0.25479  Biso   1.000  C
  C267     1.0000 0.98459  0.21579  0.20616  Biso   1.000  C
  H206     1.0000 0.97503  0.21427  0.16207  Biso   1.000  H
  C268     1.0000 0.02766  0.24478  0.22310  Biso   1.000  C
  H207     1.0000 0.04733  0.26387  0.19067  Biso   1.000  H
  C269     1.0000 0.90765  0.16119  0.23801  Biso   1.000  C
  C270     1.0000 0.88783  0.17934  0.20178  Biso   1.000  C
  H208     1.0000 0.90483  0.20907  0.18847  Biso   1.000  H
  H209     1.0000 0.89903  0.05547  0.22347  Biso   1.000  H
  H210     1.0000 0.91953  0.03517  0.32937  Biso   1.000  H
  O61      1.0000 0.85739  0.22058  0.59197  Biso   1.000  O
  O62      1.0000 0.84462  0.23326  0.69552  Biso   1.000  O
  C271     1.0000 0.85653  0.24461  0.63731  Biso   1.000  C
  C272     1.0000 0.87059  0.29099  0.61927  Biso   1.000  C
  C273     1.0000 0.87150  0.31978  0.66715  Biso   1.000  C
  H211     1.0000 0.86230  0.30980  0.71080  Biso   1.000  H
  C274     1.0000 0.88593  0.36302  0.65086  Biso   1.000  C
  H212     1.0000 0.88600  0.38240  0.68340  Biso   1.000  H
  C275     1.0000 0.90020  0.37829  0.58812  Biso   1.000  C
  C276     1.0000 0.89786  0.34874  0.53949  Biso   1.000  C
  H213     1.0000 0.90590  0.35830  0.49540  Biso   1.000  H
  C277     1.0000 0.88378  0.30567  0.55643  Biso   1.000  C
  H214     1.0000 0.88320  0.28600  0.52400  Biso   1.000  H
  C278     1.0000 0.92020  0.42568  0.57134  Biso   1.000  C
  C279     1.0000 0.95817  0.44550  0.53511  Biso   1.000  C
  H215     1.0000 0.97090  0.42850  0.52180  Biso   1.000  H
  H216     1.0000 0.82310  0.43430  0.55680  Biso   1.000  H
  H217     1.0000 0.78230  0.41380  0.66270  Biso   1.000  H
  O63      1.0000 0.52406  0.55391  0.92530  Biso   1.000  O
  O64      1.0000 0.51129  0.56659  0.02885  Biso   1.000  O
  C280     1.0000 0.52320  0.57794  0.97064  Biso   1.000  C
  C281     1.0000 0.53726  0.62432  0.95260  Biso   1.000  C
  C282     1.0000 0.53817  0.65311  0.00048  Biso   1.000  C
  H218     1.0000 0.52897  0.64313  0.04413  Biso   1.000  H
  C283     1.0000 0.55260  0.69635  0.98419  Biso   1.000  C
  H219     1.0000 0.55267  0.71573  0.01673  Biso   1.000  H
  C284     1.0000 0.56687  0.71162  0.92145  Biso   1.000  C
  C285     1.0000 0.56453  0.68207  0.87282  Biso   1.000  C
  H220     1.0000 0.57257  0.69163  0.82873  Biso   1.000  H
  C286     1.0000 0.55045  0.63900  0.88976  Biso   1.000  C
  H221     1.0000 0.54987  0.61933  0.85733  Biso   1.000  H
  C287     1.0000 0.58687  0.75901  0.90467  Biso   1.000  C
  C288     1.0000 0.62484  0.77883  0.86844  Biso   1.000  C
  H222     1.0000 0.63757  0.76183  0.85513  Biso   1.000  H
  H223     1.0000 0.48977  0.76763  0.89013  Biso   1.000  H
  H224     1.0000 0.44897  0.74713  0.99603  Biso   1.000  H
  O65      1.0000 0.19072  0.88725  0.25864  Biso   1.000  O
  O66      1.0000 0.17795  0.89993  0.36219  Biso   1.000  O
  C289     1.0000 0.18986  0.91128  0.30398  Biso   1.000  C
  C290     1.0000 0.20392  0.95766  0.28594  Biso   1.000  C
  C291     1.0000 0.20483  0.98645  0.33382  Biso   1.000  C
  H225     1.0000 0.19563  0.97647  0.37747  Biso   1.000  H
  C292     1.0000 0.21926  0.02969  0.31753  Biso   1.000  C
  H226     1.0000 0.21933  0.04907  0.35007  Biso   1.000  H
  C293     1.0000 0.23353  0.04496  0.25479  Biso   1.000  C
  C294     1.0000 0.23119  0.01541  0.20616  Biso   1.000  C
  H227     1.0000 0.23923  0.02497  0.16207  Biso   1.000  H
  C295     1.0000 0.21711  0.97234  0.22310  Biso   1.000  C
  H228     1.0000 0.21653  0.95267  0.19067  Biso   1.000  H
  C296     1.0000 0.25353  0.09235  0.23801  Biso   1.000  C
  C297     1.0000 0.29150  0.11217  0.20178  Biso   1.000  C
  H229     1.0000 0.30423  0.09517  0.18847  Biso   1.000  H
  H230     1.0000 0.15643  0.10097  0.22347  Biso   1.000  H
  H231     1.0000 0.11563  0.08047  0.32937  Biso   1.000  H
  O67      1.0000 0.36319  0.14261  0.59197  Biso   1.000  O
  O68      1.0000 0.38864  0.15538  0.69552  Biso   1.000  O
  C298     1.0000 0.38808  0.14347  0.63731  Biso   1.000  C
  C299     1.0000 0.42040  0.12941  0.61927  Biso   1.000  C
  C300     1.0000 0.44828  0.12850  0.66715  Biso   1.000  C
  H232     1.0000 0.44750  0.13770  0.71080  Biso   1.000  H
  C301     1.0000 0.47709  0.11407  0.65086  Biso   1.000  C
  H233     1.0000 0.49640  0.11400  0.68340  Biso   1.000  H
  C302     1.0000 0.47809  0.09980  0.58812  Biso   1.000  C
  C303     1.0000 0.45088  0.10214  0.53949  Biso   1.000  C
  H234     1.0000 0.45240  0.09410  0.49540  Biso   1.000  H
  C304     1.0000 0.42189  0.11622  0.55643  Biso   1.000  C
  H235     1.0000 0.40280  0.11680  0.52400  Biso   1.000  H
  C305     1.0000 0.50548  0.07980  0.57134  Biso   1.000  C
  C306     1.0000 0.48733  0.04183  0.53511  Biso   1.000  C
  H236     1.0000 0.45760  0.02910  0.52180  Biso   1.000  H
  H237     1.0000 0.61120  0.17690  0.55680  Biso   1.000  H
  H238     1.0000 0.63150  0.21770  0.66270  Biso   1.000  H
  O69      1.0000 0.02986  0.47594  0.92530  Biso   1.000  O
  O70      1.0000 0.05531  0.48871  0.02885  Biso   1.000  O
  C307     1.0000 0.05475  0.47680  0.97064  Biso   1.000  C
  C308     1.0000 0.08707  0.46274  0.95260  Biso   1.000  C
  C309     1.0000 0.11495  0.46183  0.00048  Biso   1.000  C
  H239     1.0000 0.11417  0.47103  0.04413  Biso   1.000  H
  C310     1.0000 0.14376  0.44740  0.98419  Biso   1.000  C
  H240     1.0000 0.16307  0.44733  0.01673  Biso   1.000  H
  C311     1.0000 0.14476  0.43313  0.92145  Biso   1.000  C
  C312     1.0000 0.11755  0.43547  0.87282  Biso   1.000  C
  H241     1.0000 0.11907  0.42743  0.82873  Biso   1.000  H
  C313     1.0000 0.08856  0.44955  0.88976  Biso   1.000  C
  H242     1.0000 0.06947  0.45013  0.85733  Biso   1.000  H
  C314     1.0000 0.17215  0.41313  0.90467  Biso   1.000  C
  C315     1.0000 0.15400  0.37516  0.86844  Biso   1.000  C
  H243     1.0000 0.12427  0.36243  0.85513  Biso   1.000  H
  H244     1.0000 0.27787  0.51023  0.89013  Biso   1.000  H
  H245     1.0000 0.29817  0.55103  0.99603  Biso   1.000  H
  O71      1.0000 0.69652  0.80928  0.25864  Biso   1.000  O
  O72      1.0000 0.72197  0.82205  0.36219  Biso   1.000  O
  C316     1.0000 0.72141  0.81014  0.30398  Biso   1.000  C
  C317     1.0000 0.75373  0.79608  0.28594  Biso   1.000  C
  C318     1.0000 0.78161  0.79517  0.33382  Biso   1.000  C
  H246     1.0000 0.78083  0.80437  0.37747  Biso   1.000  H
  C319     1.0000 0.81042  0.78074  0.31753  Biso   1.000  C
  H247     1.0000 0.82973  0.78067  0.35007  Biso   1.000  H
  C320     1.0000 0.81142  0.76647  0.25479  Biso   1.000  C
  C321     1.0000 0.78421  0.76881  0.20616  Biso   1.000  C
  H248     1.0000 0.78573  0.76077  0.16207  Biso   1.000  H
  C322     1.0000 0.75522  0.78289  0.22310  Biso   1.000  C
  H249     1.0000 0.73613  0.78347  0.19067  Biso   1.000  H
  C323     1.0000 0.83881  0.74647  0.23801  Biso   1.000  C
  C324     1.0000 0.82066  0.70850  0.20178  Biso   1.000  C
  H250     1.0000 0.79093  0.69577  0.18847  Biso   1.000  H
  H251     1.0000 0.94453  0.84357  0.22347  Biso   1.000  H
  H252     1.0000 0.96483  0.88437  0.32937  Biso   1.000  H
  Cu1      1.0000 0.31866  0.15933  0.60574  Biso   1.000  Cu
  Cu2      1.0000 0.98533  0.49266  0.93907  Biso   1.000  Cu
  Cu3      1.0000 0.65199  0.82600  0.27241  Biso   1.000  Cu
  Cu4      1.0000 0.84067  0.15933  0.60574  Biso   1.000  Cu
  Cu5      1.0000 0.50734  0.49266  0.93907  Biso   1.000  Cu
  Cu6      1.0000 0.17400  0.82600  0.27241  Biso   1.000  Cu
  Cu7      1.0000 0.84067  0.68134  0.60574  Biso   1.000  Cu
  Cu8      1.0000 0.50734  0.01467  0.93907  Biso   1.000  Cu
  Cu9      1.0000 0.17400  0.34801  0.27241  Biso   1.000  Cu
  Cu10     1.0000 0.15933  0.31866  0.39426  Biso   1.000  Cu
  Cu11     1.0000 0.82600  0.65199  0.72759  Biso   1.000  Cu
  Cu12     1.0000 0.49266  0.98533  0.06093  Biso   1.000  Cu
  Cu13     1.0000 0.15933  0.84067  0.39426  Biso   1.000  Cu
  Cu14     1.0000 0.82600  0.17400  0.72759  Biso   1.000  Cu
  Cu15     1.0000 0.49266  0.50734  0.06093  Biso   1.000  Cu
  Cu16     1.0000 0.68134  0.84067  0.39426  Biso   1.000  Cu
  Cu17     1.0000 0.34801  0.17400  0.72759  Biso   1.000  Cu
  Cu18     1.0000 0.01467  0.50734  0.06093  Biso   1.000  Cu
  O73      1.0000 0.56912  0.43088  0.62465  Biso   1.000  O
  C325     1.0000 0.51064  0.48936  0.51710  Biso   1.000  C
  C326     1.0000 0.54989  0.45011  0.58930  Biso   1.000  C
  C327     1.0000 0.58818  0.41182  0.58520  Biso   1.000  C
  C328     1.0000 0.60930  0.39070  0.63490  Biso   1.000  C
  H253     1.0000 0.62280  0.37720  0.60900  Biso   1.000  H
  O74      1.0000 0.23579  0.76421  0.95798  Biso   1.000  O
  C329     1.0000 0.17731  0.82269  0.85043  Biso   1.000  C
  C330     1.0000 0.21656  0.78344  0.92263  Biso   1.000  C
  C331     1.0000 0.25485  0.74515  0.91853  Biso   1.000  C
  C332     1.0000 0.27597  0.72403  0.96823  Biso   1.000  C
  H254     1.0000 0.28947  0.71053  0.94233  Biso   1.000  H
  O75      1.0000 0.90245  0.09755  0.29132  Biso   1.000  O
  C333     1.0000 0.84397  0.15603  0.18377  Biso   1.000  C
  C334     1.0000 0.88322  0.11678  0.25597  Biso   1.000  C
  C335     1.0000 0.92151  0.07849  0.25187  Biso   1.000  C
  C336     1.0000 0.94263  0.05737  0.30157  Biso   1.000  C
  H255     1.0000 0.95613  0.04387  0.27567  Biso   1.000  H
  O76      1.0000 0.56912  0.13824  0.62465  Biso   1.000  O
  C337     1.0000 0.51064  0.02128  0.51710  Biso   1.000  C
  C338     1.0000 0.54989  0.09978  0.58930  Biso   1.000  C
  C339     1.0000 0.58818  0.17636  0.58520  Biso   1.000  C
  C340     1.0000 0.60930  0.21860  0.63490  Biso   1.000  C
  H256     1.0000 0.62280  0.24560  0.60900  Biso   1.000  H
  O77      1.0000 0.23579  0.47157  0.95798  Biso   1.000  O
  C341     1.0000 0.17731  0.35461  0.85043  Biso   1.000  C
  C342     1.0000 0.21656  0.43311  0.92263  Biso   1.000  C
  C343     1.0000 0.25485  0.50969  0.91853  Biso   1.000  C
  C344     1.0000 0.27597  0.55193  0.96823  Biso   1.000  C
  H257     1.0000 0.28947  0.57893  0.94233  Biso   1.000  H
  O78      1.0000 0.90245  0.80491  0.29132  Biso   1.000  O
  C345     1.0000 0.84397  0.68795  0.18377  Biso   1.000  C
  C346     1.0000 0.88322  0.76645  0.25597  Biso   1.000  C
  C347     1.0000 0.92151  0.84303  0.25187  Biso   1.000  C
  C348     1.0000 0.94263  0.88527  0.30157  Biso   1.000  C
  H258     1.0000 0.95613  0.91227  0.27567  Biso   1.000  H
  O79      1.0000 0.86176  0.43088  0.62465  Biso   1.000  O
  C349     1.0000 0.97872  0.48936  0.51710  Biso   1.000  C
  C350     1.0000 0.90022  0.45011  0.58930  Biso   1.000  C
  C351     1.0000 0.82364  0.41182  0.58520  Biso   1.000  C
  C352     1.0000 0.78140  0.39070  0.63490  Biso   1.000  C
  H259     1.0000 0.75440  0.37720  0.60900  Biso   1.000  H
  O80      1.0000 0.52843  0.76421  0.95798  Biso   1.000  O
  C353     1.0000 0.64539  0.82269  0.85043  Biso   1.000  C
  C354     1.0000 0.56689  0.78344  0.92263  Biso   1.000  C
  C355     1.0000 0.49031  0.74515  0.91853  Biso   1.000  C
  C356     1.0000 0.44807  0.72403  0.96823  Biso   1.000  C
  H260     1.0000 0.42107  0.71053  0.94233  Biso   1.000  H
  O81      1.0000 0.19509  0.09755  0.29132  Biso   1.000  O
  C357     1.0000 0.31205  0.15603  0.18377  Biso   1.000  C
  C358     1.0000 0.23355  0.11678  0.25597  Biso   1.000  C
  C359     1.0000 0.15697  0.07849  0.25187  Biso   1.000  C
  C360     1.0000 0.11473  0.05737  0.30157  Biso   1.000  C
  H261     1.0000 0.08773  0.04387  0.27567  Biso   1.000  H
  O82      1.0000 0.43088  0.56912  0.37535  Biso   1.000  O
  C361     1.0000 0.48936  0.51064  0.48290  Biso   1.000  C
  C362     1.0000 0.45011  0.54989  0.41070  Biso   1.000  C
  C363     1.0000 0.41182  0.58818  0.41480  Biso   1.000  C
  C364     1.0000 0.39070  0.60930  0.36510  Biso   1.000  C
  H262     1.0000 0.37720  0.62280  0.39100  Biso   1.000  H
  O83      1.0000 0.09755  0.90245  0.70868  Biso   1.000  O
  C365     1.0000 0.15603  0.84397  0.81623  Biso   1.000  C
  C366     1.0000 0.11678  0.88322  0.74403  Biso   1.000  C
  C367     1.0000 0.07849  0.92151  0.74813  Biso   1.000  C
  C368     1.0000 0.05737  0.94263  0.69843  Biso   1.000  C
  H263     1.0000 0.04387  0.95613  0.72433  Biso   1.000  H
  O84      1.0000 0.76421  0.23579  0.04202  Biso   1.000  O
  C369     1.0000 0.82269  0.17731  0.14957  Biso   1.000  C
  C370     1.0000 0.78344  0.21656  0.07737  Biso   1.000  C
  C371     1.0000 0.74515  0.25485  0.08147  Biso   1.000  C
  C372     1.0000 0.72403  0.27597  0.03177  Biso   1.000  C
  H264     1.0000 0.71053  0.28947  0.05767  Biso   1.000  H
  O85      1.0000 0.13824  0.56912  0.37535  Biso   1.000  O
  C373     1.0000 0.02128  0.51064  0.48290  Biso   1.000  C
  C374     1.0000 0.09978  0.54989  0.41070  Biso   1.000  C
  C375     1.0000 0.17636  0.58818  0.41480  Biso   1.000  C
  C376     1.0000 0.21860  0.60930  0.36510  Biso   1.000  C
  H265     1.0000 0.24560  0.62280  0.39100  Biso   1.000  H
  O86      1.0000 0.80491  0.90245  0.70868  Biso   1.000  O
  C377     1.0000 0.68795  0.84397  0.81623  Biso   1.000  C
  C378     1.0000 0.76645  0.88322  0.74403  Biso   1.000  C
  C379     1.0000 0.84303  0.92151  0.74813  Biso   1.000  C
  C380     1.0000 0.88527  0.94263  0.69843  Biso   1.000  C
  H266     1.0000 0.91227  0.95613  0.72433  Biso   1.000  H
  O87      1.0000 0.47157  0.23579  0.04202  Biso   1.000  O
  C381     1.0000 0.35461  0.17731  0.14957  Biso   1.000  C
  C382     1.0000 0.43311  0.21656  0.07737  Biso   1.000  C
  C383     1.0000 0.50969  0.25485  0.08147  Biso   1.000  C
  C384     1.0000 0.55193  0.27597  0.03177  Biso   1.000  C
  H267     1.0000 0.57893  0.28947  0.05767  Biso   1.000  H
  O88      1.0000 0.43088  0.86176  0.37535  Biso   1.000  O
  C385     1.0000 0.48936  0.97872  0.48290  Biso   1.000  C
  C386     1.0000 0.45011  0.90022  0.41070  Biso   1.000  C
  C387     1.0000 0.41182  0.82364  0.41480  Biso   1.000  C
  C388     1.0000 0.39070  0.78140  0.36510  Biso   1.000  C
  H268     1.0000 0.37720  0.75440  0.39100  Biso   1.000  H
  O89      1.0000 0.09755  0.19509  0.70868  Biso   1.000  O
  C389     1.0000 0.15603  0.31205  0.81623  Biso   1.000  C
  C390     1.0000 0.11678  0.23355  0.74403  Biso   1.000  C
  C391     1.0000 0.07849  0.15697  0.74813  Biso   1.000  C
  C392     1.0000 0.05737  0.11473  0.69843  Biso   1.000  C
  H269     1.0000 0.04387  0.08773  0.72433  Biso   1.000  H
  O90      1.0000 0.76421  0.52843  0.04202  Biso   1.000  O
  C393     1.0000 0.82269  0.64539  0.14957  Biso   1.000  C
  C394     1.0000 0.78344  0.56689  0.07737  Biso   1.000  C
  C395     1.0000 0.74515  0.49031  0.08147  Biso   1.000  C
  C396     1.0000 0.72403  0.44807  0.03177  Biso   1.000  C
  H270     1.0000 0.71053  0.42107  0.05767  Biso   1.000  H
