data_image0
_cell_length_a       35.3484
_cell_length_b       35.3484
_cell_length_c       20.0881
_cell_angle_alpha    90
_cell_angle_beta     90
_cell_angle_gamma    120

_symmetry_space_group_name_H-M    "P 1"
_symmetry_int_tables_number       1

loop_
  _symmetry_equiv_pos_as_xyz
  'x, y, z'

loop_
  _atom_site_label
  _atom_site_occupancy
  _atom_site_fract_x
  _atom_site_fract_y
  _atom_site_fract_z
  _atom_site_thermal_displace_type
  _atom_site_B_iso_or_equiv
  _atom_site_type_symbol
  O1       1.0000 0.77935  0.63670  0.59160  Biso   1.000  O
  C1       1.0000 0.75574  0.61221  0.63696  Biso   1.000  C
  O2       1.0000 0.76693  0.61195  0.69684  Biso   1.000  O
  C2       1.0000 0.70883  0.57978  0.62042  Biso   1.000  C
  C3       1.0000 0.68009  0.55206  0.66844  Biso   1.000  C
  H1       1.0000 0.69010  0.55270  0.71250  Biso   1.000  H
  C4       1.0000 0.63656  0.52328  0.65234  Biso   1.000  C
  H2       1.0000 0.61740  0.50400  0.68540  Biso   1.000  H
  C5       1.0000 0.62139  0.52233  0.59113  Biso   1.000  C
  C6       1.0000 0.65053  0.54857  0.53900  Biso   1.000  C
  H3       1.0000 0.64080  0.54620  0.49430  Biso   1.000  H
  C7       1.0000 0.69420  0.57807  0.55680  Biso   1.000  C
  H4       1.0000 0.71390  0.59710  0.52410  Biso   1.000  H
  C8       1.0000 0.57404  0.49469  0.57330  Biso   1.000  C
  C9       1.0000 0.55452  0.51246  0.53500  Biso   1.000  C
  H5       1.0000 0.57190  0.54180  0.52050  Biso   1.000  H
  H6       1.0000 0.61170  0.43390  0.55870  Biso   1.000  H
  H7       1.0000 0.62930  0.41600  0.66560  Biso   1.000  H
  O3       1.0000 0.44602  0.97003  0.92493  Biso   1.000  O
  C10      1.0000 0.42241  0.94554  0.97029  Biso   1.000  C
  O4       1.0000 0.43360  0.94528  0.03017  Biso   1.000  O
  C11      1.0000 0.37550  0.91311  0.95375  Biso   1.000  C
  C12      1.0000 0.34676  0.88539  0.00177  Biso   1.000  C
  H8       1.0000 0.35677  0.88603  0.04583  Biso   1.000  H
  C13      1.0000 0.30323  0.85661  0.98567  Biso   1.000  C
  H9       1.0000 0.28407  0.83733  0.01873  Biso   1.000  H
  C14      1.0000 0.28806  0.85566  0.92446  Biso   1.000  C
  C15      1.0000 0.31720  0.88190  0.87233  Biso   1.000  C
  H10      1.0000 0.30747  0.87953  0.82763  Biso   1.000  H
  C16      1.0000 0.36087  0.91140  0.89013  Biso   1.000  C
  H11      1.0000 0.38057  0.93043  0.85743  Biso   1.000  H
  C17      1.0000 0.24071  0.82802  0.90663  Biso   1.000  C
  C18      1.0000 0.22119  0.84579  0.86833  Biso   1.000  C
  H12      1.0000 0.23857  0.87513  0.85383  Biso   1.000  H
  H13      1.0000 0.27837  0.76723  0.89203  Biso   1.000  H
  H14      1.0000 0.29597  0.74933  0.99893  Biso   1.000  H
  O5       1.0000 0.11268  0.30337  0.25827  Biso   1.000  O
  C19      1.0000 0.08907  0.27888  0.30363  Biso   1.000  C
  O6       1.0000 0.10026  0.27862  0.36351  Biso   1.000  O
  C20      1.0000 0.04216  0.24645  0.28709  Biso   1.000  C
  C21      1.0000 0.01342  0.21873  0.33511  Biso   1.000  C
  H15      1.0000 0.02343  0.21937  0.37917  Biso   1.000  H
  C22      1.0000 0.96989  0.18995  0.31901  Biso   1.000  C
  H16      1.0000 0.95073  0.17067  0.35207  Biso   1.000  H
  C23      1.0000 0.95472  0.18900  0.25780  Biso   1.000  C
  C24      1.0000 0.98386  0.21524  0.20567  Biso   1.000  C
  H17      1.0000 0.97413  0.21287  0.16097  Biso   1.000  H
  C25      1.0000 0.02753  0.24474  0.22347  Biso   1.000  C
  H18      1.0000 0.04723  0.26377  0.19077  Biso   1.000  H
  C26      1.0000 0.90737  0.16136  0.23997  Biso   1.000  C
  C27      1.0000 0.88785  0.17913  0.20167  Biso   1.000  C
  H19      1.0000 0.90523  0.20847  0.18717  Biso   1.000  H
  H20      1.0000 0.94503  0.10057  0.22537  Biso   1.000  H
  H21      1.0000 0.96263  0.08267  0.33227  Biso   1.000  H
  O7       1.0000 0.36330  0.14265  0.59160  Biso   1.000  O
  C28      1.0000 0.38779  0.14353  0.63696  Biso   1.000  C
  O8       1.0000 0.38805  0.15498  0.69684  Biso   1.000  O
  C29      1.0000 0.42022  0.12905  0.62042  Biso   1.000  C
  C30      1.0000 0.44794  0.12803  0.66844  Biso   1.000  C
  H22      1.0000 0.44730  0.13740  0.71250  Biso   1.000  H
  C31      1.0000 0.47672  0.11328  0.65234  Biso   1.000  C
  H23      1.0000 0.49600  0.11340  0.68540  Biso   1.000  H
  C32      1.0000 0.47767  0.09906  0.59113  Biso   1.000  C
  C33      1.0000 0.45143  0.10196  0.53900  Biso   1.000  C
  H24      1.0000 0.45380  0.09460  0.49430  Biso   1.000  H
  C34      1.0000 0.42193  0.11613  0.55680  Biso   1.000  C
  H25      1.0000 0.40290  0.11680  0.52410  Biso   1.000  H
  C35      1.0000 0.50531  0.07935  0.57330  Biso   1.000  C
  C36      1.0000 0.48754  0.04206  0.53500  Biso   1.000  C
  H26      1.0000 0.45820  0.03010  0.52050  Biso   1.000  H
  H27      1.0000 0.56610  0.17780  0.55870  Biso   1.000  H
  H28      1.0000 0.58400  0.21330  0.66560  Biso   1.000  H
  O9       1.0000 0.02997  0.47598  0.92493  Biso   1.000  O
  C37      1.0000 0.05446  0.47686  0.97029  Biso   1.000  C
  O10      1.0000 0.05472  0.48831  0.03017  Biso   1.000  O
  C38      1.0000 0.08689  0.46238  0.95375  Biso   1.000  C
  C39      1.0000 0.11461  0.46136  0.00177  Biso   1.000  C
  H29      1.0000 0.11397  0.47073  0.04583  Biso   1.000  H
  C40      1.0000 0.14339  0.44661  0.98567  Biso   1.000  C
  H30      1.0000 0.16267  0.44673  0.01873  Biso   1.000  H
  C41      1.0000 0.14434  0.43239  0.92446  Biso   1.000  C
  C42      1.0000 0.11810  0.43529  0.87233  Biso   1.000  C
  H31      1.0000 0.12047  0.42793  0.82763  Biso   1.000  H
  C43      1.0000 0.08860  0.44946  0.89013  Biso   1.000  C
  H32      1.0000 0.06957  0.45013  0.85743  Biso   1.000  H
  C44      1.0000 0.17198  0.41268  0.90663  Biso   1.000  C
  C45      1.0000 0.15421  0.37539  0.86833  Biso   1.000  C
  H33      1.0000 0.12487  0.36343  0.85383  Biso   1.000  H
  H34      1.0000 0.23277  0.51113  0.89203  Biso   1.000  H
  H35      1.0000 0.25067  0.54663  0.99893  Biso   1.000  H
  O11      1.0000 0.69663  0.80932  0.25827  Biso   1.000  O
  C46      1.0000 0.72112  0.81020  0.30363  Biso   1.000  C
  O12      1.0000 0.72138  0.82165  0.36351  Biso   1.000  O
  C47      1.0000 0.75355  0.79572  0.28709  Biso   1.000  C
  C48      1.0000 0.78127  0.79470  0.33511  Biso   1.000  C
  H36      1.0000 0.78063  0.80407  0.37917  Biso   1.000  H
  C49      1.0000 0.81005  0.77995  0.31901  Biso   1.000  C
  H37      1.0000 0.82933  0.78007  0.35207  Biso   1.000  H
  C50      1.0000 0.81100  0.76573  0.25780  Biso   1.000  C
  C51      1.0000 0.78476  0.76863  0.20567  Biso   1.000  C
  H38      1.0000 0.78713  0.76127  0.16097  Biso   1.000  H
  C52      1.0000 0.75526  0.78280  0.22347  Biso   1.000  C
  H39      1.0000 0.73623  0.78347  0.19077  Biso   1.000  H
  C53      1.0000 0.83864  0.74602  0.23997  Biso   1.000  C
  C54      1.0000 0.82087  0.70873  0.20167  Biso   1.000  C
  H40      1.0000 0.79153  0.69677  0.18717  Biso   1.000  H
  H41      1.0000 0.89943  0.84447  0.22537  Biso   1.000  H
  H42      1.0000 0.91733  0.87997  0.33227  Biso   1.000  H
  O13      1.0000 0.85735  0.22065  0.59160  Biso   1.000  O
  C55      1.0000 0.85647  0.24426  0.63696  Biso   1.000  C
  O14      1.0000 0.84502  0.23307  0.69684  Biso   1.000  O
  C56      1.0000 0.87095  0.29117  0.62042  Biso   1.000  C
  C57      1.0000 0.87197  0.31991  0.66844  Biso   1.000  C
  H43      1.0000 0.86260  0.30990  0.71250  Biso   1.000  H
  C58      1.0000 0.88672  0.36344  0.65234  Biso   1.000  C
  H44      1.0000 0.88660  0.38260  0.68540  Biso   1.000  H
  C59      1.0000 0.90094  0.37861  0.59113  Biso   1.000  C
  C60      1.0000 0.89804  0.34947  0.53900  Biso   1.000  C
  H45      1.0000 0.90540  0.35920  0.49430  Biso   1.000  H
  C61      1.0000 0.88387  0.30580  0.55680  Biso   1.000  C
  H46      1.0000 0.88320  0.28610  0.52410  Biso   1.000  H
  C62      1.0000 0.92065  0.42596  0.57330  Biso   1.000  C
  C63      1.0000 0.95794  0.44548  0.53500  Biso   1.000  C
  H47      1.0000 0.96990  0.42810  0.52050  Biso   1.000  H
  H48      1.0000 0.82220  0.38830  0.55870  Biso   1.000  H
  H49      1.0000 0.78670  0.37070  0.66560  Biso   1.000  H
  O15      1.0000 0.52402  0.55398  0.92493  Biso   1.000  O
  C64      1.0000 0.52314  0.57759  0.97029  Biso   1.000  C
  O16      1.0000 0.51169  0.56640  0.03017  Biso   1.000  O
  C65      1.0000 0.53762  0.62450  0.95375  Biso   1.000  C
  C66      1.0000 0.53864  0.65324  0.00177  Biso   1.000  C
  H50      1.0000 0.52927  0.64323  0.04583  Biso   1.000  H
  C67      1.0000 0.55339  0.69677  0.98567  Biso   1.000  C
  H51      1.0000 0.55327  0.71593  0.01873  Biso   1.000  H
  C68      1.0000 0.56761  0.71194  0.92446  Biso   1.000  C
  C69      1.0000 0.56471  0.68280  0.87233  Biso   1.000  C
  H52      1.0000 0.57207  0.69253  0.82763  Biso   1.000  H
  C70      1.0000 0.55054  0.63913  0.89013  Biso   1.000  C
  H53      1.0000 0.54987  0.61943  0.85743  Biso   1.000  H
  C71      1.0000 0.58732  0.75929  0.90663  Biso   1.000  C
  C72      1.0000 0.62461  0.77881  0.86833  Biso   1.000  C
  H54      1.0000 0.63657  0.76143  0.85383  Biso   1.000  H
  H55      1.0000 0.48887  0.72163  0.89203  Biso   1.000  H
  H56      1.0000 0.45337  0.70403  0.99893  Biso   1.000  H
  O17      1.0000 0.19068  0.88732  0.25827  Biso   1.000  O
  C73      1.0000 0.18980  0.91093  0.30363  Biso   1.000  C
  O18      1.0000 0.17835  0.89974  0.36351  Biso   1.000  O
  C74      1.0000 0.20428  0.95784  0.28709  Biso   1.000  C
  C75      1.0000 0.20530  0.98658  0.33511  Biso   1.000  C
  H57      1.0000 0.19593  0.97657  0.37917  Biso   1.000  H
  C76      1.0000 0.22005  0.03011  0.31901  Biso   1.000  C
  H58      1.0000 0.21993  0.04927  0.35207  Biso   1.000  H
  C77      1.0000 0.23427  0.04528  0.25780  Biso   1.000  C
  C78      1.0000 0.23137  0.01614  0.20567  Biso   1.000  C
  H59      1.0000 0.23873  0.02587  0.16097  Biso   1.000  H
  C79      1.0000 0.21720  0.97247  0.22347  Biso   1.000  C
  H60      1.0000 0.21653  0.95277  0.19077  Biso   1.000  H
  C80      1.0000 0.25398  0.09263  0.23997  Biso   1.000  C
  C81      1.0000 0.29127  0.11215  0.20167  Biso   1.000  C
  H61      1.0000 0.30323  0.09477  0.18717  Biso   1.000  H
  H62      1.0000 0.15553  0.05497  0.22537  Biso   1.000  H
  H63      1.0000 0.12003  0.03737  0.33227  Biso   1.000  H
  O19      1.0000 0.63670  0.77935  0.40840  Biso   1.000  O
  C82      1.0000 0.61221  0.75574  0.36304  Biso   1.000  C
  O20      1.0000 0.61195  0.76693  0.30316  Biso   1.000  O
  C83      1.0000 0.57978  0.70883  0.37958  Biso   1.000  C
  C84      1.0000 0.55206  0.68009  0.33156  Biso   1.000  C
  H64      1.0000 0.55270  0.69010  0.28750  Biso   1.000  H
  C85      1.0000 0.52328  0.63656  0.34766  Biso   1.000  C
  H65      1.0000 0.50400  0.61740  0.31460  Biso   1.000  H
  C86      1.0000 0.52233  0.62139  0.40887  Biso   1.000  C
  C87      1.0000 0.54857  0.65053  0.46100  Biso   1.000  C
  H66      1.0000 0.54620  0.64080  0.50570  Biso   1.000  H
  C88      1.0000 0.57807  0.69420  0.44320  Biso   1.000  C
  H67      1.0000 0.59710  0.71390  0.47590  Biso   1.000  H
  C89      1.0000 0.49469  0.57404  0.42670  Biso   1.000  C
  C90      1.0000 0.51246  0.55452  0.46500  Biso   1.000  C
  H68      1.0000 0.54180  0.57190  0.47950  Biso   1.000  H
  H69      1.0000 0.43390  0.61170  0.44130  Biso   1.000  H
  H70      1.0000 0.41600  0.62930  0.33440  Biso   1.000  H
  O21      1.0000 0.30337  0.11268  0.74173  Biso   1.000  O
  C91      1.0000 0.27888  0.08907  0.69637  Biso   1.000  C
  O22      1.0000 0.27862  0.10026  0.63649  Biso   1.000  O
  C92      1.0000 0.24645  0.04216  0.71291  Biso   1.000  C
  C93      1.0000 0.21873  0.01342  0.66489  Biso   1.000  C
  H71      1.0000 0.21937  0.02343  0.62083  Biso   1.000  H
  C94      1.0000 0.18995  0.96989  0.68099  Biso   1.000  C
  H72      1.0000 0.17067  0.95073  0.64793  Biso   1.000  H
  C95      1.0000 0.18900  0.95472  0.74220  Biso   1.000  C
  C96      1.0000 0.21524  0.98386  0.79433  Biso   1.000  C
  H73      1.0000 0.21287  0.97413  0.83903  Biso   1.000  H
  C97      1.0000 0.24474  0.02753  0.77653  Biso   1.000  C
  H74      1.0000 0.26377  0.04723  0.80923  Biso   1.000  H
  C98      1.0000 0.16136  0.90737  0.76003  Biso   1.000  C
  C99      1.0000 0.17913  0.88785  0.79833  Biso   1.000  C
  H75      1.0000 0.20847  0.90523  0.81283  Biso   1.000  H
  H76      1.0000 0.10057  0.94503  0.77463  Biso   1.000  H
  H77      1.0000 0.08267  0.96263  0.66773  Biso   1.000  H
  O23      1.0000 0.97003  0.44602  0.07507  Biso   1.000  O
  C100     1.0000 0.94554  0.42241  0.02971  Biso   1.000  C
  O24      1.0000 0.94528  0.43360  0.96983  Biso   1.000  O
  C101     1.0000 0.91311  0.37550  0.04625  Biso   1.000  C
  C102     1.0000 0.88539  0.34676  0.99823  Biso   1.000  C
  H78      1.0000 0.88603  0.35677  0.95417  Biso   1.000  H
  C103     1.0000 0.85661  0.30323  0.01433  Biso   1.000  C
  H79      1.0000 0.83733  0.28407  0.98127  Biso   1.000  H
  C104     1.0000 0.85566  0.28806  0.07554  Biso   1.000  C
  C105     1.0000 0.88190  0.31720  0.12767  Biso   1.000  C
  H80      1.0000 0.87953  0.30747  0.17237  Biso   1.000  H
  C106     1.0000 0.91140  0.36087  0.10987  Biso   1.000  C
  H81      1.0000 0.93043  0.38057  0.14257  Biso   1.000  H
  C107     1.0000 0.82802  0.24071  0.09337  Biso   1.000  C
  C108     1.0000 0.84579  0.22119  0.13167  Biso   1.000  C
  H82      1.0000 0.87513  0.23857  0.14617  Biso   1.000  H
  H83      1.0000 0.76723  0.27837  0.10797  Biso   1.000  H
  H84      1.0000 0.74933  0.29597  0.00107  Biso   1.000  H
  O25      1.0000 0.14265  0.36330  0.40840  Biso   1.000  O
  C109     1.0000 0.14353  0.38779  0.36304  Biso   1.000  C
  O26      1.0000 0.15498  0.38805  0.30316  Biso   1.000  O
  C110     1.0000 0.12905  0.42022  0.37958  Biso   1.000  C
  C111     1.0000 0.12803  0.44794  0.33156  Biso   1.000  C
  H85      1.0000 0.13740  0.44730  0.28750  Biso   1.000  H
  C112     1.0000 0.11328  0.47672  0.34766  Biso   1.000  C
  H86      1.0000 0.11340  0.49600  0.31460  Biso   1.000  H
  C113     1.0000 0.09906  0.47767  0.40887  Biso   1.000  C
  C114     1.0000 0.10196  0.45143  0.46100  Biso   1.000  C
  H87      1.0000 0.09460  0.45380  0.50570  Biso   1.000  H
  C115     1.0000 0.11613  0.42193  0.44320  Biso   1.000  C
  H88      1.0000 0.11680  0.40290  0.47590  Biso   1.000  H
  C116     1.0000 0.07935  0.50531  0.42670  Biso   1.000  C
  C117     1.0000 0.04206  0.48754  0.46500  Biso   1.000  C
  H89      1.0000 0.03010  0.45820  0.47950  Biso   1.000  H
  H90      1.0000 0.17780  0.56610  0.44130  Biso   1.000  H
  H91      1.0000 0.21330  0.58400  0.33440  Biso   1.000  H
  O27      1.0000 0.80932  0.69663  0.74173  Biso   1.000  O
  C118     1.0000 0.81020  0.72112  0.69637  Biso   1.000  C
  O28      1.0000 0.82165  0.72138  0.63649  Biso   1.000  O
  C119     1.0000 0.79572  0.75355  0.71291  Biso   1.000  C
  C120     1.0000 0.79470  0.78127  0.66489  Biso   1.000  C
  H92      1.0000 0.80407  0.78063  0.62083  Biso   1.000  H
  C121     1.0000 0.77995  0.81005  0.68099  Biso   1.000  C
  H93      1.0000 0.78007  0.82933  0.64793  Biso   1.000  H
  C122     1.0000 0.76573  0.81100  0.74220  Biso   1.000  C
  C123     1.0000 0.76863  0.78476  0.79433  Biso   1.000  C
  H94      1.0000 0.76127  0.78713  0.83903  Biso   1.000  H
  C124     1.0000 0.78280  0.75526  0.77653  Biso   1.000  C
  H95      1.0000 0.78347  0.73623  0.80923  Biso   1.000  H
  C125     1.0000 0.74602  0.83864  0.76003  Biso   1.000  C
  C126     1.0000 0.70873  0.82087  0.79833  Biso   1.000  C
  H96      1.0000 0.69677  0.79153  0.81283  Biso   1.000  H
  H97      1.0000 0.84447  0.89943  0.77463  Biso   1.000  H
  H98      1.0000 0.87997  0.91733  0.66773  Biso   1.000  H
  O29      1.0000 0.47598  0.02997  0.07507  Biso   1.000  O
  C127     1.0000 0.47686  0.05446  0.02971  Biso   1.000  C
  O30      1.0000 0.48831  0.05472  0.96983  Biso   1.000  O
  C128     1.0000 0.46238  0.08689  0.04625  Biso   1.000  C
  C129     1.0000 0.46136  0.11461  0.99823  Biso   1.000  C
  H99      1.0000 0.47073  0.11397  0.95417  Biso   1.000  H
  C130     1.0000 0.44661  0.14339  0.01433  Biso   1.000  C
  H100     1.0000 0.44673  0.16267  0.98127  Biso   1.000  H
  C131     1.0000 0.43239  0.14434  0.07554  Biso   1.000  C
  C132     1.0000 0.43529  0.11810  0.12767  Biso   1.000  C
  H101     1.0000 0.42793  0.12047  0.17237  Biso   1.000  H
  C133     1.0000 0.44946  0.08860  0.10987  Biso   1.000  C
  H102     1.0000 0.45013  0.06957  0.14257  Biso   1.000  H
  C134     1.0000 0.41268  0.17198  0.09337  Biso   1.000  C
  C135     1.0000 0.37539  0.15421  0.13167  Biso   1.000  C
  H103     1.0000 0.36343  0.12487  0.14617  Biso   1.000  H
  H104     1.0000 0.51113  0.23277  0.10797  Biso   1.000  H
  H105     1.0000 0.54663  0.25067  0.00107  Biso   1.000  H
  O31      1.0000 0.22065  0.85735  0.40840  Biso   1.000  O
  C136     1.0000 0.24426  0.85647  0.36304  Biso   1.000  C
  O32      1.0000 0.23307  0.84502  0.30316  Biso   1.000  O
  C137     1.0000 0.29117  0.87095  0.37958  Biso   1.000  C
  C138     1.0000 0.31991  0.87197  0.33156  Biso   1.000  C
  H106     1.0000 0.30990  0.86260  0.28750  Biso   1.000  H
  C139     1.0000 0.36344  0.88672  0.34766  Biso   1.000  C
  H107     1.0000 0.38260  0.88660  0.31460  Biso   1.000  H
  C140     1.0000 0.37861  0.90094  0.40887  Biso   1.000  C
  C141     1.0000 0.34947  0.89804  0.46100  Biso   1.000  C
  H108     1.0000 0.35920  0.90540  0.50570  Biso   1.000  H
  C142     1.0000 0.30580  0.88387  0.44320  Biso   1.000  C
  H109     1.0000 0.28610  0.88320  0.47590  Biso   1.000  H
  C143     1.0000 0.42596  0.92065  0.42670  Biso   1.000  C
  C144     1.0000 0.44548  0.95794  0.46500  Biso   1.000  C
  H110     1.0000 0.42810  0.96990  0.47950  Biso   1.000  H
  H111     1.0000 0.38830  0.82220  0.44130  Biso   1.000  H
  H112     1.0000 0.37070  0.78670  0.33440  Biso   1.000  H
  O33      1.0000 0.88732  0.19068  0.74173  Biso   1.000  O
  C145     1.0000 0.91093  0.18980  0.69637  Biso   1.000  C
  O34      1.0000 0.89974  0.17835  0.63649  Biso   1.000  O
  C146     1.0000 0.95784  0.20428  0.71291  Biso   1.000  C
  C147     1.0000 0.98658  0.20530  0.66489  Biso   1.000  C
  H113     1.0000 0.97657  0.19593  0.62083  Biso   1.000  H
  C148     1.0000 0.03011  0.22005  0.68099  Biso   1.000  C
  H114     1.0000 0.04927  0.21993  0.64793  Biso   1.000  H
  C149     1.0000 0.04528  0.23427  0.74220  Biso   1.000  C
  C150     1.0000 0.01614  0.23137  0.79433  Biso   1.000  C
  H115     1.0000 0.02587  0.23873  0.83903  Biso   1.000  H
  C151     1.0000 0.97247  0.21720  0.77653  Biso   1.000  C
  H116     1.0000 0.95277  0.21653  0.80923  Biso   1.000  H
  C152     1.0000 0.09263  0.25398  0.76003  Biso   1.000  C
  C153     1.0000 0.11215  0.29127  0.79833  Biso   1.000  C
  H117     1.0000 0.09477  0.30323  0.81283  Biso   1.000  H
  H118     1.0000 0.05497  0.15553  0.77463  Biso   1.000  H
  H119     1.0000 0.03737  0.12003  0.66773  Biso   1.000  H
  O35      1.0000 0.55398  0.52402  0.07507  Biso   1.000  O
  C154     1.0000 0.57759  0.52314  0.02971  Biso   1.000  C
  O36      1.0000 0.56640  0.51169  0.96983  Biso   1.000  O
  C155     1.0000 0.62450  0.53762  0.04625  Biso   1.000  C
  C156     1.0000 0.65324  0.53864  0.99823  Biso   1.000  C
  H120     1.0000 0.64323  0.52927  0.95417  Biso   1.000  H
  C157     1.0000 0.69677  0.55339  0.01433  Biso   1.000  C
  H121     1.0000 0.71593  0.55327  0.98127  Biso   1.000  H
  C158     1.0000 0.71194  0.56761  0.07554  Biso   1.000  C
  C159     1.0000 0.68280  0.56471  0.12767  Biso   1.000  C
  H122     1.0000 0.69253  0.57207  0.17237  Biso   1.000  H
  C160     1.0000 0.63913  0.55054  0.10987  Biso   1.000  C
  H123     1.0000 0.61943  0.54987  0.14257  Biso   1.000  H
  C161     1.0000 0.75929  0.58732  0.09337  Biso   1.000  C
  C162     1.0000 0.77881  0.62461  0.13167  Biso   1.000  C
  H124     1.0000 0.76143  0.63657  0.14617  Biso   1.000  H
  H125     1.0000 0.72163  0.48887  0.10797  Biso   1.000  H
  H126     1.0000 0.70403  0.45337  0.00107  Biso   1.000  H
  O37      1.0000 0.22065  0.36330  0.40840  Biso   1.000  O
  C163     1.0000 0.24426  0.38779  0.36304  Biso   1.000  C
  O38      1.0000 0.23307  0.38805  0.30316  Biso   1.000  O
  C164     1.0000 0.29117  0.42022  0.37958  Biso   1.000  C
  C165     1.0000 0.31991  0.44794  0.33156  Biso   1.000  C
  H127     1.0000 0.30990  0.44730  0.28750  Biso   1.000  H
  C166     1.0000 0.36344  0.47672  0.34766  Biso   1.000  C
  H128     1.0000 0.38260  0.49600  0.31460  Biso   1.000  H
  C167     1.0000 0.37861  0.47767  0.40887  Biso   1.000  C
  C168     1.0000 0.34947  0.45143  0.46100  Biso   1.000  C
  H129     1.0000 0.35920  0.45380  0.50570  Biso   1.000  H
  C169     1.0000 0.30580  0.42193  0.44320  Biso   1.000  C
  H130     1.0000 0.28610  0.40290  0.47590  Biso   1.000  H
  C170     1.0000 0.42596  0.50531  0.42670  Biso   1.000  C
  C171     1.0000 0.44548  0.48754  0.46500  Biso   1.000  C
  H131     1.0000 0.42810  0.45820  0.47950  Biso   1.000  H
  H132     1.0000 0.38830  0.56610  0.44130  Biso   1.000  H
  H133     1.0000 0.37070  0.58400  0.33440  Biso   1.000  H
  O39      1.0000 0.88732  0.69663  0.74173  Biso   1.000  O
  C172     1.0000 0.91093  0.72112  0.69637  Biso   1.000  C
  O40      1.0000 0.89974  0.72138  0.63649  Biso   1.000  O
  C173     1.0000 0.95784  0.75355  0.71291  Biso   1.000  C
  C174     1.0000 0.98658  0.78127  0.66489  Biso   1.000  C
  H134     1.0000 0.97657  0.78063  0.62083  Biso   1.000  H
  C175     1.0000 0.03011  0.81005  0.68099  Biso   1.000  C
  H135     1.0000 0.04927  0.82933  0.64793  Biso   1.000  H
  C176     1.0000 0.04528  0.81100  0.74220  Biso   1.000  C
  C177     1.0000 0.01614  0.78476  0.79433  Biso   1.000  C
  H136     1.0000 0.02587  0.78713  0.83903  Biso   1.000  H
  C178     1.0000 0.97247  0.75526  0.77653  Biso   1.000  C
  H137     1.0000 0.95277  0.73623  0.80923  Biso   1.000  H
  C179     1.0000 0.09263  0.83864  0.76003  Biso   1.000  C
  C180     1.0000 0.11215  0.82087  0.79833  Biso   1.000  C
  H138     1.0000 0.09477  0.79153  0.81283  Biso   1.000  H
  H139     1.0000 0.05497  0.89943  0.77463  Biso   1.000  H
  H140     1.0000 0.03737  0.91733  0.66773  Biso   1.000  H
  O41      1.0000 0.55398  0.02997  0.07507  Biso   1.000  O
  C181     1.0000 0.57759  0.05446  0.02971  Biso   1.000  C
  O42      1.0000 0.56640  0.05472  0.96983  Biso   1.000  O
  C182     1.0000 0.62450  0.08689  0.04625  Biso   1.000  C
  C183     1.0000 0.65324  0.11461  0.99823  Biso   1.000  C
  H141     1.0000 0.64323  0.11397  0.95417  Biso   1.000  H
  C184     1.0000 0.69677  0.14339  0.01433  Biso   1.000  C
  H142     1.0000 0.71593  0.16267  0.98127  Biso   1.000  H
  C185     1.0000 0.71194  0.14434  0.07554  Biso   1.000  C
  C186     1.0000 0.68280  0.11810  0.12767  Biso   1.000  C
  H143     1.0000 0.69253  0.12047  0.17237  Biso   1.000  H
  C187     1.0000 0.63913  0.08860  0.10987  Biso   1.000  C
  H144     1.0000 0.61943  0.06957  0.14257  Biso   1.000  H
  C188     1.0000 0.75929  0.17198  0.09337  Biso   1.000  C
  C189     1.0000 0.77881  0.15421  0.13167  Biso   1.000  C
  H145     1.0000 0.76143  0.12487  0.14617  Biso   1.000  H
  H146     1.0000 0.72163  0.23277  0.10797  Biso   1.000  H
  H147     1.0000 0.70403  0.25067  0.00107  Biso   1.000  H
  O43      1.0000 0.63670  0.85735  0.40840  Biso   1.000  O
  C190     1.0000 0.61221  0.85647  0.36304  Biso   1.000  C
  O44      1.0000 0.61195  0.84502  0.30316  Biso   1.000  O
  C191     1.0000 0.57978  0.87095  0.37958  Biso   1.000  C
  C192     1.0000 0.55206  0.87197  0.33156  Biso   1.000  C
  H148     1.0000 0.55270  0.86260  0.28750  Biso   1.000  H
  C193     1.0000 0.52328  0.88672  0.34766  Biso   1.000  C
  H149     1.0000 0.50400  0.88660  0.31460  Biso   1.000  H
  C194     1.0000 0.52233  0.90094  0.40887  Biso   1.000  C
  C195     1.0000 0.54857  0.89804  0.46100  Biso   1.000  C
  H150     1.0000 0.54620  0.90540  0.50570  Biso   1.000  H
  C196     1.0000 0.57807  0.88387  0.44320  Biso   1.000  C
  H151     1.0000 0.59710  0.88320  0.47590  Biso   1.000  H
  C197     1.0000 0.49469  0.92065  0.42670  Biso   1.000  C
  C198     1.0000 0.51246  0.95794  0.46500  Biso   1.000  C
  H152     1.0000 0.54180  0.96990  0.47950  Biso   1.000  H
  H153     1.0000 0.43390  0.82220  0.44130  Biso   1.000  H
  H154     1.0000 0.41600  0.78670  0.33440  Biso   1.000  H
  O45      1.0000 0.30337  0.19068  0.74173  Biso   1.000  O
  C199     1.0000 0.27888  0.18980  0.69637  Biso   1.000  C
  O46      1.0000 0.27862  0.17835  0.63649  Biso   1.000  O
  C200     1.0000 0.24645  0.20428  0.71291  Biso   1.000  C
  C201     1.0000 0.21873  0.20530  0.66489  Biso   1.000  C
  H155     1.0000 0.21937  0.19593  0.62083  Biso   1.000  H
  C202     1.0000 0.18995  0.22005  0.68099  Biso   1.000  C
  H156     1.0000 0.17067  0.21993  0.64793  Biso   1.000  H
  C203     1.0000 0.18900  0.23427  0.74220  Biso   1.000  C
  C204     1.0000 0.21524  0.23137  0.79433  Biso   1.000  C
  H157     1.0000 0.21287  0.23873  0.83903  Biso   1.000  H
  C205     1.0000 0.24474  0.21720  0.77653  Biso   1.000  C
  H158     1.0000 0.26377  0.21653  0.80923  Biso   1.000  H
  C206     1.0000 0.16136  0.25398  0.76003  Biso   1.000  C
  C207     1.0000 0.17913  0.29127  0.79833  Biso   1.000  C
  H159     1.0000 0.20847  0.30323  0.81283  Biso   1.000  H
  H160     1.0000 0.10057  0.15553  0.77463  Biso   1.000  H
  H161     1.0000 0.08267  0.12003  0.66773  Biso   1.000  H
  O47      1.0000 0.97003  0.52402  0.07507  Biso   1.000  O
  C208     1.0000 0.94554  0.52314  0.02971  Biso   1.000  C
  O48      1.0000 0.94528  0.51169  0.96983  Biso   1.000  O
  C209     1.0000 0.91311  0.53762  0.04625  Biso   1.000  C
  C210     1.0000 0.88539  0.53864  0.99823  Biso   1.000  C
  H162     1.0000 0.88603  0.52927  0.95417  Biso   1.000  H
  C211     1.0000 0.85661  0.55339  0.01433  Biso   1.000  C
  H163     1.0000 0.83733  0.55327  0.98127  Biso   1.000  H
  C212     1.0000 0.85566  0.56761  0.07554  Biso   1.000  C
  C213     1.0000 0.88190  0.56471  0.12767  Biso   1.000  C
  H164     1.0000 0.87953  0.57207  0.17237  Biso   1.000  H
  C214     1.0000 0.91140  0.55054  0.10987  Biso   1.000  C
  H165     1.0000 0.93043  0.54987  0.14257  Biso   1.000  H
  C215     1.0000 0.82802  0.58732  0.09337  Biso   1.000  C
  C216     1.0000 0.84579  0.62461  0.13167  Biso   1.000  C
  H166     1.0000 0.87513  0.63657  0.14617  Biso   1.000  H
  H167     1.0000 0.76723  0.48887  0.10797  Biso   1.000  H
  H168     1.0000 0.74933  0.45337  0.00107  Biso   1.000  H
  O49      1.0000 0.14265  0.77935  0.40840  Biso   1.000  O
  C217     1.0000 0.14353  0.75574  0.36304  Biso   1.000  C
  O50      1.0000 0.15498  0.76693  0.30316  Biso   1.000  O
  C218     1.0000 0.12905  0.70883  0.37958  Biso   1.000  C
  C219     1.0000 0.12803  0.68009  0.33156  Biso   1.000  C
  H169     1.0000 0.13740  0.69010  0.28750  Biso   1.000  H
  C220     1.0000 0.11328  0.63656  0.34766  Biso   1.000  C
  H170     1.0000 0.11340  0.61740  0.31460  Biso   1.000  H
  C221     1.0000 0.09906  0.62139  0.40887  Biso   1.000  C
  C222     1.0000 0.10196  0.65053  0.46100  Biso   1.000  C
  H171     1.0000 0.09460  0.64080  0.50570  Biso   1.000  H
  C223     1.0000 0.11613  0.69420  0.44320  Biso   1.000  C
  H172     1.0000 0.11680  0.71390  0.47590  Biso   1.000  H
  C224     1.0000 0.07935  0.57404  0.42670  Biso   1.000  C
  C225     1.0000 0.04206  0.55452  0.46500  Biso   1.000  C
  H173     1.0000 0.03010  0.57190  0.47950  Biso   1.000  H
  H174     1.0000 0.17780  0.61170  0.44130  Biso   1.000  H
  H175     1.0000 0.21330  0.62930  0.33440  Biso   1.000  H
  O51      1.0000 0.80932  0.11268  0.74173  Biso   1.000  O
  C226     1.0000 0.81020  0.08907  0.69637  Biso   1.000  C
  O52      1.0000 0.82165  0.10026  0.63649  Biso   1.000  O
  C227     1.0000 0.79572  0.04216  0.71291  Biso   1.000  C
  C228     1.0000 0.79470  0.01342  0.66489  Biso   1.000  C
  H176     1.0000 0.80407  0.02343  0.62083  Biso   1.000  H
  C229     1.0000 0.77995  0.96989  0.68099  Biso   1.000  C
  H177     1.0000 0.78007  0.95073  0.64793  Biso   1.000  H
  C230     1.0000 0.76573  0.95472  0.74220  Biso   1.000  C
  C231     1.0000 0.76863  0.98386  0.79433  Biso   1.000  C
  H178     1.0000 0.76127  0.97413  0.83903  Biso   1.000  H
  C232     1.0000 0.78280  0.02753  0.77653  Biso   1.000  C
  H179     1.0000 0.78347  0.04723  0.80923  Biso   1.000  H
  C233     1.0000 0.74602  0.90737  0.76003  Biso   1.000  C
  C234     1.0000 0.70873  0.88785  0.79833  Biso   1.000  C
  H180     1.0000 0.69677  0.90523  0.81283  Biso   1.000  H
  H181     1.0000 0.84447  0.94503  0.77463  Biso   1.000  H
  H182     1.0000 0.87997  0.96263  0.66773  Biso   1.000  H
  O53      1.0000 0.47598  0.44602  0.07507  Biso   1.000  O
  C235     1.0000 0.47686  0.42241  0.02971  Biso   1.000  C
  O54      1.0000 0.48831  0.43360  0.96983  Biso   1.000  O
  C236     1.0000 0.46238  0.37550  0.04625  Biso   1.000  C
  C237     1.0000 0.46136  0.34676  0.99823  Biso   1.000  C
  H183     1.0000 0.47073  0.35677  0.95417  Biso   1.000  H
  C238     1.0000 0.44661  0.30323  0.01433  Biso   1.000  C
  H184     1.0000 0.44673  0.28407  0.98127  Biso   1.000  H
  C239     1.0000 0.43239  0.28806  0.07554  Biso   1.000  C
  C240     1.0000 0.43529  0.31720  0.12767  Biso   1.000  C
  H185     1.0000 0.42793  0.30747  0.17237  Biso   1.000  H
  C241     1.0000 0.44946  0.36087  0.10987  Biso   1.000  C
  H186     1.0000 0.45013  0.38057  0.14257  Biso   1.000  H
  C242     1.0000 0.41268  0.24071  0.09337  Biso   1.000  C
  C243     1.0000 0.37539  0.22119  0.13167  Biso   1.000  C
  H187     1.0000 0.36343  0.23857  0.14617  Biso   1.000  H
  H188     1.0000 0.51113  0.27837  0.10797  Biso   1.000  H
  H189     1.0000 0.54663  0.29597  0.00107  Biso   1.000  H
  O55      1.0000 0.36330  0.22065  0.59160  Biso   1.000  O
  C244     1.0000 0.38779  0.24426  0.63696  Biso   1.000  C
  O56      1.0000 0.38805  0.23307  0.69684  Biso   1.000  O
  C245     1.0000 0.42022  0.29117  0.62042  Biso   1.000  C
  C246     1.0000 0.44794  0.31991  0.66844  Biso   1.000  C
  H190     1.0000 0.44730  0.30990  0.71250  Biso   1.000  H
  C247     1.0000 0.47672  0.36344  0.65234  Biso   1.000  C
  H191     1.0000 0.49600  0.38260  0.68540  Biso   1.000  H
  C248     1.0000 0.47767  0.37861  0.59113  Biso   1.000  C
  C249     1.0000 0.45143  0.34947  0.53900  Biso   1.000  C
  H192     1.0000 0.45380  0.35920  0.49430  Biso   1.000  H
  C250     1.0000 0.42193  0.30580  0.55680  Biso   1.000  C
  H193     1.0000 0.40290  0.28610  0.52410  Biso   1.000  H
  C251     1.0000 0.50531  0.42596  0.57330  Biso   1.000  C
  C252     1.0000 0.48754  0.44548  0.53500  Biso   1.000  C
  H194     1.0000 0.45820  0.42810  0.52050  Biso   1.000  H
  H195     1.0000 0.56610  0.38830  0.55870  Biso   1.000  H
  H196     1.0000 0.58400  0.37070  0.66560  Biso   1.000  H
  O57      1.0000 0.02997  0.55398  0.92493  Biso   1.000  O
  C253     1.0000 0.05446  0.57759  0.97029  Biso   1.000  C
  O58      1.0000 0.05472  0.56640  0.03017  Biso   1.000  O
  C254     1.0000 0.08689  0.62450  0.95375  Biso   1.000  C
  C255     1.0000 0.11461  0.65324  0.00177  Biso   1.000  C
  H197     1.0000 0.11397  0.64323  0.04583  Biso   1.000  H
  C256     1.0000 0.14339  0.69677  0.98567  Biso   1.000  C
  H198     1.0000 0.16267  0.71593  0.01873  Biso   1.000  H
  C257     1.0000 0.14434  0.71194  0.92446  Biso   1.000  C
  C258     1.0000 0.11810  0.68280  0.87233  Biso   1.000  C
  H199     1.0000 0.12047  0.69253  0.82763  Biso   1.000  H
  C259     1.0000 0.08860  0.63913  0.89013  Biso   1.000  C
  H200     1.0000 0.06957  0.61943  0.85743  Biso   1.000  H
  C260     1.0000 0.17198  0.75929  0.90663  Biso   1.000  C
  C261     1.0000 0.15421  0.77881  0.86833  Biso   1.000  C
  H201     1.0000 0.12487  0.76143  0.85383  Biso   1.000  H
  H202     1.0000 0.23277  0.72163  0.89203  Biso   1.000  H
  H203     1.0000 0.25067  0.70403  0.99893  Biso   1.000  H
  O59      1.0000 0.69663  0.88732  0.25827  Biso   1.000  O
  C262     1.0000 0.72112  0.91093  0.30363  Biso   1.000  C
  O60      1.0000 0.72138  0.89974  0.36351  Biso   1.000  O
  C263     1.0000 0.75355  0.95784  0.28709  Biso   1.000  C
  C264     1.0000 0.78127  0.98658  0.33511  Biso   1.000  C
  H204     1.0000 0.78063  0.97657  0.37917  Biso   1.000  H
  C265     1.0000 0.81005  0.03011  0.31901  Biso   1.000  C
  H205     1.0000 0.82933  0.04927  0.35207  Biso   1.000  H
  C266     1.0000 0.81100  0.04528  0.25780  Biso   1.000  C
  C267     1.0000 0.78476  0.01614  0.20567  Biso   1.000  C
  H206     1.0000 0.78713  0.02587  0.16097  Biso   1.000  H
  C268     1.0000 0.75526  0.97247  0.22347  Biso   1.000  C
  H207     1.0000 0.73623  0.95277  0.19077  Biso   1.000  H
  C269     1.0000 0.83864  0.09263  0.23997  Biso   1.000  C
  C270     1.0000 0.82087  0.11215  0.20167  Biso   1.000  C
  H208     1.0000 0.79153  0.09477  0.18717  Biso   1.000  H
  H209     1.0000 0.89943  0.05497  0.22537  Biso   1.000  H
  H210     1.0000 0.91733  0.03737  0.33227  Biso   1.000  H
  O61      1.0000 0.85735  0.63670  0.59160  Biso   1.000  O
  C271     1.0000 0.85647  0.61221  0.63696  Biso   1.000  C
  O62      1.0000 0.84502  0.61195  0.69684  Biso   1.000  O
  C272     1.0000 0.87095  0.57978  0.62042  Biso   1.000  C
  C273     1.0000 0.87197  0.55206  0.66844  Biso   1.000  C
  H211     1.0000 0.86260  0.55270  0.71250  Biso   1.000  H
  C274     1.0000 0.88672  0.52328  0.65234  Biso   1.000  C
  H212     1.0000 0.88660  0.50400  0.68540  Biso   1.000  H
  C275     1.0000 0.90094  0.52233  0.59113  Biso   1.000  C
  C276     1.0000 0.89804  0.54857  0.53900  Biso   1.000  C
  H213     1.0000 0.90540  0.54620  0.49430  Biso   1.000  H
  C277     1.0000 0.88387  0.57807  0.55680  Biso   1.000  C
  H214     1.0000 0.88320  0.59710  0.52410  Biso   1.000  H
  C278     1.0000 0.92065  0.49469  0.57330  Biso   1.000  C
  C279     1.0000 0.95794  0.51246  0.53500  Biso   1.000  C
  H215     1.0000 0.96990  0.54180  0.52050  Biso   1.000  H
  H216     1.0000 0.82220  0.43390  0.55870  Biso   1.000  H
  H217     1.0000 0.78670  0.41600  0.66560  Biso   1.000  H
  O63      1.0000 0.52402  0.97003  0.92493  Biso   1.000  O
  C280     1.0000 0.52314  0.94554  0.97029  Biso   1.000  C
  O64      1.0000 0.51169  0.94528  0.03017  Biso   1.000  O
  C281     1.0000 0.53762  0.91311  0.95375  Biso   1.000  C
  C282     1.0000 0.53864  0.88539  0.00177  Biso   1.000  C
  H218     1.0000 0.52927  0.88603  0.04583  Biso   1.000  H
  C283     1.0000 0.55339  0.85661  0.98567  Biso   1.000  C
  H219     1.0000 0.55327  0.83733  0.01873  Biso   1.000  H
  C284     1.0000 0.56761  0.85566  0.92446  Biso   1.000  C
  C285     1.0000 0.56471  0.88190  0.87233  Biso   1.000  C
  H220     1.0000 0.57207  0.87953  0.82763  Biso   1.000  H
  C286     1.0000 0.55054  0.91140  0.89013  Biso   1.000  C
  H221     1.0000 0.54987  0.93043  0.85743  Biso   1.000  H
  C287     1.0000 0.58732  0.82802  0.90663  Biso   1.000  C
  C288     1.0000 0.62461  0.84579  0.86833  Biso   1.000  C
  H222     1.0000 0.63657  0.87513  0.85383  Biso   1.000  H
  H223     1.0000 0.48887  0.76723  0.89203  Biso   1.000  H
  H224     1.0000 0.45337  0.74933  0.99893  Biso   1.000  H
  O65      1.0000 0.19068  0.30337  0.25827  Biso   1.000  O
  C289     1.0000 0.18980  0.27888  0.30363  Biso   1.000  C
  O66      1.0000 0.17835  0.27862  0.36351  Biso   1.000  O
  C290     1.0000 0.20428  0.24645  0.28709  Biso   1.000  C
  C291     1.0000 0.20530  0.21873  0.33511  Biso   1.000  C
  H225     1.0000 0.19593  0.21937  0.37917  Biso   1.000  H
  C292     1.0000 0.22005  0.18995  0.31901  Biso   1.000  C
  H226     1.0000 0.21993  0.17067  0.35207  Biso   1.000  H
  C293     1.0000 0.23427  0.18900  0.25780  Biso   1.000  C
  C294     1.0000 0.23137  0.21524  0.20567  Biso   1.000  C
  H227     1.0000 0.23873  0.21287  0.16097  Biso   1.000  H
  C295     1.0000 0.21720  0.24474  0.22347  Biso   1.000  C
  H228     1.0000 0.21653  0.26377  0.19077  Biso   1.000  H
  C296     1.0000 0.25398  0.16136  0.23997  Biso   1.000  C
  C297     1.0000 0.29127  0.17913  0.20167  Biso   1.000  C
  H229     1.0000 0.30323  0.20847  0.18717  Biso   1.000  H
  H230     1.0000 0.15553  0.10057  0.22537  Biso   1.000  H
  H231     1.0000 0.12003  0.08267  0.33227  Biso   1.000  H
  O67      1.0000 0.77935  0.14265  0.59160  Biso   1.000  O
  C298     1.0000 0.75574  0.14353  0.63696  Biso   1.000  C
  O68      1.0000 0.76693  0.15498  0.69684  Biso   1.000  O
  C299     1.0000 0.70883  0.12905  0.62042  Biso   1.000  C
  C300     1.0000 0.68009  0.12803  0.66844  Biso   1.000  C
  H232     1.0000 0.69010  0.13740  0.71250  Biso   1.000  H
  C301     1.0000 0.63656  0.11328  0.65234  Biso   1.000  C
  H233     1.0000 0.61740  0.11340  0.68540  Biso   1.000  H
  C302     1.0000 0.62139  0.09906  0.59113  Biso   1.000  C
  C303     1.0000 0.65053  0.10196  0.53900  Biso   1.000  C
  H234     1.0000 0.64080  0.09460  0.49430  Biso   1.000  H
  C304     1.0000 0.69420  0.11613  0.55680  Biso   1.000  C
  H235     1.0000 0.71390  0.11680  0.52410  Biso   1.000  H
  C305     1.0000 0.57404  0.07935  0.57330  Biso   1.000  C
  C306     1.0000 0.55452  0.04206  0.53500  Biso   1.000  C
  H236     1.0000 0.57190  0.03010  0.52050  Biso   1.000  H
  H237     1.0000 0.61170  0.17780  0.55870  Biso   1.000  H
  H238     1.0000 0.62930  0.21330  0.66560  Biso   1.000  H
  O69      1.0000 0.44602  0.47598  0.92493  Biso   1.000  O
  C307     1.0000 0.42241  0.47686  0.97029  Biso   1.000  C
  O70      1.0000 0.43360  0.48831  0.03017  Biso   1.000  O
  C308     1.0000 0.37550  0.46238  0.95375  Biso   1.000  C
  C309     1.0000 0.34676  0.46136  0.00177  Biso   1.000  C
  H239     1.0000 0.35677  0.47073  0.04583  Biso   1.000  H
  C310     1.0000 0.30323  0.44661  0.98567  Biso   1.000  C
  H240     1.0000 0.28407  0.44673  0.01873  Biso   1.000  H
  C311     1.0000 0.28806  0.43239  0.92446  Biso   1.000  C
  C312     1.0000 0.31720  0.43529  0.87233  Biso   1.000  C
  H241     1.0000 0.30747  0.42793  0.82763  Biso   1.000  H
  C313     1.0000 0.36087  0.44946  0.89013  Biso   1.000  C
  H242     1.0000 0.38057  0.45013  0.85743  Biso   1.000  H
  C314     1.0000 0.24071  0.41268  0.90663  Biso   1.000  C
  C315     1.0000 0.22119  0.37539  0.86833  Biso   1.000  C
  H243     1.0000 0.23857  0.36343  0.85383  Biso   1.000  H
  H244     1.0000 0.27837  0.51113  0.89203  Biso   1.000  H
  H245     1.0000 0.29597  0.54663  0.99893  Biso   1.000  H
  O71      1.0000 0.11268  0.80932  0.25827  Biso   1.000  O
  C316     1.0000 0.08907  0.81020  0.30363  Biso   1.000  C
  O72      1.0000 0.10026  0.82165  0.36351  Biso   1.000  O
  C317     1.0000 0.04216  0.79572  0.28709  Biso   1.000  C
  C318     1.0000 0.01342  0.79470  0.33511  Biso   1.000  C
  H246     1.0000 0.02343  0.80407  0.37917  Biso   1.000  H
  C319     1.0000 0.96989  0.77995  0.31901  Biso   1.000  C
  H247     1.0000 0.95073  0.78007  0.35207  Biso   1.000  H
  C320     1.0000 0.95472  0.76573  0.25780  Biso   1.000  C
  C321     1.0000 0.98386  0.76863  0.20567  Biso   1.000  C
  H248     1.0000 0.97413  0.76127  0.16097  Biso   1.000  H
  C322     1.0000 0.02753  0.78280  0.22347  Biso   1.000  C
  H249     1.0000 0.04723  0.78347  0.19077  Biso   1.000  H
  C323     1.0000 0.90737  0.74602  0.23997  Biso   1.000  C
  C324     1.0000 0.88785  0.70873  0.20167  Biso   1.000  C
  H250     1.0000 0.90523  0.69677  0.18717  Biso   1.000  H
  H251     1.0000 0.94503  0.84447  0.22537  Biso   1.000  H
  H252     1.0000 0.96263  0.87997  0.33227  Biso   1.000  H
  Cu1      1.0000 0.82620  0.65240  0.72831  Biso   1.000  Cu
  Cu2      1.0000 0.49287  0.98573  0.06164  Biso   1.000  Cu
  Cu3      1.0000 0.15953  0.31907  0.39498  Biso   1.000  Cu
  Cu4      1.0000 0.34760  0.17380  0.72831  Biso   1.000  Cu
  Cu5      1.0000 0.01427  0.50713  0.06164  Biso   1.000  Cu
  Cu6      1.0000 0.68093  0.84047  0.39498  Biso   1.000  Cu
  Cu7      1.0000 0.82620  0.17380  0.72831  Biso   1.000  Cu
  Cu8      1.0000 0.49287  0.50713  0.06164  Biso   1.000  Cu
  Cu9      1.0000 0.15953  0.84047  0.39498  Biso   1.000  Cu
  Cu10     1.0000 0.65240  0.82620  0.27169  Biso   1.000  Cu
  Cu11     1.0000 0.31907  0.15953  0.60502  Biso   1.000  Cu
  Cu12     1.0000 0.98573  0.49287  0.93836  Biso   1.000  Cu
  Cu13     1.0000 0.17380  0.34760  0.27169  Biso   1.000  Cu
  Cu14     1.0000 0.84047  0.68093  0.60502  Biso   1.000  Cu
  Cu15     1.0000 0.50713  0.01427  0.93836  Biso   1.000  Cu
  Cu16     1.0000 0.17380  0.82620  0.27169  Biso   1.000  Cu
  Cu17     1.0000 0.84047  0.15953  0.60502  Biso   1.000  Cu
  Cu18     1.0000 0.50713  0.49287  0.93836  Biso   1.000  Cu
  O73      1.0000 0.56898  0.43102  0.62780  Biso   1.000  O
  C325     1.0000 0.51036  0.48964  0.51620  Biso   1.000  C
  C326     1.0000 0.54955  0.45045  0.59250  Biso   1.000  C
  C327     1.0000 0.58840  0.41160  0.58730  Biso   1.000  C
  C328     1.0000 0.60753  0.39247  0.63760  Biso   1.000  C
  H253     1.0000 0.62140  0.37860  0.61340  Biso   1.000  H
  O74      1.0000 0.23565  0.76435  0.96113  Biso   1.000  O
  C329     1.0000 0.17703  0.82297  0.84953  Biso   1.000  C
  C330     1.0000 0.21622  0.78378  0.92583  Biso   1.000  C
  C331     1.0000 0.25507  0.74493  0.92063  Biso   1.000  C
  C332     1.0000 0.27420  0.72580  0.97093  Biso   1.000  C
  H254     1.0000 0.28807  0.71193  0.94673  Biso   1.000  H
  O75      1.0000 0.90231  0.09769  0.29447  Biso   1.000  O
  C333     1.0000 0.84369  0.15631  0.18287  Biso   1.000  C
  C334     1.0000 0.88288  0.11712  0.25917  Biso   1.000  C
  C335     1.0000 0.92173  0.07827  0.25397  Biso   1.000  C
  C336     1.0000 0.94086  0.05914  0.30427  Biso   1.000  C
  H255     1.0000 0.95473  0.04527  0.28007  Biso   1.000  H
  O76      1.0000 0.56898  0.13796  0.62780  Biso   1.000  O
  C337     1.0000 0.51036  0.02072  0.51620  Biso   1.000  C
  C338     1.0000 0.54955  0.09910  0.59250  Biso   1.000  C
  C339     1.0000 0.58840  0.17680  0.58730  Biso   1.000  C
  C340     1.0000 0.60753  0.21506  0.63760  Biso   1.000  C
  H256     1.0000 0.62140  0.24280  0.61340  Biso   1.000  H
  O77      1.0000 0.23565  0.47129  0.96113  Biso   1.000  O
  C341     1.0000 0.17703  0.35405  0.84953  Biso   1.000  C
  C342     1.0000 0.21622  0.43243  0.92583  Biso   1.000  C
  C343     1.0000 0.25507  0.51013  0.92063  Biso   1.000  C
  C344     1.0000 0.27420  0.54839  0.97093  Biso   1.000  C
  H257     1.0000 0.28807  0.57613  0.94673  Biso   1.000  H
  O78      1.0000 0.90231  0.80463  0.29447  Biso   1.000  O
  C345     1.0000 0.84369  0.68739  0.18287  Biso   1.000  C
  C346     1.0000 0.88288  0.76577  0.25917  Biso   1.000  C
  C347     1.0000 0.92173  0.84347  0.25397  Biso   1.000  C
  C348     1.0000 0.94086  0.88173  0.30427  Biso   1.000  C
  H258     1.0000 0.95473  0.90947  0.28007  Biso   1.000  H
  O79      1.0000 0.86204  0.43102  0.62780  Biso   1.000  O
  C349     1.0000 0.97928  0.48964  0.51620  Biso   1.000  C
  C350     1.0000 0.90090  0.45045  0.59250  Biso   1.000  C
  C351     1.0000 0.82320  0.41160  0.58730  Biso   1.000  C
  C352     1.0000 0.78494  0.39247  0.63760  Biso   1.000  C
  H259     1.0000 0.75720  0.37860  0.61340  Biso   1.000  H
  O80      1.0000 0.52871  0.76435  0.96113  Biso   1.000  O
  C353     1.0000 0.64595  0.82297  0.84953  Biso   1.000  C
  C354     1.0000 0.56757  0.78378  0.92583  Biso   1.000  C
  C355     1.0000 0.48987  0.74493  0.92063  Biso   1.000  C
  C356     1.0000 0.45161  0.72580  0.97093  Biso   1.000  C
  H260     1.0000 0.42387  0.71193  0.94673  Biso   1.000  H
  O81      1.0000 0.19537  0.09769  0.29447  Biso   1.000  O
  C357     1.0000 0.31261  0.15631  0.18287  Biso   1.000  C
  C358     1.0000 0.23423  0.11712  0.25917  Biso   1.000  C
  C359     1.0000 0.15653  0.07827  0.25397  Biso   1.000  C
  C360     1.0000 0.11827  0.05914  0.30427  Biso   1.000  C
  H261     1.0000 0.09053  0.04527  0.28007  Biso   1.000  H
  O82      1.0000 0.43102  0.56898  0.37220  Biso   1.000  O
  C361     1.0000 0.48964  0.51036  0.48380  Biso   1.000  C
  C362     1.0000 0.45045  0.54955  0.40750  Biso   1.000  C
  C363     1.0000 0.41160  0.58840  0.41270  Biso   1.000  C
  C364     1.0000 0.39247  0.60753  0.36240  Biso   1.000  C
  H262     1.0000 0.37860  0.62140  0.38660  Biso   1.000  H
  O83      1.0000 0.09769  0.90231  0.70553  Biso   1.000  O
  C365     1.0000 0.15631  0.84369  0.81713  Biso   1.000  C
  C366     1.0000 0.11712  0.88288  0.74083  Biso   1.000  C
  C367     1.0000 0.07827  0.92173  0.74603  Biso   1.000  C
  C368     1.0000 0.05914  0.94086  0.69573  Biso   1.000  C
  H263     1.0000 0.04527  0.95473  0.71993  Biso   1.000  H
  O84      1.0000 0.76435  0.23565  0.03887  Biso   1.000  O
  C369     1.0000 0.82297  0.17703  0.15047  Biso   1.000  C
  C370     1.0000 0.78378  0.21622  0.07417  Biso   1.000  C
  C371     1.0000 0.74493  0.25507  0.07937  Biso   1.000  C
  C372     1.0000 0.72580  0.27420  0.02907  Biso   1.000  C
  H264     1.0000 0.71193  0.28807  0.05327  Biso   1.000  H
  O85      1.0000 0.13796  0.56898  0.37220  Biso   1.000  O
  C373     1.0000 0.02072  0.51036  0.48380  Biso   1.000  C
  C374     1.0000 0.09910  0.54955  0.40750  Biso   1.000  C
  C375     1.0000 0.17680  0.58840  0.41270  Biso   1.000  C
  C376     1.0000 0.21506  0.60753  0.36240  Biso   1.000  C
  H265     1.0000 0.24280  0.62140  0.38660  Biso   1.000  H
  O86      1.0000 0.80463  0.90231  0.70553  Biso   1.000  O
  C377     1.0000 0.68739  0.84369  0.81713  Biso   1.000  C
  C378     1.0000 0.76577  0.88288  0.74083  Biso   1.000  C
  C379     1.0000 0.84347  0.92173  0.74603  Biso   1.000  C
  C380     1.0000 0.88173  0.94086  0.69573  Biso   1.000  C
  H266     1.0000 0.90947  0.95473  0.71993  Biso   1.000  H
  O87      1.0000 0.47129  0.23565  0.03887  Biso   1.000  O
  C381     1.0000 0.35405  0.17703  0.15047  Biso   1.000  C
  C382     1.0000 0.43243  0.21622  0.07417  Biso   1.000  C
  C383     1.0000 0.51013  0.25507  0.07937  Biso   1.000  C
  C384     1.0000 0.54839  0.27420  0.02907  Biso   1.000  C
  H267     1.0000 0.57613  0.28807  0.05327  Biso   1.000  H
  O88      1.0000 0.43102  0.86204  0.37220  Biso   1.000  O
  C385     1.0000 0.48964  0.97928  0.48380  Biso   1.000  C
  C386     1.0000 0.45045  0.90090  0.40750  Biso   1.000  C
  C387     1.0000 0.41160  0.82320  0.41270  Biso   1.000  C
  C388     1.0000 0.39247  0.78494  0.36240  Biso   1.000  C
  H268     1.0000 0.37860  0.75720  0.38660  Biso   1.000  H
  O89      1.0000 0.09769  0.19537  0.70553  Biso   1.000  O
  C389     1.0000 0.15631  0.31261  0.81713  Biso   1.000  C
  C390     1.0000 0.11712  0.23423  0.74083  Biso   1.000  C
  C391     1.0000 0.07827  0.15653  0.74603  Biso   1.000  C
  C392     1.0000 0.05914  0.11827  0.69573  Biso   1.000  C
  H269     1.0000 0.04527  0.09053  0.71993  Biso   1.000  H
  O90      1.0000 0.76435  0.52871  0.03887  Biso   1.000  O
  C393     1.0000 0.82297  0.64595  0.15047  Biso   1.000  C
  C394     1.0000 0.78378  0.56757  0.07417  Biso   1.000  C
  C395     1.0000 0.74493  0.48987  0.07937  Biso   1.000  C
  C396     1.0000 0.72580  0.45161  0.02907  Biso   1.000  C
  H270     1.0000 0.71193  0.42387  0.05327  Biso   1.000  H
