data_image0
_cell_length_a       25.807
_cell_length_b       29.405
_cell_length_c       19.637
_cell_angle_alpha    90
_cell_angle_beta     90
_cell_angle_gamma    90

_symmetry_space_group_name_H-M    "P 1"
_symmetry_int_tables_number       1

loop_
  _symmetry_equiv_pos_as_xyz
  'x, y, z'

loop_
  _atom_site_label
  _atom_site_occupancy
  _atom_site_fract_x
  _atom_site_fract_y
  _atom_site_fract_z
  _atom_site_thermal_displace_type
  _atom_site_B_iso_or_equiv
  _atom_site_type_symbol
  Zn1      1.0000 0.82821  0.45123  0.33573  Biso   1.000  Zn
  Zn2      1.0000 0.68566  0.43537  0.08614  Biso   1.000  Zn
  Zn3      1.0000 0.74542  0.50338  0.96705  Biso   1.000  Zn
  C1       1.0000 0.89670  0.65180  0.19770  Biso   1.000  C
  C2       1.0000 0.81780  0.54900  0.36950  Biso   1.000  C
  C3       1.0000 0.85670  0.60290  0.28910  Biso   1.000  C
  H1       1.0000 0.85520  0.57950  0.25720  Biso   1.000  H
  C4       1.0000 0.83840  0.59580  0.35390  Biso   1.000  C
  C5       1.0000 0.83780  0.63060  0.40150  Biso   1.000  C
  C6       1.0000 0.81930  0.62420  0.47390  Biso   1.000  C
  C7       1.0000 0.86910  0.41200  0.13880  Biso   1.000  C
  C8       1.0000 0.85420  0.44190  0.19890  Biso   1.000  C
  C9       1.0000 0.90280  0.35590  0.03220  Biso   1.000  C
  C10      1.0000 0.90850  0.37900  0.14940  Biso   1.000  C
  H2       1.0000 0.92330  0.37590  0.19240  Biso   1.000  H
  C11      1.0000 0.86490  0.38860  0.02240  Biso   1.000  C
  H3       1.0000 0.85120  0.39250  0.97900  Biso   1.000  H
  C12      1.0000 0.84660  0.41580  0.07540  Biso   1.000  C
  C13      1.0000 0.91660  0.32660  0.97250  Biso   1.000  C
  C14      1.0000 0.85850  0.67230  0.38360  Biso   1.000  C
  H4       1.0000 0.85810  0.69620  0.41450  Biso   1.000  H
  C15      1.0000 0.87770  0.64560  0.27090  Biso   1.000  C
  C16      1.0000 0.87980  0.67840  0.31950  Biso   1.000  C
  C17      1.0000 0.79870  0.44390  0.06020  Biso   1.000  C
  C18      1.0000 0.92500  0.35140  0.09650  Biso   1.000  C
  C19      1.0000 0.96800  0.31910  0.11310  Biso   1.000  C
  C20      1.0000 0.91350  0.71930  0.30460  Biso   1.000  C
  O1       1.0000 0.76050  0.43520  0.09700  Biso   1.000  O
  O2       1.0000 0.80140  0.47000  0.01250  Biso   1.000  O
  O3       1.0000 0.92660  0.28590  0.98220  Biso   1.000  O
  O4       1.0000 0.91470  0.34700  0.91620  Biso   1.000  O
  O5       1.0000 0.84160  0.59320  0.50640  Biso   1.000  O
  O6       1.0000 0.78390  0.64850  0.49550  Biso   1.000  O
  O7       1.0000 0.78060  0.54550  0.41080  Biso   1.000  O
  O8       1.0000 0.83910  0.51600  0.33920  Biso   1.000  O
  O9       1.0000 0.89390  0.68780  0.17310  Biso   1.000  O
  O10      1.0000 0.86090  0.42490  0.25670  Biso   1.000  O
  O11      1.0000 0.00730  0.32080  0.07380  Biso   1.000  O
  O12      1.0000 0.96320  0.29530  0.16370  Biso   1.000  O
  O13      1.0000 0.90390  0.75340  0.32660  Biso   1.000  O
  O14      1.0000 0.95410  0.71340  0.26950  Biso   1.000  O
  O15      1.0000 0.83860  0.48060  0.18630  Biso   1.000  O
  O16      1.0000 0.91460  0.62040  0.16790  Biso   1.000  O
  Zn4      1.0000 0.82821  0.95123  0.83573  Biso   1.000  Zn
  Zn5      1.0000 0.68566  0.93537  0.58614  Biso   1.000  Zn
  Zn6      1.0000 0.74542  0.00338  0.46705  Biso   1.000  Zn
  C21      1.0000 0.89670  0.15180  0.69770  Biso   1.000  C
  C22      1.0000 0.81780  0.04900  0.86950  Biso   1.000  C
  C23      1.0000 0.85670  0.10290  0.78910  Biso   1.000  C
  H5       1.0000 0.85520  0.07950  0.75720  Biso   1.000  H
  C24      1.0000 0.83840  0.09580  0.85390  Biso   1.000  C
  C25      1.0000 0.83780  0.13060  0.90150  Biso   1.000  C
  C26      1.0000 0.81930  0.12420  0.97390  Biso   1.000  C
  C27      1.0000 0.86910  0.91200  0.63880  Biso   1.000  C
  C28      1.0000 0.85420  0.94190  0.69890  Biso   1.000  C
  C29      1.0000 0.90280  0.85590  0.53220  Biso   1.000  C
  C30      1.0000 0.90850  0.87900  0.64940  Biso   1.000  C
  H6       1.0000 0.92330  0.87590  0.69240  Biso   1.000  H
  C31      1.0000 0.86490  0.88860  0.52240  Biso   1.000  C
  H7       1.0000 0.85120  0.89250  0.47900  Biso   1.000  H
  C32      1.0000 0.84660  0.91580  0.57540  Biso   1.000  C
  C33      1.0000 0.91660  0.82660  0.47250  Biso   1.000  C
  C34      1.0000 0.85850  0.17230  0.88360  Biso   1.000  C
  H8       1.0000 0.85810  0.19620  0.91450  Biso   1.000  H
  C35      1.0000 0.87770  0.14560  0.77090  Biso   1.000  C
  C36      1.0000 0.87980  0.17840  0.81950  Biso   1.000  C
  C37      1.0000 0.79870  0.94390  0.56020  Biso   1.000  C
  C38      1.0000 0.92500  0.85140  0.59650  Biso   1.000  C
  C39      1.0000 0.96800  0.81910  0.61310  Biso   1.000  C
  C40      1.0000 0.91350  0.21930  0.80460  Biso   1.000  C
  O17      1.0000 0.76050  0.93520  0.59700  Biso   1.000  O
  O18      1.0000 0.80140  0.97000  0.51250  Biso   1.000  O
  O19      1.0000 0.92660  0.78590  0.48220  Biso   1.000  O
  O20      1.0000 0.91470  0.84700  0.41620  Biso   1.000  O
  O21      1.0000 0.84160  0.09320  0.00640  Biso   1.000  O
  O22      1.0000 0.78390  0.14850  0.99550  Biso   1.000  O
  O23      1.0000 0.78060  0.04550  0.91080  Biso   1.000  O
  O24      1.0000 0.83910  0.01600  0.83920  Biso   1.000  O
  O25      1.0000 0.89390  0.18780  0.67310  Biso   1.000  O
  O26      1.0000 0.86090  0.92490  0.75670  Biso   1.000  O
  O27      1.0000 0.00730  0.82080  0.57380  Biso   1.000  O
  O28      1.0000 0.96320  0.79530  0.66370  Biso   1.000  O
  O29      1.0000 0.90390  0.25340  0.82660  Biso   1.000  O
  O30      1.0000 0.95410  0.21340  0.76950  Biso   1.000  O
  O31      1.0000 0.83860  0.98060  0.68630  Biso   1.000  O
  O32      1.0000 0.91460  0.12040  0.66790  Biso   1.000  O
  Zn7      1.0000 0.32821  0.45123  0.83573  Biso   1.000  Zn
  Zn8      1.0000 0.18566  0.43537  0.58614  Biso   1.000  Zn
  Zn9      1.0000 0.24542  0.50338  0.46705  Biso   1.000  Zn
  C41      1.0000 0.39670  0.65180  0.69770  Biso   1.000  C
  C42      1.0000 0.31780  0.54900  0.86950  Biso   1.000  C
  C43      1.0000 0.35670  0.60290  0.78910  Biso   1.000  C
  H9       1.0000 0.35520  0.57950  0.75720  Biso   1.000  H
  C44      1.0000 0.33840  0.59580  0.85390  Biso   1.000  C
  C45      1.0000 0.33780  0.63060  0.90150  Biso   1.000  C
  C46      1.0000 0.31930  0.62420  0.97390  Biso   1.000  C
  C47      1.0000 0.36910  0.41200  0.63880  Biso   1.000  C
  C48      1.0000 0.35420  0.44190  0.69890  Biso   1.000  C
  C49      1.0000 0.40280  0.35590  0.53220  Biso   1.000  C
  C50      1.0000 0.40850  0.37900  0.64940  Biso   1.000  C
  H10      1.0000 0.42330  0.37590  0.69240  Biso   1.000  H
  C51      1.0000 0.36490  0.38860  0.52240  Biso   1.000  C
  H11      1.0000 0.35120  0.39250  0.47900  Biso   1.000  H
  C52      1.0000 0.34660  0.41580  0.57540  Biso   1.000  C
  C53      1.0000 0.41660  0.32660  0.47250  Biso   1.000  C
  C54      1.0000 0.35850  0.67230  0.88360  Biso   1.000  C
  H12      1.0000 0.35810  0.69620  0.91450  Biso   1.000  H
  C55      1.0000 0.37770  0.64560  0.77090  Biso   1.000  C
  C56      1.0000 0.37980  0.67840  0.81950  Biso   1.000  C
  C57      1.0000 0.29870  0.44390  0.56020  Biso   1.000  C
  C58      1.0000 0.42500  0.35140  0.59650  Biso   1.000  C
  C59      1.0000 0.46800  0.31910  0.61310  Biso   1.000  C
  C60      1.0000 0.41350  0.71930  0.80460  Biso   1.000  C
  O33      1.0000 0.26050  0.43520  0.59700  Biso   1.000  O
  O34      1.0000 0.30140  0.47000  0.51250  Biso   1.000  O
  O35      1.0000 0.42660  0.28590  0.48220  Biso   1.000  O
  O36      1.0000 0.41470  0.34700  0.41620  Biso   1.000  O
  O37      1.0000 0.34160  0.59320  0.00640  Biso   1.000  O
  O38      1.0000 0.28390  0.64850  0.99550  Biso   1.000  O
  O39      1.0000 0.28060  0.54550  0.91080  Biso   1.000  O
  O40      1.0000 0.33910  0.51600  0.83920  Biso   1.000  O
  O41      1.0000 0.39390  0.68780  0.67310  Biso   1.000  O
  O42      1.0000 0.36090  0.42490  0.75670  Biso   1.000  O
  O43      1.0000 0.50730  0.32080  0.57380  Biso   1.000  O
  O44      1.0000 0.46320  0.29530  0.66370  Biso   1.000  O
  O45      1.0000 0.40390  0.75340  0.82660  Biso   1.000  O
  O46      1.0000 0.45410  0.71340  0.76950  Biso   1.000  O
  O47      1.0000 0.33860  0.48060  0.68630  Biso   1.000  O
  O48      1.0000 0.41460  0.62040  0.66790  Biso   1.000  O
  Zn10     1.0000 0.32821  0.95123  0.33573  Biso   1.000  Zn
  Zn11     1.0000 0.18566  0.93537  0.08614  Biso   1.000  Zn
  Zn12     1.0000 0.24542  0.00338  0.96705  Biso   1.000  Zn
  C61      1.0000 0.39670  0.15180  0.19770  Biso   1.000  C
  C62      1.0000 0.31780  0.04900  0.36950  Biso   1.000  C
  C63      1.0000 0.35670  0.10290  0.28910  Biso   1.000  C
  H13      1.0000 0.35520  0.07950  0.25720  Biso   1.000  H
  C64      1.0000 0.33840  0.09580  0.35390  Biso   1.000  C
  C65      1.0000 0.33780  0.13060  0.40150  Biso   1.000  C
  C66      1.0000 0.31930  0.12420  0.47390  Biso   1.000  C
  C67      1.0000 0.36910  0.91200  0.13880  Biso   1.000  C
  C68      1.0000 0.35420  0.94190  0.19890  Biso   1.000  C
  C69      1.0000 0.40280  0.85590  0.03220  Biso   1.000  C
  C70      1.0000 0.40850  0.87900  0.14940  Biso   1.000  C
  H14      1.0000 0.42330  0.87590  0.19240  Biso   1.000  H
  C71      1.0000 0.36490  0.88860  0.02240  Biso   1.000  C
  H15      1.0000 0.35120  0.89250  0.97900  Biso   1.000  H
  C72      1.0000 0.34660  0.91580  0.07540  Biso   1.000  C
  C73      1.0000 0.41660  0.82660  0.97250  Biso   1.000  C
  C74      1.0000 0.35850  0.17230  0.38360  Biso   1.000  C
  H16      1.0000 0.35810  0.19620  0.41450  Biso   1.000  H
  C75      1.0000 0.37770  0.14560  0.27090  Biso   1.000  C
  C76      1.0000 0.37980  0.17840  0.31950  Biso   1.000  C
  C77      1.0000 0.29870  0.94390  0.06020  Biso   1.000  C
  C78      1.0000 0.42500  0.85140  0.09650  Biso   1.000  C
  C79      1.0000 0.46800  0.81910  0.11310  Biso   1.000  C
  C80      1.0000 0.41350  0.21930  0.30460  Biso   1.000  C
  O49      1.0000 0.26050  0.93520  0.09700  Biso   1.000  O
  O50      1.0000 0.30140  0.97000  0.01250  Biso   1.000  O
  O51      1.0000 0.42660  0.78590  0.98220  Biso   1.000  O
  O52      1.0000 0.41470  0.84700  0.91620  Biso   1.000  O
  O53      1.0000 0.34160  0.09320  0.50640  Biso   1.000  O
  O54      1.0000 0.28390  0.14850  0.49550  Biso   1.000  O
  O55      1.0000 0.28060  0.04550  0.41080  Biso   1.000  O
  O56      1.0000 0.33910  0.01600  0.33920  Biso   1.000  O
  O57      1.0000 0.39390  0.18780  0.17310  Biso   1.000  O
  O58      1.0000 0.36090  0.92490  0.25670  Biso   1.000  O
  O59      1.0000 0.50730  0.82080  0.07380  Biso   1.000  O
  O60      1.0000 0.46320  0.79530  0.16370  Biso   1.000  O
  O61      1.0000 0.40390  0.25340  0.32660  Biso   1.000  O
  O62      1.0000 0.45410  0.21340  0.26950  Biso   1.000  O
  O63      1.0000 0.33860  0.98060  0.18630  Biso   1.000  O
  O64      1.0000 0.41460  0.12040  0.16790  Biso   1.000  O
  Zn13     1.0000 0.17179  0.54877  0.33573  Biso   1.000  Zn
  Zn14     1.0000 0.31434  0.56463  0.08614  Biso   1.000  Zn
  Zn15     1.0000 0.25458  0.49662  0.96705  Biso   1.000  Zn
  C81      1.0000 0.10330  0.34820  0.19770  Biso   1.000  C
  C82      1.0000 0.18220  0.45100  0.36950  Biso   1.000  C
  C83      1.0000 0.14330  0.39710  0.28910  Biso   1.000  C
  H17      1.0000 0.14480  0.42050  0.25720  Biso   1.000  H
  C84      1.0000 0.16160  0.40420  0.35390  Biso   1.000  C
  C85      1.0000 0.16220  0.36940  0.40150  Biso   1.000  C
  C86      1.0000 0.18070  0.37580  0.47390  Biso   1.000  C
  C87      1.0000 0.13090  0.58800  0.13880  Biso   1.000  C
  C88      1.0000 0.14580  0.55810  0.19890  Biso   1.000  C
  C89      1.0000 0.09720  0.64410  0.03220  Biso   1.000  C
  C90      1.0000 0.09150  0.62100  0.14940  Biso   1.000  C
  H18      1.0000 0.07670  0.62410  0.19240  Biso   1.000  H
  C91      1.0000 0.13510  0.61140  0.02240  Biso   1.000  C
  H19      1.0000 0.14880  0.60750  0.97900  Biso   1.000  H
  C92      1.0000 0.15340  0.58420  0.07540  Biso   1.000  C
  C93      1.0000 0.08340  0.67340  0.97250  Biso   1.000  C
  C94      1.0000 0.14150  0.32770  0.38360  Biso   1.000  C
  H20      1.0000 0.14190  0.30380  0.41450  Biso   1.000  H
  C95      1.0000 0.12230  0.35440  0.27090  Biso   1.000  C
  C96      1.0000 0.12020  0.32160  0.31950  Biso   1.000  C
  C97      1.0000 0.20130  0.55610  0.06020  Biso   1.000  C
  C98      1.0000 0.07500  0.64860  0.09650  Biso   1.000  C
  C99      1.0000 0.03200  0.68090  0.11310  Biso   1.000  C
  C100     1.0000 0.08650  0.28070  0.30460  Biso   1.000  C
  O65      1.0000 0.23950  0.56480  0.09700  Biso   1.000  O
  O66      1.0000 0.19860  0.53000  0.01250  Biso   1.000  O
  O67      1.0000 0.07340  0.71410  0.98220  Biso   1.000  O
  O68      1.0000 0.08530  0.65300  0.91620  Biso   1.000  O
  O69      1.0000 0.15840  0.40680  0.50640  Biso   1.000  O
  O70      1.0000 0.21610  0.35150  0.49550  Biso   1.000  O
  O71      1.0000 0.21940  0.45450  0.41080  Biso   1.000  O
  O72      1.0000 0.16090  0.48400  0.33920  Biso   1.000  O
  O73      1.0000 0.10610  0.31220  0.17310  Biso   1.000  O
  O74      1.0000 0.13910  0.57510  0.25670  Biso   1.000  O
  O75      1.0000 0.99270  0.67920  0.07380  Biso   1.000  O
  O76      1.0000 0.03680  0.70470  0.16370  Biso   1.000  O
  O77      1.0000 0.09610  0.24660  0.32660  Biso   1.000  O
  O78      1.0000 0.04590  0.28660  0.26950  Biso   1.000  O
  O79      1.0000 0.16140  0.51940  0.18630  Biso   1.000  O
  O80      1.0000 0.08540  0.37960  0.16790  Biso   1.000  O
  Zn16     1.0000 0.17179  0.04877  0.83573  Biso   1.000  Zn
  Zn17     1.0000 0.31434  0.06463  0.58614  Biso   1.000  Zn
  Zn18     1.0000 0.25458  0.99662  0.46705  Biso   1.000  Zn
  C101     1.0000 0.10330  0.84820  0.69770  Biso   1.000  C
  C102     1.0000 0.18220  0.95100  0.86950  Biso   1.000  C
  C103     1.0000 0.14330  0.89710  0.78910  Biso   1.000  C
  H21      1.0000 0.14480  0.92050  0.75720  Biso   1.000  H
  C104     1.0000 0.16160  0.90420  0.85390  Biso   1.000  C
  C105     1.0000 0.16220  0.86940  0.90150  Biso   1.000  C
  C106     1.0000 0.18070  0.87580  0.97390  Biso   1.000  C
  C107     1.0000 0.13090  0.08800  0.63880  Biso   1.000  C
  C108     1.0000 0.14580  0.05810  0.69890  Biso   1.000  C
  C109     1.0000 0.09720  0.14410  0.53220  Biso   1.000  C
  C110     1.0000 0.09150  0.12100  0.64940  Biso   1.000  C
  H22      1.0000 0.07670  0.12410  0.69240  Biso   1.000  H
  C111     1.0000 0.13510  0.11140  0.52240  Biso   1.000  C
  H23      1.0000 0.14880  0.10750  0.47900  Biso   1.000  H
  C112     1.0000 0.15340  0.08420  0.57540  Biso   1.000  C
  C113     1.0000 0.08340  0.17340  0.47250  Biso   1.000  C
  C114     1.0000 0.14150  0.82770  0.88360  Biso   1.000  C
  H24      1.0000 0.14190  0.80380  0.91450  Biso   1.000  H
  C115     1.0000 0.12230  0.85440  0.77090  Biso   1.000  C
  C116     1.0000 0.12020  0.82160  0.81950  Biso   1.000  C
  C117     1.0000 0.20130  0.05610  0.56020  Biso   1.000  C
  C118     1.0000 0.07500  0.14860  0.59650  Biso   1.000  C
  C119     1.0000 0.03200  0.18090  0.61310  Biso   1.000  C
  C120     1.0000 0.08650  0.78070  0.80460  Biso   1.000  C
  O81      1.0000 0.23950  0.06480  0.59700  Biso   1.000  O
  O82      1.0000 0.19860  0.03000  0.51250  Biso   1.000  O
  O83      1.0000 0.07340  0.21410  0.48220  Biso   1.000  O
  O84      1.0000 0.08530  0.15300  0.41620  Biso   1.000  O
  O85      1.0000 0.15840  0.90680  0.00640  Biso   1.000  O
  O86      1.0000 0.21610  0.85150  0.99550  Biso   1.000  O
  O87      1.0000 0.21940  0.95450  0.91080  Biso   1.000  O
  O88      1.0000 0.16090  0.98400  0.83920  Biso   1.000  O
  O89      1.0000 0.10610  0.81220  0.67310  Biso   1.000  O
  O90      1.0000 0.13910  0.07510  0.75670  Biso   1.000  O
  O91      1.0000 0.99270  0.17920  0.57380  Biso   1.000  O
  O92      1.0000 0.03680  0.20470  0.66370  Biso   1.000  O
  O93      1.0000 0.09610  0.74660  0.82660  Biso   1.000  O
  O94      1.0000 0.04590  0.78660  0.76950  Biso   1.000  O
  O95      1.0000 0.16140  0.01940  0.68630  Biso   1.000  O
  O96      1.0000 0.08540  0.87960  0.66790  Biso   1.000  O
  Zn19     1.0000 0.67179  0.54877  0.83573  Biso   1.000  Zn
  Zn20     1.0000 0.81434  0.56463  0.58614  Biso   1.000  Zn
  Zn21     1.0000 0.75458  0.49662  0.46705  Biso   1.000  Zn
  C121     1.0000 0.60330  0.34820  0.69770  Biso   1.000  C
  C122     1.0000 0.68220  0.45100  0.86950  Biso   1.000  C
  C123     1.0000 0.64330  0.39710  0.78910  Biso   1.000  C
  H25      1.0000 0.64480  0.42050  0.75720  Biso   1.000  H
  C124     1.0000 0.66160  0.40420  0.85390  Biso   1.000  C
  C125     1.0000 0.66220  0.36940  0.90150  Biso   1.000  C
  C126     1.0000 0.68070  0.37580  0.97390  Biso   1.000  C
  C127     1.0000 0.63090  0.58800  0.63880  Biso   1.000  C
  C128     1.0000 0.64580  0.55810  0.69890  Biso   1.000  C
  C129     1.0000 0.59720  0.64410  0.53220  Biso   1.000  C
  C130     1.0000 0.59150  0.62100  0.64940  Biso   1.000  C
  H26      1.0000 0.57670  0.62410  0.69240  Biso   1.000  H
  C131     1.0000 0.63510  0.61140  0.52240  Biso   1.000  C
  H27      1.0000 0.64880  0.60750  0.47900  Biso   1.000  H
  C132     1.0000 0.65340  0.58420  0.57540  Biso   1.000  C
  C133     1.0000 0.58340  0.67340  0.47250  Biso   1.000  C
  C134     1.0000 0.64150  0.32770  0.88360  Biso   1.000  C
  H28      1.0000 0.64190  0.30380  0.91450  Biso   1.000  H
  C135     1.0000 0.62230  0.35440  0.77090  Biso   1.000  C
  C136     1.0000 0.62020  0.32160  0.81950  Biso   1.000  C
  C137     1.0000 0.70130  0.55610  0.56020  Biso   1.000  C
  C138     1.0000 0.57500  0.64860  0.59650  Biso   1.000  C
  C139     1.0000 0.53200  0.68090  0.61310  Biso   1.000  C
  C140     1.0000 0.58650  0.28070  0.80460  Biso   1.000  C
  O97      1.0000 0.73950  0.56480  0.59700  Biso   1.000  O
  O98      1.0000 0.69860  0.53000  0.51250  Biso   1.000  O
  O99      1.0000 0.57340  0.71410  0.48220  Biso   1.000  O
  O100     1.0000 0.58530  0.65300  0.41620  Biso   1.000  O
  O101     1.0000 0.65840  0.40680  0.00640  Biso   1.000  O
  O102     1.0000 0.71610  0.35150  0.99550  Biso   1.000  O
  O103     1.0000 0.71940  0.45450  0.91080  Biso   1.000  O
  O104     1.0000 0.66090  0.48400  0.83920  Biso   1.000  O
  O105     1.0000 0.60610  0.31220  0.67310  Biso   1.000  O
  O106     1.0000 0.63910  0.57510  0.75670  Biso   1.000  O
  O107     1.0000 0.49270  0.67920  0.57380  Biso   1.000  O
  O108     1.0000 0.53680  0.70470  0.66370  Biso   1.000  O
  O109     1.0000 0.59610  0.24660  0.82660  Biso   1.000  O
  O110     1.0000 0.54590  0.28660  0.76950  Biso   1.000  O
  O111     1.0000 0.66140  0.51940  0.68630  Biso   1.000  O
  O112     1.0000 0.58540  0.37960  0.66790  Biso   1.000  O
  Zn22     1.0000 0.67179  0.04877  0.33573  Biso   1.000  Zn
  Zn23     1.0000 0.81434  0.06463  0.08614  Biso   1.000  Zn
  Zn24     1.0000 0.75458  0.99662  0.96705  Biso   1.000  Zn
  C141     1.0000 0.60330  0.84820  0.19770  Biso   1.000  C
  C142     1.0000 0.68220  0.95100  0.36950  Biso   1.000  C
  C143     1.0000 0.64330  0.89710  0.28910  Biso   1.000  C
  H29      1.0000 0.64480  0.92050  0.25720  Biso   1.000  H
  C144     1.0000 0.66160  0.90420  0.35390  Biso   1.000  C
  C145     1.0000 0.66220  0.86940  0.40150  Biso   1.000  C
  C146     1.0000 0.68070  0.87580  0.47390  Biso   1.000  C
  C147     1.0000 0.63090  0.08800  0.13880  Biso   1.000  C
  C148     1.0000 0.64580  0.05810  0.19890  Biso   1.000  C
  C149     1.0000 0.59720  0.14410  0.03220  Biso   1.000  C
  C150     1.0000 0.59150  0.12100  0.14940  Biso   1.000  C
  H30      1.0000 0.57670  0.12410  0.19240  Biso   1.000  H
  C151     1.0000 0.63510  0.11140  0.02240  Biso   1.000  C
  H31      1.0000 0.64880  0.10750  0.97900  Biso   1.000  H
  C152     1.0000 0.65340  0.08420  0.07540  Biso   1.000  C
  C153     1.0000 0.58340  0.17340  0.97250  Biso   1.000  C
  C154     1.0000 0.64150  0.82770  0.38360  Biso   1.000  C
  H32      1.0000 0.64190  0.80380  0.41450  Biso   1.000  H
  C155     1.0000 0.62230  0.85440  0.27090  Biso   1.000  C
  C156     1.0000 0.62020  0.82160  0.31950  Biso   1.000  C
  C157     1.0000 0.70130  0.05610  0.06020  Biso   1.000  C
  C158     1.0000 0.57500  0.14860  0.09650  Biso   1.000  C
  C159     1.0000 0.53200  0.18090  0.11310  Biso   1.000  C
  C160     1.0000 0.58650  0.78070  0.30460  Biso   1.000  C
  O113     1.0000 0.73950  0.06480  0.09700  Biso   1.000  O
  O114     1.0000 0.69860  0.03000  0.01250  Biso   1.000  O
  O115     1.0000 0.57340  0.21410  0.98220  Biso   1.000  O
  O116     1.0000 0.58530  0.15300  0.91620  Biso   1.000  O
  O117     1.0000 0.65840  0.90680  0.50640  Biso   1.000  O
  O118     1.0000 0.71610  0.85150  0.49550  Biso   1.000  O
  O119     1.0000 0.71940  0.95450  0.41080  Biso   1.000  O
  O120     1.0000 0.66090  0.98400  0.33920  Biso   1.000  O
  O121     1.0000 0.60610  0.81220  0.17310  Biso   1.000  O
  O122     1.0000 0.63910  0.07510  0.25670  Biso   1.000  O
  O123     1.0000 0.49270  0.17920  0.07380  Biso   1.000  O
  O124     1.0000 0.53680  0.20470  0.16370  Biso   1.000  O
  O125     1.0000 0.59610  0.74660  0.32660  Biso   1.000  O
  O126     1.0000 0.54590  0.78660  0.26950  Biso   1.000  O
  O127     1.0000 0.66140  0.01940  0.18630  Biso   1.000  O
  O128     1.0000 0.58540  0.87960  0.16790  Biso   1.000  O
  Zn25     1.0000 0.07821  0.79877  0.58573  Biso   1.000  Zn
  Zn26     1.0000 0.93566  0.81463  0.33614  Biso   1.000  Zn
  Zn27     1.0000 0.99542  0.74662  0.21705  Biso   1.000  Zn
  C161     1.0000 0.14670  0.59820  0.44770  Biso   1.000  C
  C162     1.0000 0.06780  0.70100  0.61950  Biso   1.000  C
  C163     1.0000 0.10670  0.64710  0.53910  Biso   1.000  C
  H33      1.0000 0.10520  0.67050  0.50720  Biso   1.000  H
  C164     1.0000 0.08840  0.65420  0.60390  Biso   1.000  C
  C165     1.0000 0.08780  0.61940  0.65150  Biso   1.000  C
  C166     1.0000 0.06930  0.62580  0.72390  Biso   1.000  C
  C167     1.0000 0.11910  0.83800  0.38880  Biso   1.000  C
  C168     1.0000 0.10420  0.80810  0.44890  Biso   1.000  C
  C169     1.0000 0.15280  0.89410  0.28220  Biso   1.000  C
  C170     1.0000 0.15850  0.87100  0.39940  Biso   1.000  C
  H34      1.0000 0.17330  0.87410  0.44240  Biso   1.000  H
  C171     1.0000 0.11490  0.86140  0.27240  Biso   1.000  C
  H35      1.0000 0.10120  0.85750  0.22900  Biso   1.000  H
  C172     1.0000 0.09660  0.83420  0.32540  Biso   1.000  C
  C173     1.0000 0.16660  0.92340  0.22250  Biso   1.000  C
  C174     1.0000 0.10850  0.57770  0.63360  Biso   1.000  C
  H36      1.0000 0.10810  0.55380  0.66450  Biso   1.000  H
  C175     1.0000 0.12770  0.60440  0.52090  Biso   1.000  C
  C176     1.0000 0.12980  0.57160  0.56950  Biso   1.000  C
  C177     1.0000 0.04870  0.80610  0.31020  Biso   1.000  C
  C178     1.0000 0.17500  0.89860  0.34650  Biso   1.000  C
  C179     1.0000 0.21800  0.93090  0.36310  Biso   1.000  C
  C180     1.0000 0.16350  0.53070  0.55460  Biso   1.000  C
  O129     1.0000 0.01050  0.81480  0.34700  Biso   1.000  O
  O130     1.0000 0.05140  0.78000  0.26250  Biso   1.000  O
  O131     1.0000 0.17660  0.96410  0.23220  Biso   1.000  O
  O132     1.0000 0.16470  0.90300  0.16620  Biso   1.000  O
  O133     1.0000 0.09160  0.65680  0.75640  Biso   1.000  O
  O134     1.0000 0.03390  0.60150  0.74550  Biso   1.000  O
  O135     1.0000 0.03060  0.70450  0.66080  Biso   1.000  O
  O136     1.0000 0.08910  0.73400  0.58920  Biso   1.000  O
  O137     1.0000 0.14390  0.56220  0.42310  Biso   1.000  O
  O138     1.0000 0.11090  0.82510  0.50670  Biso   1.000  O
  O139     1.0000 0.25730  0.92920  0.32380  Biso   1.000  O
  O140     1.0000 0.21320  0.95470  0.41370  Biso   1.000  O
  O141     1.0000 0.15390  0.49660  0.57660  Biso   1.000  O
  O142     1.0000 0.20410  0.53660  0.51950  Biso   1.000  O
  O143     1.0000 0.08860  0.76940  0.43630  Biso   1.000  O
  O144     1.0000 0.16460  0.62960  0.41790  Biso   1.000  O
  Zn28     1.0000 0.07821  0.29877  0.08573  Biso   1.000  Zn
  Zn29     1.0000 0.93566  0.31463  0.83614  Biso   1.000  Zn
  Zn30     1.0000 0.99542  0.24662  0.71705  Biso   1.000  Zn
  C181     1.0000 0.14670  0.09820  0.94770  Biso   1.000  C
  C182     1.0000 0.06780  0.20100  0.11950  Biso   1.000  C
  C183     1.0000 0.10670  0.14710  0.03910  Biso   1.000  C
  H37      1.0000 0.10520  0.17050  0.00720  Biso   1.000  H
  C184     1.0000 0.08840  0.15420  0.10390  Biso   1.000  C
  C185     1.0000 0.08780  0.11940  0.15150  Biso   1.000  C
  C186     1.0000 0.06930  0.12580  0.22390  Biso   1.000  C
  C187     1.0000 0.11910  0.33800  0.88880  Biso   1.000  C
  C188     1.0000 0.10420  0.30810  0.94890  Biso   1.000  C
  C189     1.0000 0.15280  0.39410  0.78220  Biso   1.000  C
  C190     1.0000 0.15850  0.37100  0.89940  Biso   1.000  C
  H38      1.0000 0.17330  0.37410  0.94240  Biso   1.000  H
  C191     1.0000 0.11490  0.36140  0.77240  Biso   1.000  C
  H39      1.0000 0.10120  0.35750  0.72900  Biso   1.000  H
  C192     1.0000 0.09660  0.33420  0.82540  Biso   1.000  C
  C193     1.0000 0.16660  0.42340  0.72250  Biso   1.000  C
  C194     1.0000 0.10850  0.07770  0.13360  Biso   1.000  C
  H40      1.0000 0.10810  0.05380  0.16450  Biso   1.000  H
  C195     1.0000 0.12770  0.10440  0.02090  Biso   1.000  C
  C196     1.0000 0.12980  0.07160  0.06950  Biso   1.000  C
  C197     1.0000 0.04870  0.30610  0.81020  Biso   1.000  C
  C198     1.0000 0.17500  0.39860  0.84650  Biso   1.000  C
  C199     1.0000 0.21800  0.43090  0.86310  Biso   1.000  C
  C200     1.0000 0.16350  0.03070  0.05460  Biso   1.000  C
  O145     1.0000 0.01050  0.31480  0.84700  Biso   1.000  O
  O146     1.0000 0.05140  0.28000  0.76250  Biso   1.000  O
  O147     1.0000 0.17660  0.46410  0.73220  Biso   1.000  O
  O148     1.0000 0.16470  0.40300  0.66620  Biso   1.000  O
  O149     1.0000 0.09160  0.15680  0.25640  Biso   1.000  O
  O150     1.0000 0.03390  0.10150  0.24550  Biso   1.000  O
  O151     1.0000 0.03060  0.20450  0.16080  Biso   1.000  O
  O152     1.0000 0.08910  0.23400  0.08920  Biso   1.000  O
  O153     1.0000 0.14390  0.06220  0.92310  Biso   1.000  O
  O154     1.0000 0.11090  0.32510  0.00670  Biso   1.000  O
  O155     1.0000 0.25730  0.42920  0.82380  Biso   1.000  O
  O156     1.0000 0.21320  0.45470  0.91370  Biso   1.000  O
  O157     1.0000 0.15390  0.99660  0.07660  Biso   1.000  O
  O158     1.0000 0.20410  0.03660  0.01950  Biso   1.000  O
  O159     1.0000 0.08860  0.26940  0.93630  Biso   1.000  O
  O160     1.0000 0.16460  0.12960  0.91790  Biso   1.000  O
  Zn31     1.0000 0.57821  0.79877  0.08573  Biso   1.000  Zn
  Zn32     1.0000 0.43566  0.81463  0.83614  Biso   1.000  Zn
  Zn33     1.0000 0.49542  0.74662  0.71705  Biso   1.000  Zn
  C201     1.0000 0.64670  0.59820  0.94770  Biso   1.000  C
  C202     1.0000 0.56780  0.70100  0.11950  Biso   1.000  C
  C203     1.0000 0.60670  0.64710  0.03910  Biso   1.000  C
  H41      1.0000 0.60520  0.67050  0.00720  Biso   1.000  H
  C204     1.0000 0.58840  0.65420  0.10390  Biso   1.000  C
  C205     1.0000 0.58780  0.61940  0.15150  Biso   1.000  C
  C206     1.0000 0.56930  0.62580  0.22390  Biso   1.000  C
  C207     1.0000 0.61910  0.83800  0.88880  Biso   1.000  C
  C208     1.0000 0.60420  0.80810  0.94890  Biso   1.000  C
  C209     1.0000 0.65280  0.89410  0.78220  Biso   1.000  C
  C210     1.0000 0.65850  0.87100  0.89940  Biso   1.000  C
  H42      1.0000 0.67330  0.87410  0.94240  Biso   1.000  H
  C211     1.0000 0.61490  0.86140  0.77240  Biso   1.000  C
  H43      1.0000 0.60120  0.85750  0.72900  Biso   1.000  H
  C212     1.0000 0.59660  0.83420  0.82540  Biso   1.000  C
  C213     1.0000 0.66660  0.92340  0.72250  Biso   1.000  C
  C214     1.0000 0.60850  0.57770  0.13360  Biso   1.000  C
  H44      1.0000 0.60810  0.55380  0.16450  Biso   1.000  H
  C215     1.0000 0.62770  0.60440  0.02090  Biso   1.000  C
  C216     1.0000 0.62980  0.57160  0.06950  Biso   1.000  C
  C217     1.0000 0.54870  0.80610  0.81020  Biso   1.000  C
  C218     1.0000 0.67500  0.89860  0.84650  Biso   1.000  C
  C219     1.0000 0.71800  0.93090  0.86310  Biso   1.000  C
  C220     1.0000 0.66350  0.53070  0.05460  Biso   1.000  C
  O161     1.0000 0.51050  0.81480  0.84700  Biso   1.000  O
  O162     1.0000 0.55140  0.78000  0.76250  Biso   1.000  O
  O163     1.0000 0.67660  0.96410  0.73220  Biso   1.000  O
  O164     1.0000 0.66470  0.90300  0.66620  Biso   1.000  O
  O165     1.0000 0.59160  0.65680  0.25640  Biso   1.000  O
  O166     1.0000 0.53390  0.60150  0.24550  Biso   1.000  O
  O167     1.0000 0.53060  0.70450  0.16080  Biso   1.000  O
  O168     1.0000 0.58910  0.73400  0.08920  Biso   1.000  O
  O169     1.0000 0.64390  0.56220  0.92310  Biso   1.000  O
  O170     1.0000 0.61090  0.82510  0.00670  Biso   1.000  O
  O171     1.0000 0.75730  0.92920  0.82380  Biso   1.000  O
  O172     1.0000 0.71320  0.95470  0.91370  Biso   1.000  O
  O173     1.0000 0.65390  0.49660  0.07660  Biso   1.000  O
  O174     1.0000 0.70410  0.53660  0.01950  Biso   1.000  O
  O175     1.0000 0.58860  0.76940  0.93630  Biso   1.000  O
  O176     1.0000 0.66460  0.62960  0.91790  Biso   1.000  O
  Zn34     1.0000 0.57821  0.29877  0.58573  Biso   1.000  Zn
  Zn35     1.0000 0.43566  0.31463  0.33614  Biso   1.000  Zn
  Zn36     1.0000 0.49542  0.24662  0.21705  Biso   1.000  Zn
  C221     1.0000 0.64670  0.09820  0.44770  Biso   1.000  C
  C222     1.0000 0.56780  0.20100  0.61950  Biso   1.000  C
  C223     1.0000 0.60670  0.14710  0.53910  Biso   1.000  C
  H45      1.0000 0.60520  0.17050  0.50720  Biso   1.000  H
  C224     1.0000 0.58840  0.15420  0.60390  Biso   1.000  C
  C225     1.0000 0.58780  0.11940  0.65150  Biso   1.000  C
  C226     1.0000 0.56930  0.12580  0.72390  Biso   1.000  C
  C227     1.0000 0.61910  0.33800  0.38880  Biso   1.000  C
  C228     1.0000 0.60420  0.30810  0.44890  Biso   1.000  C
  C229     1.0000 0.65280  0.39410  0.28220  Biso   1.000  C
  C230     1.0000 0.65850  0.37100  0.39940  Biso   1.000  C
  H46      1.0000 0.67330  0.37410  0.44240  Biso   1.000  H
  C231     1.0000 0.61490  0.36140  0.27240  Biso   1.000  C
  H47      1.0000 0.60120  0.35750  0.22900  Biso   1.000  H
  C232     1.0000 0.59660  0.33420  0.32540  Biso   1.000  C
  C233     1.0000 0.66660  0.42340  0.22250  Biso   1.000  C
  C234     1.0000 0.60850  0.07770  0.63360  Biso   1.000  C
  H48      1.0000 0.60810  0.05380  0.66450  Biso   1.000  H
  C235     1.0000 0.62770  0.10440  0.52090  Biso   1.000  C
  C236     1.0000 0.62980  0.07160  0.56950  Biso   1.000  C
  C237     1.0000 0.54870  0.30610  0.31020  Biso   1.000  C
  C238     1.0000 0.67500  0.39860  0.34650  Biso   1.000  C
  C239     1.0000 0.71800  0.43090  0.36310  Biso   1.000  C
  C240     1.0000 0.66350  0.03070  0.55460  Biso   1.000  C
  O177     1.0000 0.51050  0.31480  0.34700  Biso   1.000  O
  O178     1.0000 0.55140  0.28000  0.26250  Biso   1.000  O
  O179     1.0000 0.67660  0.46410  0.23220  Biso   1.000  O
  O180     1.0000 0.66470  0.40300  0.16620  Biso   1.000  O
  O181     1.0000 0.59160  0.15680  0.75640  Biso   1.000  O
  O182     1.0000 0.53390  0.10150  0.74550  Biso   1.000  O
  O183     1.0000 0.53060  0.20450  0.66080  Biso   1.000  O
  O184     1.0000 0.58910  0.23400  0.58920  Biso   1.000  O
  O185     1.0000 0.64390  0.06220  0.42310  Biso   1.000  O
  O186     1.0000 0.61090  0.32510  0.50670  Biso   1.000  O
  O187     1.0000 0.75730  0.42920  0.32380  Biso   1.000  O
  O188     1.0000 0.71320  0.45470  0.41370  Biso   1.000  O
  O189     1.0000 0.65390  0.99660  0.57660  Biso   1.000  O
  O190     1.0000 0.70410  0.03660  0.51950  Biso   1.000  O
  O191     1.0000 0.58860  0.26940  0.43630  Biso   1.000  O
  O192     1.0000 0.66460  0.12960  0.41790  Biso   1.000  O
  Zn37     1.0000 0.42179  0.70123  0.58573  Biso   1.000  Zn
  Zn38     1.0000 0.56434  0.68537  0.33614  Biso   1.000  Zn
  Zn39     1.0000 0.50458  0.75338  0.21705  Biso   1.000  Zn
  C241     1.0000 0.35330  0.90180  0.44770  Biso   1.000  C
  C242     1.0000 0.43220  0.79900  0.61950  Biso   1.000  C
  C243     1.0000 0.39330  0.85290  0.53910  Biso   1.000  C
  H49      1.0000 0.39480  0.82950  0.50720  Biso   1.000  H
  C244     1.0000 0.41160  0.84580  0.60390  Biso   1.000  C
  C245     1.0000 0.41220  0.88060  0.65150  Biso   1.000  C
  C246     1.0000 0.43070  0.87420  0.72390  Biso   1.000  C
  C247     1.0000 0.38090  0.66200  0.38880  Biso   1.000  C
  C248     1.0000 0.39580  0.69190  0.44890  Biso   1.000  C
  C249     1.0000 0.34720  0.60590  0.28220  Biso   1.000  C
  C250     1.0000 0.34150  0.62900  0.39940  Biso   1.000  C
  H50      1.0000 0.32670  0.62590  0.44240  Biso   1.000  H
  C251     1.0000 0.38510  0.63860  0.27240  Biso   1.000  C
  H51      1.0000 0.39880  0.64250  0.22900  Biso   1.000  H
  C252     1.0000 0.40340  0.66580  0.32540  Biso   1.000  C
  C253     1.0000 0.33340  0.57660  0.22250  Biso   1.000  C
  C254     1.0000 0.39150  0.92230  0.63360  Biso   1.000  C
  H52      1.0000 0.39190  0.94620  0.66450  Biso   1.000  H
  C255     1.0000 0.37230  0.89560  0.52090  Biso   1.000  C
  C256     1.0000 0.37020  0.92840  0.56950  Biso   1.000  C
  C257     1.0000 0.45130  0.69390  0.31020  Biso   1.000  C
  C258     1.0000 0.32500  0.60140  0.34650  Biso   1.000  C
  C259     1.0000 0.28200  0.56910  0.36310  Biso   1.000  C
  C260     1.0000 0.33650  0.96930  0.55460  Biso   1.000  C
  O193     1.0000 0.48950  0.68520  0.34700  Biso   1.000  O
  O194     1.0000 0.44860  0.72000  0.26250  Biso   1.000  O
  O195     1.0000 0.32340  0.53590  0.23220  Biso   1.000  O
  O196     1.0000 0.33530  0.59700  0.16620  Biso   1.000  O
  O197     1.0000 0.40840  0.84320  0.75640  Biso   1.000  O
  O198     1.0000 0.46610  0.89850  0.74550  Biso   1.000  O
  O199     1.0000 0.46940  0.79550  0.66080  Biso   1.000  O
  O200     1.0000 0.41090  0.76600  0.58920  Biso   1.000  O
  O201     1.0000 0.35610  0.93780  0.42310  Biso   1.000  O
  O202     1.0000 0.38910  0.67490  0.50670  Biso   1.000  O
  O203     1.0000 0.24270  0.57080  0.32380  Biso   1.000  O
  O204     1.0000 0.28680  0.54530  0.41370  Biso   1.000  O
  O205     1.0000 0.34610  0.00340  0.57660  Biso   1.000  O
  O206     1.0000 0.29590  0.96340  0.51950  Biso   1.000  O
  O207     1.0000 0.41140  0.73060  0.43630  Biso   1.000  O
  O208     1.0000 0.33540  0.87040  0.41790  Biso   1.000  O
  Zn40     1.0000 0.42179  0.20123  0.08573  Biso   1.000  Zn
  Zn41     1.0000 0.56434  0.18537  0.83614  Biso   1.000  Zn
  Zn42     1.0000 0.50458  0.25338  0.71705  Biso   1.000  Zn
  C261     1.0000 0.35330  0.40180  0.94770  Biso   1.000  C
  C262     1.0000 0.43220  0.29900  0.11950  Biso   1.000  C
  C263     1.0000 0.39330  0.35290  0.03910  Biso   1.000  C
  H53      1.0000 0.39480  0.32950  0.00720  Biso   1.000  H
  C264     1.0000 0.41160  0.34580  0.10390  Biso   1.000  C
  C265     1.0000 0.41220  0.38060  0.15150  Biso   1.000  C
  C266     1.0000 0.43070  0.37420  0.22390  Biso   1.000  C
  C267     1.0000 0.38090  0.16200  0.88880  Biso   1.000  C
  C268     1.0000 0.39580  0.19190  0.94890  Biso   1.000  C
  C269     1.0000 0.34720  0.10590  0.78220  Biso   1.000  C
  C270     1.0000 0.34150  0.12900  0.89940  Biso   1.000  C
  H54      1.0000 0.32670  0.12590  0.94240  Biso   1.000  H
  C271     1.0000 0.38510  0.13860  0.77240  Biso   1.000  C
  H55      1.0000 0.39880  0.14250  0.72900  Biso   1.000  H
  C272     1.0000 0.40340  0.16580  0.82540  Biso   1.000  C
  C273     1.0000 0.33340  0.07660  0.72250  Biso   1.000  C
  C274     1.0000 0.39150  0.42230  0.13360  Biso   1.000  C
  H56      1.0000 0.39190  0.44620  0.16450  Biso   1.000  H
  C275     1.0000 0.37230  0.39560  0.02090  Biso   1.000  C
  C276     1.0000 0.37020  0.42840  0.06950  Biso   1.000  C
  C277     1.0000 0.45130  0.19390  0.81020  Biso   1.000  C
  C278     1.0000 0.32500  0.10140  0.84650  Biso   1.000  C
  C279     1.0000 0.28200  0.06910  0.86310  Biso   1.000  C
  C280     1.0000 0.33650  0.46930  0.05460  Biso   1.000  C
  O209     1.0000 0.48950  0.18520  0.84700  Biso   1.000  O
  O210     1.0000 0.44860  0.22000  0.76250  Biso   1.000  O
  O211     1.0000 0.32340  0.03590  0.73220  Biso   1.000  O
  O212     1.0000 0.33530  0.09700  0.66620  Biso   1.000  O
  O213     1.0000 0.40840  0.34320  0.25640  Biso   1.000  O
  O214     1.0000 0.46610  0.39850  0.24550  Biso   1.000  O
  O215     1.0000 0.46940  0.29550  0.16080  Biso   1.000  O
  O216     1.0000 0.41090  0.26600  0.08920  Biso   1.000  O
  O217     1.0000 0.35610  0.43780  0.92310  Biso   1.000  O
  O218     1.0000 0.38910  0.17490  0.00670  Biso   1.000  O
  O219     1.0000 0.24270  0.07080  0.82380  Biso   1.000  O
  O220     1.0000 0.28680  0.04530  0.91370  Biso   1.000  O
  O221     1.0000 0.34610  0.50340  0.07660  Biso   1.000  O
  O222     1.0000 0.29590  0.46340  0.01950  Biso   1.000  O
  O223     1.0000 0.41140  0.23060  0.93630  Biso   1.000  O
  O224     1.0000 0.33540  0.37040  0.91790  Biso   1.000  O
  Zn43     1.0000 0.92179  0.70123  0.08573  Biso   1.000  Zn
  Zn44     1.0000 0.06434  0.68537  0.83614  Biso   1.000  Zn
  Zn45     1.0000 0.00458  0.75338  0.71705  Biso   1.000  Zn
  C281     1.0000 0.85330  0.90180  0.94770  Biso   1.000  C
  C282     1.0000 0.93220  0.79900  0.11950  Biso   1.000  C
  C283     1.0000 0.89330  0.85290  0.03910  Biso   1.000  C
  H57      1.0000 0.89480  0.82950  0.00720  Biso   1.000  H
  C284     1.0000 0.91160  0.84580  0.10390  Biso   1.000  C
  C285     1.0000 0.91220  0.88060  0.15150  Biso   1.000  C
  C286     1.0000 0.93070  0.87420  0.22390  Biso   1.000  C
  C287     1.0000 0.88090  0.66200  0.88880  Biso   1.000  C
  C288     1.0000 0.89580  0.69190  0.94890  Biso   1.000  C
  C289     1.0000 0.84720  0.60590  0.78220  Biso   1.000  C
  C290     1.0000 0.84150  0.62900  0.89940  Biso   1.000  C
  H58      1.0000 0.82670  0.62590  0.94240  Biso   1.000  H
  C291     1.0000 0.88510  0.63860  0.77240  Biso   1.000  C
  H59      1.0000 0.89880  0.64250  0.72900  Biso   1.000  H
  C292     1.0000 0.90340  0.66580  0.82540  Biso   1.000  C
  C293     1.0000 0.83340  0.57660  0.72250  Biso   1.000  C
  C294     1.0000 0.89150  0.92230  0.13360  Biso   1.000  C
  H60      1.0000 0.89190  0.94620  0.16450  Biso   1.000  H
  C295     1.0000 0.87230  0.89560  0.02090  Biso   1.000  C
  C296     1.0000 0.87020  0.92840  0.06950  Biso   1.000  C
  C297     1.0000 0.95130  0.69390  0.81020  Biso   1.000  C
  C298     1.0000 0.82500  0.60140  0.84650  Biso   1.000  C
  C299     1.0000 0.78200  0.56910  0.86310  Biso   1.000  C
  C300     1.0000 0.83650  0.96930  0.05460  Biso   1.000  C
  O225     1.0000 0.98950  0.68520  0.84700  Biso   1.000  O
  O226     1.0000 0.94860  0.72000  0.76250  Biso   1.000  O
  O227     1.0000 0.82340  0.53590  0.73220  Biso   1.000  O
  O228     1.0000 0.83530  0.59700  0.66620  Biso   1.000  O
  O229     1.0000 0.90840  0.84320  0.25640  Biso   1.000  O
  O230     1.0000 0.96610  0.89850  0.24550  Biso   1.000  O
  O231     1.0000 0.96940  0.79550  0.16080  Biso   1.000  O
  O232     1.0000 0.91090  0.76600  0.08920  Biso   1.000  O
  O233     1.0000 0.85610  0.93780  0.92310  Biso   1.000  O
  O234     1.0000 0.88910  0.67490  0.00670  Biso   1.000  O
  O235     1.0000 0.74270  0.57080  0.82380  Biso   1.000  O
  O236     1.0000 0.78680  0.54530  0.91370  Biso   1.000  O
  O237     1.0000 0.84610  0.00340  0.07660  Biso   1.000  O
  O238     1.0000 0.79590  0.96340  0.01950  Biso   1.000  O
  O239     1.0000 0.91140  0.73060  0.93630  Biso   1.000  O
  O240     1.0000 0.83540  0.87040  0.91790  Biso   1.000  O
  Zn46     1.0000 0.92179  0.20123  0.58573  Biso   1.000  Zn
  Zn47     1.0000 0.06434  0.18537  0.33614  Biso   1.000  Zn
  Zn48     1.0000 0.00458  0.25338  0.21705  Biso   1.000  Zn
  C301     1.0000 0.85330  0.40180  0.44770  Biso   1.000  C
  C302     1.0000 0.93220  0.29900  0.61950  Biso   1.000  C
  C303     1.0000 0.89330  0.35290  0.53910  Biso   1.000  C
  H61      1.0000 0.89480  0.32950  0.50720  Biso   1.000  H
  C304     1.0000 0.91160  0.34580  0.60390  Biso   1.000  C
  C305     1.0000 0.91220  0.38060  0.65150  Biso   1.000  C
  C306     1.0000 0.93070  0.37420  0.72390  Biso   1.000  C
  C307     1.0000 0.88090  0.16200  0.38880  Biso   1.000  C
  C308     1.0000 0.89580  0.19190  0.44890  Biso   1.000  C
  C309     1.0000 0.84720  0.10590  0.28220  Biso   1.000  C
  C310     1.0000 0.84150  0.12900  0.39940  Biso   1.000  C
  H62      1.0000 0.82670  0.12590  0.44240  Biso   1.000  H
  C311     1.0000 0.88510  0.13860  0.27240  Biso   1.000  C
  H63      1.0000 0.89880  0.14250  0.22900  Biso   1.000  H
  C312     1.0000 0.90340  0.16580  0.32540  Biso   1.000  C
  C313     1.0000 0.83340  0.07660  0.22250  Biso   1.000  C
  C314     1.0000 0.89150  0.42230  0.63360  Biso   1.000  C
  H64      1.0000 0.89190  0.44620  0.66450  Biso   1.000  H
  C315     1.0000 0.87230  0.39560  0.52090  Biso   1.000  C
  C316     1.0000 0.87020  0.42840  0.56950  Biso   1.000  C
  C317     1.0000 0.95130  0.19390  0.31020  Biso   1.000  C
  C318     1.0000 0.82500  0.10140  0.34650  Biso   1.000  C
  C319     1.0000 0.78200  0.06910  0.36310  Biso   1.000  C
  C320     1.0000 0.83650  0.46930  0.55460  Biso   1.000  C
  O241     1.0000 0.98950  0.18520  0.34700  Biso   1.000  O
  O242     1.0000 0.94860  0.22000  0.26250  Biso   1.000  O
  O243     1.0000 0.82340  0.03590  0.23220  Biso   1.000  O
  O244     1.0000 0.83530  0.09700  0.16620  Biso   1.000  O
  O245     1.0000 0.90840  0.34320  0.75640  Biso   1.000  O
  O246     1.0000 0.96610  0.39850  0.74550  Biso   1.000  O
  O247     1.0000 0.96940  0.29550  0.66080  Biso   1.000  O
  O248     1.0000 0.91090  0.26600  0.58920  Biso   1.000  O
  O249     1.0000 0.85610  0.43780  0.42310  Biso   1.000  O
  O250     1.0000 0.88910  0.17490  0.50670  Biso   1.000  O
  O251     1.0000 0.74270  0.07080  0.32380  Biso   1.000  O
  O252     1.0000 0.78680  0.04530  0.41370  Biso   1.000  O
  O253     1.0000 0.84610  0.50340  0.57660  Biso   1.000  O
  O254     1.0000 0.79590  0.46340  0.51950  Biso   1.000  O
  O255     1.0000 0.91140  0.23060  0.43630  Biso   1.000  O
  O256     1.0000 0.83540  0.37040  0.41790  Biso   1.000  O
