data_image0
_cell_length_a       41.686
_cell_length_b       19.05
_cell_length_c       29.292
_cell_angle_alpha    90
_cell_angle_beta     120.028
_cell_angle_gamma    90

_symmetry_space_group_name_H-M    "P 1"
_symmetry_int_tables_number       1

loop_
  _symmetry_equiv_pos_as_xyz
  'x, y, z'

loop_
  _atom_site_label
  _atom_site_occupancy
  _atom_site_fract_x
  _atom_site_fract_y
  _atom_site_fract_z
  _atom_site_thermal_displace_type
  _atom_site_B_iso_or_equiv
  _atom_site_type_symbol
  W1       1.0000 0.58233  0.12112  0.69432  Biso   1.000  W
  W2       1.0000 0.57912  0.12796  0.42079  Biso   1.000  W
  W3       1.0000 0.59495  0.77573  0.56688  Biso   1.000  W
  Mn1      1.0000 0.56582  0.85020  0.36804  Biso   1.000  Mn
  Mn2      1.0000 0.56861  0.84340  0.72745  Biso   1.000  Mn
  Mn3      1.0000 0.54751  0.31500  0.53544  Biso   1.000  Mn
  Mn4      1.0000 0.67099  0.02690  0.61979  Biso   1.000  Mn
  C1       1.0000 0.57320  0.12510  0.76200  Biso   1.000  C
  N1       1.0000 0.56780  0.12630  0.79580  Biso   1.000  N
  C2       1.0000 0.60470  0.21900  0.72780  Biso   1.000  C
  N2       1.0000 0.61620  0.27500  0.74340  Biso   1.000  N
  C3       1.0000 0.63500  0.09440  0.76250  Biso   1.000  C
  N3       1.0000 0.66300  0.08270  0.79930  Biso   1.000  N
  C4       1.0000 0.55370  0.06770  0.61970  Biso   1.000  C
  N4       1.0000 0.53870  0.04190  0.57950  Biso   1.000  N
  C5       1.0000 0.52440  0.13720  0.66800  Biso   1.000  C
  N5       1.0000 0.49420  0.14230  0.65770  Biso   1.000  N
  C6       1.0000 0.57790  0.01280  0.70650  Biso   1.000  C
  N6       1.0000 0.57480  0.95370  0.71550  Biso   1.000  N
  C7       1.0000 0.56570  0.19750  0.63220  Biso   1.000  C
  N7       1.0000 0.55740  0.24070  0.59760  Biso   1.000  N
  C8       1.0000 0.62180  0.09970  0.66950  Biso   1.000  C
  N8       1.0000 0.64250  0.08400  0.65540  Biso   1.000  N
  C9       1.0000 0.59290  0.23400  0.41300  Biso   1.000  C
  N9       1.0000 0.60070  0.29600  0.41040  Biso   1.000  N
  C10      1.0000 0.63340  0.11200  0.43040  Biso   1.000  C
  N10      1.0000 0.66380  0.11200  0.43790  Biso   1.000  N
  C11      1.0000 0.57370  0.13190  0.34310  Biso   1.000  C
  N11      1.0000 0.56830  0.13230  0.30060  Biso   1.000  N
  C12      1.0000 0.54740  0.07110  0.44730  Biso   1.000  C
  N12      1.0000 0.53270  0.03920  0.46560  Biso   1.000  N
  C13      1.0000 0.57930  0.01910  0.40100  Biso   1.000  C
  C14      1.0000 0.52220  0.14700  0.36340  Biso   1.000  C
  N13      1.0000 0.49200  0.15460  0.33030  Biso   1.000  N
  C15      1.0000 0.56320  0.19510  0.46330  Biso   1.000  C
  N14      1.0000 0.55400  0.23650  0.48590  Biso   1.000  N
  C16      1.0000 0.61810  0.10100  0.50240  Biso   1.000  C
  N15      1.0000 0.63740  0.08060  0.54590  Biso   1.000  N
  C17      1.0000 0.60020  0.68100  0.60990  Biso   1.000  C
  N16      1.0000 0.60110  0.62600  0.63280  Biso   1.000  N
  C18      1.0000 0.60740  0.69200  0.52900  Biso   1.000  C
  N17      1.0000 0.62600  0.66200  0.51600  Biso   1.000  N
  C19      1.0000 0.65300  0.76100  0.61900  Biso   1.000  C
  N18      1.0000 0.68400  0.76400  0.66600  Biso   1.000  N
  C20      1.0000 0.55250  0.85810  0.53780  Biso   1.000  C
  N19      1.0000 0.53130  0.89930  0.52210  Biso   1.000  N
  C21      1.0000 0.58370  0.80450  0.48950  Biso   1.000  C
  C22      1.0000 0.58550  0.80300  0.63190  Biso   1.000  C
  N20      1.0000 0.57630  0.82000  0.66080  Biso   1.000  N
  C23      1.0000 0.54220  0.72340  0.52410  Biso   1.000  C
  N21      1.0000 0.51310  0.70010  0.50220  Biso   1.000  N
  C24      1.0000 0.62180  0.87710  0.58730  Biso   1.000  C
  N22      1.0000 0.63690  0.93070  0.59750  Biso   1.000  N
  N23      1.0000 0.62760  0.82440  0.40520  Biso   1.000  N
  C25      1.0000 0.65030  0.86180  0.39520  Biso   1.000  C
  H1       1.0000 0.64060  0.89850  0.36980  Biso   1.000  H
  C26      1.0000 0.68700  0.84800  0.42080  Biso   1.000  C
  H2       1.0000 0.70290  0.87850  0.41540  Biso   1.000  H
  C27      1.0000 0.70210  0.79200  0.45460  Biso   1.000  C
  C28      1.0000 0.67780  0.75000  0.46330  Biso   1.000  C
  H3       1.0000 0.68620  0.71130  0.48680  Biso   1.000  H
  C29      1.0000 0.64110  0.76900  0.43550  Biso   1.000  C
  H4       1.0000 0.62390  0.73960  0.43860  Biso   1.000  H
  C30      1.0000 0.74060  0.77600  0.48350  Biso   1.000  C
  H5       1.0000 0.75580  0.80780  0.47800  Biso   1.000  H
  N24      1.0000 0.55510  0.73510  0.34250  Biso   1.000  N
  C31      1.0000 0.54810  0.68610  0.36920  Biso   1.000  C
  H6       1.0000 0.54430  0.70040  0.39720  Biso   1.000  H
  C32      1.0000 0.54640  0.61560  0.35730  Biso   1.000  C
  H7       1.0000 0.54090  0.58240  0.37680  Biso   1.000  H
  C33      1.0000 0.55240  0.59250  0.31760  Biso   1.000  C
  C34      1.0000 0.55150  0.64310  0.28340  Biso   1.000  C
  H8       1.0000 0.54910  0.63100  0.25030  Biso   1.000  H
  C35      1.0000 0.55430  0.71180  0.29910  Biso   1.000  C
  H9       1.0000 0.55580  0.74610  0.27670  Biso   1.000  H
  C36      1.0000 0.55140  0.51800  0.30600  Biso   1.000  C
  H10      1.0000 0.54860  0.48530  0.32830  Biso   1.000  H
  N25      1.0000 0.56270  0.27250  0.24060  Biso   1.000  N
  C37      1.0000 0.56170  0.32260  0.20800  Biso   1.000  C
  H11      1.0000 0.56270  0.30850  0.17760  Biso   1.000  H
  C38      1.0000 0.55930  0.39370  0.21550  Biso   1.000  C
  H12      1.0000 0.55960  0.42700  0.19160  Biso   1.000  H
  C39      1.0000 0.55650  0.41570  0.25830  Biso   1.000  C
  C40      1.0000 0.54680  0.36360  0.28200  Biso   1.000  C
  H13      1.0000 0.53620  0.37560  0.30310  Biso   1.000  H
  C41      1.0000 0.55250  0.29410  0.27500  Biso   1.000  C
  H14      1.0000 0.54900  0.25970  0.29540  Biso   1.000  H
  C42      1.0000 0.55430  0.49200  0.26500  Biso   1.000  C
  H15      1.0000 0.55490  0.52370  0.24030  Biso   1.000  H
  N26      1.0000 0.63110  0.83380  0.77780  Biso   1.000  N
  C43      1.0000 0.65040  0.78300  0.77100  Biso   1.000  C
  H16      1.0000 0.63740  0.74680  0.74560  Biso   1.000  H
  C44      1.0000 0.68870  0.78100  0.79900  Biso   1.000  C
  H17      1.0000 0.70140  0.74130  0.79620  Biso   1.000  H
  C45      1.0000 0.68880  0.88600  0.84200  Biso   1.000  C
  H18      1.0000 0.70120  0.92190  0.86720  Biso   1.000  H
  C46      1.0000 0.65070  0.88100  0.81490  Biso   1.000  C
  H19      1.0000 0.63740  0.91450  0.82330  Biso   1.000  H
  C47      1.0000 0.70860  0.83600  0.83190  Biso   1.000  C
  C48      1.0000 0.75280  0.84300  0.86400  Biso   1.000  C
  H20      1.0000 0.76440  0.85180  0.90080  Biso   1.000  H
  N27      1.0000 0.89090  0.83170  0.92320  Biso   1.000  N
  C49      1.0000 0.87170  0.84400  0.94780  Biso   1.000  C
  H21      1.0000 0.88510  0.84980  0.98500  Biso   1.000  H
  C50      1.0000 0.83340  0.84800  0.92220  Biso   1.000  C
  H22      1.0000 0.82130  0.85830  0.94160  Biso   1.000  H
  C51      1.0000 0.81310  0.83700  0.86880  Biso   1.000  C
  C52      1.0000 0.83270  0.83500  0.84220  Biso   1.000  C
  H23      1.0000 0.82000  0.83690  0.80470  Biso   1.000  H
  C53      1.0000 0.87090  0.82900  0.87030  Biso   1.000  C
  H24      1.0000 0.88370  0.82250  0.85130  Biso   1.000  H
  C54      1.0000 0.77200  0.83900  0.84500  Biso   1.000  C
  H25      1.0000 0.75850  0.83640  0.80770  Biso   1.000  H
  N28      1.0000 0.57460  0.84360  0.45070  Biso   1.000  N
  N29      1.0000 0.57660  0.96280  0.38850  Biso   1.000  N
  C55      1.0000 0.65000  0.87100  0.76000  Biso   1.000  C
  C56      1.0000 0.68800  0.86500  0.78200  Biso   1.000  C
  C57      1.0000 0.68920  0.81200  0.85570  Biso   1.000  C
  C58      1.0000 0.65090  0.80900  0.82700  Biso   1.000  C
  H26      1.0000 0.63680  0.90200  0.73120  Biso   1.000  H
  H27      1.0000 0.69980  0.88160  0.76370  Biso   1.000  H
  H28      1.0000 0.70210  0.79720  0.89150  Biso   1.000  H
  H29      1.0000 0.63820  0.78800  0.84270  Biso   1.000  H
  W4       1.0000 0.08233  0.62112  0.69432  Biso   1.000  W
  W5       1.0000 0.07912  0.62796  0.42079  Biso   1.000  W
  W6       1.0000 0.09495  0.27573  0.56688  Biso   1.000  W
  Mn5      1.0000 0.06582  0.35020  0.36804  Biso   1.000  Mn
  Mn6      1.0000 0.06861  0.34340  0.72745  Biso   1.000  Mn
  Mn7      1.0000 0.04751  0.81500  0.53544  Biso   1.000  Mn
  Mn8      1.0000 0.17099  0.52690  0.61979  Biso   1.000  Mn
  C59      1.0000 0.07320  0.62510  0.76200  Biso   1.000  C
  N30      1.0000 0.06780  0.62630  0.79580  Biso   1.000  N
  C60      1.0000 0.10470  0.71900  0.72780  Biso   1.000  C
  N31      1.0000 0.11620  0.77500  0.74340  Biso   1.000  N
  C61      1.0000 0.13500  0.59440  0.76250  Biso   1.000  C
  N32      1.0000 0.16300  0.58270  0.79930  Biso   1.000  N
  C62      1.0000 0.05370  0.56770  0.61970  Biso   1.000  C
  N33      1.0000 0.03870  0.54190  0.57950  Biso   1.000  N
  C63      1.0000 0.02440  0.63720  0.66800  Biso   1.000  C
  N34      1.0000 0.99420  0.64230  0.65770  Biso   1.000  N
  C64      1.0000 0.07790  0.51280  0.70650  Biso   1.000  C
  N35      1.0000 0.07480  0.45370  0.71550  Biso   1.000  N
  C65      1.0000 0.06570  0.69750  0.63220  Biso   1.000  C
  N36      1.0000 0.05740  0.74070  0.59760  Biso   1.000  N
  C66      1.0000 0.12180  0.59970  0.66950  Biso   1.000  C
  N37      1.0000 0.14250  0.58400  0.65540  Biso   1.000  N
  C67      1.0000 0.09290  0.73400  0.41300  Biso   1.000  C
  N38      1.0000 0.10070  0.79600  0.41040  Biso   1.000  N
  C68      1.0000 0.13340  0.61200  0.43040  Biso   1.000  C
  N39      1.0000 0.16380  0.61200  0.43790  Biso   1.000  N
  C69      1.0000 0.07370  0.63190  0.34310  Biso   1.000  C
  N40      1.0000 0.06830  0.63230  0.30060  Biso   1.000  N
  C70      1.0000 0.04740  0.57110  0.44730  Biso   1.000  C
  N41      1.0000 0.03270  0.53920  0.46560  Biso   1.000  N
  C71      1.0000 0.07930  0.51910  0.40100  Biso   1.000  C
  C72      1.0000 0.02220  0.64700  0.36340  Biso   1.000  C
  N42      1.0000 0.99200  0.65460  0.33030  Biso   1.000  N
  C73      1.0000 0.06320  0.69510  0.46330  Biso   1.000  C
  N43      1.0000 0.05400  0.73650  0.48590  Biso   1.000  N
  C74      1.0000 0.11810  0.60100  0.50240  Biso   1.000  C
  N44      1.0000 0.13740  0.58060  0.54590  Biso   1.000  N
  C75      1.0000 0.10020  0.18100  0.60990  Biso   1.000  C
  N45      1.0000 0.10110  0.12600  0.63280  Biso   1.000  N
  C76      1.0000 0.10740  0.19200  0.52900  Biso   1.000  C
  N46      1.0000 0.12600  0.16200  0.51600  Biso   1.000  N
  C77      1.0000 0.15300  0.26100  0.61900  Biso   1.000  C
  N47      1.0000 0.18400  0.26400  0.66600  Biso   1.000  N
  C78      1.0000 0.05250  0.35810  0.53780  Biso   1.000  C
  N48      1.0000 0.03130  0.39930  0.52210  Biso   1.000  N
  C79      1.0000 0.08370  0.30450  0.48950  Biso   1.000  C
  C80      1.0000 0.08550  0.30300  0.63190  Biso   1.000  C
  N49      1.0000 0.07630  0.32000  0.66080  Biso   1.000  N
  C81      1.0000 0.04220  0.22340  0.52410  Biso   1.000  C
  N50      1.0000 0.01310  0.20010  0.50220  Biso   1.000  N
  C82      1.0000 0.12180  0.37710  0.58730  Biso   1.000  C
  N51      1.0000 0.13690  0.43070  0.59750  Biso   1.000  N
  N52      1.0000 0.12760  0.32440  0.40520  Biso   1.000  N
  C83      1.0000 0.15030  0.36180  0.39520  Biso   1.000  C
  H30      1.0000 0.14060  0.39850  0.36980  Biso   1.000  H
  C84      1.0000 0.18700  0.34800  0.42080  Biso   1.000  C
  H31      1.0000 0.20290  0.37850  0.41540  Biso   1.000  H
  C85      1.0000 0.20210  0.29200  0.45460  Biso   1.000  C
  C86      1.0000 0.17780  0.25000  0.46330  Biso   1.000  C
  H32      1.0000 0.18620  0.21130  0.48680  Biso   1.000  H
  C87      1.0000 0.14110  0.26900  0.43550  Biso   1.000  C
  H33      1.0000 0.12390  0.23960  0.43860  Biso   1.000  H
  C88      1.0000 0.24060  0.27600  0.48350  Biso   1.000  C
  H34      1.0000 0.25580  0.30780  0.47800  Biso   1.000  H
  N53      1.0000 0.05510  0.23510  0.34250  Biso   1.000  N
  C89      1.0000 0.04810  0.18610  0.36920  Biso   1.000  C
  H35      1.0000 0.04430  0.20040  0.39720  Biso   1.000  H
  C90      1.0000 0.04640  0.11560  0.35730  Biso   1.000  C
  H36      1.0000 0.04090  0.08240  0.37680  Biso   1.000  H
  C91      1.0000 0.05240  0.09250  0.31760  Biso   1.000  C
  C92      1.0000 0.05150  0.14310  0.28340  Biso   1.000  C
  H37      1.0000 0.04910  0.13100  0.25030  Biso   1.000  H
  C93      1.0000 0.05430  0.21180  0.29910  Biso   1.000  C
  H38      1.0000 0.05580  0.24610  0.27670  Biso   1.000  H
  C94      1.0000 0.05140  0.01800  0.30600  Biso   1.000  C
  H39      1.0000 0.04860  0.98530  0.32830  Biso   1.000  H
  N54      1.0000 0.06270  0.77250  0.24060  Biso   1.000  N
  C95      1.0000 0.06170  0.82260  0.20800  Biso   1.000  C
  H40      1.0000 0.06270  0.80850  0.17760  Biso   1.000  H
  C96      1.0000 0.05930  0.89370  0.21550  Biso   1.000  C
  H41      1.0000 0.05960  0.92700  0.19160  Biso   1.000  H
  C97      1.0000 0.05650  0.91570  0.25830  Biso   1.000  C
  C98      1.0000 0.04680  0.86360  0.28200  Biso   1.000  C
  H42      1.0000 0.03620  0.87560  0.30310  Biso   1.000  H
  C99      1.0000 0.05250  0.79410  0.27500  Biso   1.000  C
  H43      1.0000 0.04900  0.75970  0.29540  Biso   1.000  H
  C100     1.0000 0.05430  0.99200  0.26500  Biso   1.000  C
  H44      1.0000 0.05490  0.02370  0.24030  Biso   1.000  H
  N55      1.0000 0.13110  0.33380  0.77780  Biso   1.000  N
  C101     1.0000 0.15040  0.28300  0.77100  Biso   1.000  C
  H45      1.0000 0.13740  0.24680  0.74560  Biso   1.000  H
  C102     1.0000 0.18870  0.28100  0.79900  Biso   1.000  C
  H46      1.0000 0.20140  0.24130  0.79620  Biso   1.000  H
  C103     1.0000 0.18880  0.38600  0.84200  Biso   1.000  C
  H47      1.0000 0.20120  0.42190  0.86720  Biso   1.000  H
  C104     1.0000 0.15070  0.38100  0.81490  Biso   1.000  C
  H48      1.0000 0.13740  0.41450  0.82330  Biso   1.000  H
  C105     1.0000 0.20860  0.33600  0.83190  Biso   1.000  C
  C106     1.0000 0.25280  0.34300  0.86400  Biso   1.000  C
  H49      1.0000 0.26440  0.35180  0.90080  Biso   1.000  H
  N56      1.0000 0.39090  0.33170  0.92320  Biso   1.000  N
  C107     1.0000 0.37170  0.34400  0.94780  Biso   1.000  C
  H50      1.0000 0.38510  0.34980  0.98500  Biso   1.000  H
  C108     1.0000 0.33340  0.34800  0.92220  Biso   1.000  C
  H51      1.0000 0.32130  0.35830  0.94160  Biso   1.000  H
  C109     1.0000 0.31310  0.33700  0.86880  Biso   1.000  C
  C110     1.0000 0.33270  0.33500  0.84220  Biso   1.000  C
  H52      1.0000 0.32000  0.33690  0.80470  Biso   1.000  H
  C111     1.0000 0.37090  0.32900  0.87030  Biso   1.000  C
  H53      1.0000 0.38370  0.32250  0.85130  Biso   1.000  H
  C112     1.0000 0.27200  0.33900  0.84500  Biso   1.000  C
  H54      1.0000 0.25850  0.33640  0.80770  Biso   1.000  H
  N57      1.0000 0.07460  0.34360  0.45070  Biso   1.000  N
  N58      1.0000 0.07660  0.46280  0.38850  Biso   1.000  N
  C113     1.0000 0.15000  0.37100  0.76000  Biso   1.000  C
  C114     1.0000 0.18800  0.36500  0.78200  Biso   1.000  C
  C115     1.0000 0.18920  0.31200  0.85570  Biso   1.000  C
  C116     1.0000 0.15090  0.30900  0.82700  Biso   1.000  C
  H55      1.0000 0.13680  0.40200  0.73120  Biso   1.000  H
  H56      1.0000 0.19980  0.38160  0.76370  Biso   1.000  H
  H57      1.0000 0.20210  0.29720  0.89150  Biso   1.000  H
  H58      1.0000 0.13820  0.28800  0.84270  Biso   1.000  H
  W7       1.0000 0.41767  0.12112  0.80568  Biso   1.000  W
  W8       1.0000 0.42088  0.12796  0.07921  Biso   1.000  W
  W9       1.0000 0.40505  0.77573  0.93312  Biso   1.000  W
  Mn9      1.0000 0.43418  0.85020  0.13196  Biso   1.000  Mn
  Mn10     1.0000 0.43139  0.84340  0.77255  Biso   1.000  Mn
  Mn11     1.0000 0.45249  0.31500  0.96456  Biso   1.000  Mn
  Mn12     1.0000 0.32901  0.02690  0.88021  Biso   1.000  Mn
  C117     1.0000 0.42680  0.12510  0.73800  Biso   1.000  C
  N59      1.0000 0.43220  0.12630  0.70420  Biso   1.000  N
  C118     1.0000 0.39530  0.21900  0.77220  Biso   1.000  C
  N60      1.0000 0.38380  0.27500  0.75660  Biso   1.000  N
  C119     1.0000 0.36500  0.09440  0.73750  Biso   1.000  C
  N61      1.0000 0.33700  0.08270  0.70070  Biso   1.000  N
  C120     1.0000 0.44630  0.06770  0.88030  Biso   1.000  C
  N62      1.0000 0.46130  0.04190  0.92050  Biso   1.000  N
  C121     1.0000 0.47560  0.13720  0.83200  Biso   1.000  C
  N63      1.0000 0.50580  0.14230  0.84230  Biso   1.000  N
  C122     1.0000 0.42210  0.01280  0.79350  Biso   1.000  C
  N64      1.0000 0.42520  0.95370  0.78450  Biso   1.000  N
  C123     1.0000 0.43430  0.19750  0.86780  Biso   1.000  C
  N65      1.0000 0.44260  0.24070  0.90240  Biso   1.000  N
  C124     1.0000 0.37820  0.09970  0.83050  Biso   1.000  C
  N66      1.0000 0.35750  0.08400  0.84460  Biso   1.000  N
  C125     1.0000 0.40710  0.23400  0.08700  Biso   1.000  C
  N67      1.0000 0.39930  0.29600  0.08960  Biso   1.000  N
  C126     1.0000 0.36660  0.11200  0.06960  Biso   1.000  C
  N68      1.0000 0.33620  0.11200  0.06210  Biso   1.000  N
  C127     1.0000 0.42630  0.13190  0.15690  Biso   1.000  C
  N69      1.0000 0.43170  0.13230  0.19940  Biso   1.000  N
  C128     1.0000 0.45260  0.07110  0.05270  Biso   1.000  C
  N70      1.0000 0.46730  0.03920  0.03440  Biso   1.000  N
  C129     1.0000 0.42070  0.01910  0.09900  Biso   1.000  C
  C130     1.0000 0.47780  0.14700  0.13660  Biso   1.000  C
  N71      1.0000 0.50800  0.15460  0.16970  Biso   1.000  N
  C131     1.0000 0.43680  0.19510  0.03670  Biso   1.000  C
  N72      1.0000 0.44600  0.23650  0.01410  Biso   1.000  N
  C132     1.0000 0.38190  0.10100  0.99760  Biso   1.000  C
  N73      1.0000 0.36260  0.08060  0.95410  Biso   1.000  N
  C133     1.0000 0.39980  0.68100  0.89010  Biso   1.000  C
  N74      1.0000 0.39890  0.62600  0.86720  Biso   1.000  N
  C134     1.0000 0.39260  0.69200  0.97100  Biso   1.000  C
  N75      1.0000 0.37400  0.66200  0.98400  Biso   1.000  N
  C135     1.0000 0.34700  0.76100  0.88100  Biso   1.000  C
  N76      1.0000 0.31600  0.76400  0.83400  Biso   1.000  N
  C136     1.0000 0.44750  0.85810  0.96220  Biso   1.000  C
  N77      1.0000 0.46870  0.89930  0.97790  Biso   1.000  N
  C137     1.0000 0.41630  0.80450  0.01050  Biso   1.000  C
  C138     1.0000 0.41450  0.80300  0.86810  Biso   1.000  C
  N78      1.0000 0.42370  0.82000  0.83920  Biso   1.000  N
  C139     1.0000 0.45780  0.72340  0.97590  Biso   1.000  C
  N79      1.0000 0.48690  0.70010  0.99780  Biso   1.000  N
  C140     1.0000 0.37820  0.87710  0.91270  Biso   1.000  C
  N80      1.0000 0.36310  0.93070  0.90250  Biso   1.000  N
  N81      1.0000 0.37240  0.82440  0.09480  Biso   1.000  N
  C141     1.0000 0.34970  0.86180  0.10480  Biso   1.000  C
  H59      1.0000 0.35940  0.89850  0.13020  Biso   1.000  H
  C142     1.0000 0.31300  0.84800  0.07920  Biso   1.000  C
  H60      1.0000 0.29710  0.87850  0.08460  Biso   1.000  H
  C143     1.0000 0.29790  0.79200  0.04540  Biso   1.000  C
  C144     1.0000 0.32220  0.75000  0.03670  Biso   1.000  C
  H61      1.0000 0.31380  0.71130  0.01320  Biso   1.000  H
  C145     1.0000 0.35890  0.76900  0.06450  Biso   1.000  C
  H62      1.0000 0.37610  0.73960  0.06140  Biso   1.000  H
  C146     1.0000 0.25940  0.77600  0.01650  Biso   1.000  C
  H63      1.0000 0.24420  0.80780  0.02200  Biso   1.000  H
  N82      1.0000 0.44490  0.73510  0.15750  Biso   1.000  N
  C147     1.0000 0.45190  0.68610  0.13080  Biso   1.000  C
  H64      1.0000 0.45570  0.70040  0.10280  Biso   1.000  H
  C148     1.0000 0.45360  0.61560  0.14270  Biso   1.000  C
  H65      1.0000 0.45910  0.58240  0.12320  Biso   1.000  H
  C149     1.0000 0.44760  0.59250  0.18240  Biso   1.000  C
  C150     1.0000 0.44850  0.64310  0.21660  Biso   1.000  C
  H66      1.0000 0.45090  0.63100  0.24970  Biso   1.000  H
  C151     1.0000 0.44570  0.71180  0.20090  Biso   1.000  C
  H67      1.0000 0.44420  0.74610  0.22330  Biso   1.000  H
  C152     1.0000 0.44860  0.51800  0.19400  Biso   1.000  C
  H68      1.0000 0.45140  0.48530  0.17170  Biso   1.000  H
  N83      1.0000 0.43730  0.27250  0.25940  Biso   1.000  N
  C153     1.0000 0.43830  0.32260  0.29200  Biso   1.000  C
  H69      1.0000 0.43730  0.30850  0.32240  Biso   1.000  H
  C154     1.0000 0.44070  0.39370  0.28450  Biso   1.000  C
  H70      1.0000 0.44040  0.42700  0.30840  Biso   1.000  H
  C155     1.0000 0.44350  0.41570  0.24170  Biso   1.000  C
  C156     1.0000 0.45320  0.36360  0.21800  Biso   1.000  C
  H71      1.0000 0.46380  0.37560  0.19690  Biso   1.000  H
  C157     1.0000 0.44750  0.29410  0.22500  Biso   1.000  C
  H72      1.0000 0.45100  0.25970  0.20460  Biso   1.000  H
  C158     1.0000 0.44570  0.49200  0.23500  Biso   1.000  C
  H73      1.0000 0.44510  0.52370  0.25970  Biso   1.000  H
  N84      1.0000 0.36890  0.83380  0.72220  Biso   1.000  N
  C159     1.0000 0.34960  0.78300  0.72900  Biso   1.000  C
  H74      1.0000 0.36260  0.74680  0.75440  Biso   1.000  H
  C160     1.0000 0.31130  0.78100  0.70100  Biso   1.000  C
  H75      1.0000 0.29860  0.74130  0.70380  Biso   1.000  H
  C161     1.0000 0.31120  0.88600  0.65800  Biso   1.000  C
  H76      1.0000 0.29880  0.92190  0.63280  Biso   1.000  H
  C162     1.0000 0.34930  0.88100  0.68510  Biso   1.000  C
  H77      1.0000 0.36260  0.91450  0.67670  Biso   1.000  H
  C163     1.0000 0.29140  0.83600  0.66810  Biso   1.000  C
  C164     1.0000 0.24720  0.84300  0.63600  Biso   1.000  C
  H78      1.0000 0.23560  0.85180  0.59920  Biso   1.000  H
  N85      1.0000 0.10910  0.83170  0.57680  Biso   1.000  N
  C165     1.0000 0.12830  0.84400  0.55220  Biso   1.000  C
  H79      1.0000 0.11490  0.84980  0.51500  Biso   1.000  H
  C166     1.0000 0.16660  0.84800  0.57780  Biso   1.000  C
  H80      1.0000 0.17870  0.85830  0.55840  Biso   1.000  H
  C167     1.0000 0.18690  0.83700  0.63120  Biso   1.000  C
  C168     1.0000 0.16730  0.83500  0.65780  Biso   1.000  C
  H81      1.0000 0.18000  0.83690  0.69530  Biso   1.000  H
  C169     1.0000 0.12910  0.82900  0.62970  Biso   1.000  C
  H82      1.0000 0.11630  0.82250  0.64870  Biso   1.000  H
  C170     1.0000 0.22800  0.83900  0.65500  Biso   1.000  C
  H83      1.0000 0.24150  0.83640  0.69230  Biso   1.000  H
  N86      1.0000 0.42540  0.84360  0.04930  Biso   1.000  N
  N87      1.0000 0.42340  0.96280  0.11150  Biso   1.000  N
  C171     1.0000 0.35000  0.87100  0.74000  Biso   1.000  C
  C172     1.0000 0.31200  0.86500  0.71800  Biso   1.000  C
  C173     1.0000 0.31080  0.81200  0.64430  Biso   1.000  C
  C174     1.0000 0.34910  0.80900  0.67300  Biso   1.000  C
  H84      1.0000 0.36320  0.90200  0.76880  Biso   1.000  H
  H85      1.0000 0.30020  0.88160  0.73630  Biso   1.000  H
  H86      1.0000 0.29790  0.79720  0.60850  Biso   1.000  H
  H87      1.0000 0.36180  0.78800  0.65730  Biso   1.000  H
  W10      1.0000 0.91767  0.62112  0.80568  Biso   1.000  W
  W11      1.0000 0.92088  0.62796  0.07921  Biso   1.000  W
  W12      1.0000 0.90505  0.27573  0.93312  Biso   1.000  W
  Mn13     1.0000 0.93418  0.35020  0.13196  Biso   1.000  Mn
  Mn14     1.0000 0.93139  0.34340  0.77255  Biso   1.000  Mn
  Mn15     1.0000 0.95249  0.81500  0.96456  Biso   1.000  Mn
  Mn16     1.0000 0.82901  0.52690  0.88021  Biso   1.000  Mn
  C175     1.0000 0.92680  0.62510  0.73800  Biso   1.000  C
  N88      1.0000 0.93220  0.62630  0.70420  Biso   1.000  N
  C176     1.0000 0.89530  0.71900  0.77220  Biso   1.000  C
  N89      1.0000 0.88380  0.77500  0.75660  Biso   1.000  N
  C177     1.0000 0.86500  0.59440  0.73750  Biso   1.000  C
  N90      1.0000 0.83700  0.58270  0.70070  Biso   1.000  N
  C178     1.0000 0.94630  0.56770  0.88030  Biso   1.000  C
  N91      1.0000 0.96130  0.54190  0.92050  Biso   1.000  N
  C179     1.0000 0.97560  0.63720  0.83200  Biso   1.000  C
  N92      1.0000 0.00580  0.64230  0.84230  Biso   1.000  N
  C180     1.0000 0.92210  0.51280  0.79350  Biso   1.000  C
  N93      1.0000 0.92520  0.45370  0.78450  Biso   1.000  N
  C181     1.0000 0.93430  0.69750  0.86780  Biso   1.000  C
  N94      1.0000 0.94260  0.74070  0.90240  Biso   1.000  N
  C182     1.0000 0.87820  0.59970  0.83050  Biso   1.000  C
  N95      1.0000 0.85750  0.58400  0.84460  Biso   1.000  N
  C183     1.0000 0.90710  0.73400  0.08700  Biso   1.000  C
  N96      1.0000 0.89930  0.79600  0.08960  Biso   1.000  N
  C184     1.0000 0.86660  0.61200  0.06960  Biso   1.000  C
  N97      1.0000 0.83620  0.61200  0.06210  Biso   1.000  N
  C185     1.0000 0.92630  0.63190  0.15690  Biso   1.000  C
  N98      1.0000 0.93170  0.63230  0.19940  Biso   1.000  N
  C186     1.0000 0.95260  0.57110  0.05270  Biso   1.000  C
  N99      1.0000 0.96730  0.53920  0.03440  Biso   1.000  N
  C187     1.0000 0.92070  0.51910  0.09900  Biso   1.000  C
  C188     1.0000 0.97780  0.64700  0.13660  Biso   1.000  C
  N100     1.0000 0.00800  0.65460  0.16970  Biso   1.000  N
  C189     1.0000 0.93680  0.69510  0.03670  Biso   1.000  C
  N101     1.0000 0.94600  0.73650  0.01410  Biso   1.000  N
  C190     1.0000 0.88190  0.60100  0.99760  Biso   1.000  C
  N102     1.0000 0.86260  0.58060  0.95410  Biso   1.000  N
  C191     1.0000 0.89980  0.18100  0.89010  Biso   1.000  C
  N103     1.0000 0.89890  0.12600  0.86720  Biso   1.000  N
  C192     1.0000 0.89260  0.19200  0.97100  Biso   1.000  C
  N104     1.0000 0.87400  0.16200  0.98400  Biso   1.000  N
  C193     1.0000 0.84700  0.26100  0.88100  Biso   1.000  C
  N105     1.0000 0.81600  0.26400  0.83400  Biso   1.000  N
  C194     1.0000 0.94750  0.35810  0.96220  Biso   1.000  C
  N106     1.0000 0.96870  0.39930  0.97790  Biso   1.000  N
  C195     1.0000 0.91630  0.30450  0.01050  Biso   1.000  C
  C196     1.0000 0.91450  0.30300  0.86810  Biso   1.000  C
  N107     1.0000 0.92370  0.32000  0.83920  Biso   1.000  N
  C197     1.0000 0.95780  0.22340  0.97590  Biso   1.000  C
  N108     1.0000 0.98690  0.20010  0.99780  Biso   1.000  N
  C198     1.0000 0.87820  0.37710  0.91270  Biso   1.000  C
  N109     1.0000 0.86310  0.43070  0.90250  Biso   1.000  N
  N110     1.0000 0.87240  0.32440  0.09480  Biso   1.000  N
  C199     1.0000 0.84970  0.36180  0.10480  Biso   1.000  C
  H88      1.0000 0.85940  0.39850  0.13020  Biso   1.000  H
  C200     1.0000 0.81300  0.34800  0.07920  Biso   1.000  C
  H89      1.0000 0.79710  0.37850  0.08460  Biso   1.000  H
  C201     1.0000 0.79790  0.29200  0.04540  Biso   1.000  C
  C202     1.0000 0.82220  0.25000  0.03670  Biso   1.000  C
  H90      1.0000 0.81380  0.21130  0.01320  Biso   1.000  H
  C203     1.0000 0.85890  0.26900  0.06450  Biso   1.000  C
  H91      1.0000 0.87610  0.23960  0.06140  Biso   1.000  H
  C204     1.0000 0.75940  0.27600  0.01650  Biso   1.000  C
  H92      1.0000 0.74420  0.30780  0.02200  Biso   1.000  H
  N111     1.0000 0.94490  0.23510  0.15750  Biso   1.000  N
  C205     1.0000 0.95190  0.18610  0.13080  Biso   1.000  C
  H93      1.0000 0.95570  0.20040  0.10280  Biso   1.000  H
  C206     1.0000 0.95360  0.11560  0.14270  Biso   1.000  C
  H94      1.0000 0.95910  0.08240  0.12320  Biso   1.000  H
  C207     1.0000 0.94760  0.09250  0.18240  Biso   1.000  C
  C208     1.0000 0.94850  0.14310  0.21660  Biso   1.000  C
  H95      1.0000 0.95090  0.13100  0.24970  Biso   1.000  H
  C209     1.0000 0.94570  0.21180  0.20090  Biso   1.000  C
  H96      1.0000 0.94420  0.24610  0.22330  Biso   1.000  H
  C210     1.0000 0.94860  0.01800  0.19400  Biso   1.000  C
  H97      1.0000 0.95140  0.98530  0.17170  Biso   1.000  H
  N112     1.0000 0.93730  0.77250  0.25940  Biso   1.000  N
  C211     1.0000 0.93830  0.82260  0.29200  Biso   1.000  C
  H98      1.0000 0.93730  0.80850  0.32240  Biso   1.000  H
  C212     1.0000 0.94070  0.89370  0.28450  Biso   1.000  C
  H99      1.0000 0.94040  0.92700  0.30840  Biso   1.000  H
  C213     1.0000 0.94350  0.91570  0.24170  Biso   1.000  C
  C214     1.0000 0.95320  0.86360  0.21800  Biso   1.000  C
  H100     1.0000 0.96380  0.87560  0.19690  Biso   1.000  H
  C215     1.0000 0.94750  0.79410  0.22500  Biso   1.000  C
  H101     1.0000 0.95100  0.75970  0.20460  Biso   1.000  H
  C216     1.0000 0.94570  0.99200  0.23500  Biso   1.000  C
  H102     1.0000 0.94510  0.02370  0.25970  Biso   1.000  H
  N113     1.0000 0.86890  0.33380  0.72220  Biso   1.000  N
  C217     1.0000 0.84960  0.28300  0.72900  Biso   1.000  C
  H103     1.0000 0.86260  0.24680  0.75440  Biso   1.000  H
  C218     1.0000 0.81130  0.28100  0.70100  Biso   1.000  C
  H104     1.0000 0.79860  0.24130  0.70380  Biso   1.000  H
  C219     1.0000 0.81120  0.38600  0.65800  Biso   1.000  C
  H105     1.0000 0.79880  0.42190  0.63280  Biso   1.000  H
  C220     1.0000 0.84930  0.38100  0.68510  Biso   1.000  C
  H106     1.0000 0.86260  0.41450  0.67670  Biso   1.000  H
  C221     1.0000 0.79140  0.33600  0.66810  Biso   1.000  C
  C222     1.0000 0.74720  0.34300  0.63600  Biso   1.000  C
  H107     1.0000 0.73560  0.35180  0.59920  Biso   1.000  H
  N114     1.0000 0.60910  0.33170  0.57680  Biso   1.000  N
  C223     1.0000 0.62830  0.34400  0.55220  Biso   1.000  C
  H108     1.0000 0.61490  0.34980  0.51500  Biso   1.000  H
  C224     1.0000 0.66660  0.34800  0.57780  Biso   1.000  C
  H109     1.0000 0.67870  0.35830  0.55840  Biso   1.000  H
  C225     1.0000 0.68690  0.33700  0.63120  Biso   1.000  C
  C226     1.0000 0.66730  0.33500  0.65780  Biso   1.000  C
  H110     1.0000 0.68000  0.33690  0.69530  Biso   1.000  H
  C227     1.0000 0.62910  0.32900  0.62970  Biso   1.000  C
  H111     1.0000 0.61630  0.32250  0.64870  Biso   1.000  H
  C228     1.0000 0.72800  0.33900  0.65500  Biso   1.000  C
  H112     1.0000 0.74150  0.33640  0.69230  Biso   1.000  H
  N115     1.0000 0.92540  0.34360  0.04930  Biso   1.000  N
  N116     1.0000 0.92340  0.46280  0.11150  Biso   1.000  N
  C229     1.0000 0.85000  0.37100  0.74000  Biso   1.000  C
  C230     1.0000 0.81200  0.36500  0.71800  Biso   1.000  C
  C231     1.0000 0.81080  0.31200  0.64430  Biso   1.000  C
  C232     1.0000 0.84910  0.30900  0.67300  Biso   1.000  C
  H113     1.0000 0.86320  0.40200  0.76880  Biso   1.000  H
  H114     1.0000 0.80020  0.38160  0.73630  Biso   1.000  H
  H115     1.0000 0.79790  0.29720  0.60850  Biso   1.000  H
  H116     1.0000 0.86180  0.28800  0.65730  Biso   1.000  H
  W13      1.0000 0.41767  0.87888  0.30568  Biso   1.000  W
  W14      1.0000 0.42088  0.87204  0.57921  Biso   1.000  W
  W15      1.0000 0.40505  0.22427  0.43312  Biso   1.000  W
  Mn17     1.0000 0.43418  0.14980  0.63196  Biso   1.000  Mn
  Mn18     1.0000 0.43139  0.15660  0.27255  Biso   1.000  Mn
  Mn19     1.0000 0.45249  0.68500  0.46456  Biso   1.000  Mn
  Mn20     1.0000 0.32901  0.97310  0.38021  Biso   1.000  Mn
  C233     1.0000 0.42680  0.87490  0.23800  Biso   1.000  C
  N117     1.0000 0.43220  0.87370  0.20420  Biso   1.000  N
  C234     1.0000 0.39530  0.78100  0.27220  Biso   1.000  C
  N118     1.0000 0.38380  0.72500  0.25660  Biso   1.000  N
  C235     1.0000 0.36500  0.90560  0.23750  Biso   1.000  C
  N119     1.0000 0.33700  0.91730  0.20070  Biso   1.000  N
  C236     1.0000 0.44630  0.93230  0.38030  Biso   1.000  C
  N120     1.0000 0.46130  0.95810  0.42050  Biso   1.000  N
  C237     1.0000 0.47560  0.86280  0.33200  Biso   1.000  C
  N121     1.0000 0.50580  0.85770  0.34230  Biso   1.000  N
  C238     1.0000 0.42210  0.98720  0.29350  Biso   1.000  C
  N122     1.0000 0.42520  0.04630  0.28450  Biso   1.000  N
  C239     1.0000 0.43430  0.80250  0.36780  Biso   1.000  C
  N123     1.0000 0.44260  0.75930  0.40240  Biso   1.000  N
  C240     1.0000 0.37820  0.90030  0.33050  Biso   1.000  C
  N124     1.0000 0.35750  0.91600  0.34460  Biso   1.000  N
  C241     1.0000 0.40710  0.76600  0.58700  Biso   1.000  C
  N125     1.0000 0.39930  0.70400  0.58960  Biso   1.000  N
  C242     1.0000 0.36660  0.88800  0.56960  Biso   1.000  C
  N126     1.0000 0.33620  0.88800  0.56210  Biso   1.000  N
  C243     1.0000 0.42630  0.86810  0.65690  Biso   1.000  C
  N127     1.0000 0.43170  0.86770  0.69940  Biso   1.000  N
  C244     1.0000 0.45260  0.92890  0.55270  Biso   1.000  C
  N128     1.0000 0.46730  0.96080  0.53440  Biso   1.000  N
  C245     1.0000 0.42070  0.98090  0.59900  Biso   1.000  C
  C246     1.0000 0.47780  0.85300  0.63660  Biso   1.000  C
  N129     1.0000 0.50800  0.84540  0.66970  Biso   1.000  N
  C247     1.0000 0.43680  0.80490  0.53670  Biso   1.000  C
  N130     1.0000 0.44600  0.76350  0.51410  Biso   1.000  N
  C248     1.0000 0.38190  0.89900  0.49760  Biso   1.000  C
  N131     1.0000 0.36260  0.91940  0.45410  Biso   1.000  N
  C249     1.0000 0.39980  0.31900  0.39010  Biso   1.000  C
  N132     1.0000 0.39890  0.37400  0.36720  Biso   1.000  N
  C250     1.0000 0.39260  0.30800  0.47100  Biso   1.000  C
  N133     1.0000 0.37400  0.33800  0.48400  Biso   1.000  N
  C251     1.0000 0.34700  0.23900  0.38100  Biso   1.000  C
  N134     1.0000 0.31600  0.23600  0.33400  Biso   1.000  N
  C252     1.0000 0.44750  0.14190  0.46220  Biso   1.000  C
  N135     1.0000 0.46870  0.10070  0.47790  Biso   1.000  N
  C253     1.0000 0.41630  0.19550  0.51050  Biso   1.000  C
  C254     1.0000 0.41450  0.19700  0.36810  Biso   1.000  C
  N136     1.0000 0.42370  0.18000  0.33920  Biso   1.000  N
  C255     1.0000 0.45780  0.27660  0.47590  Biso   1.000  C
  N137     1.0000 0.48690  0.29990  0.49780  Biso   1.000  N
  C256     1.0000 0.37820  0.12290  0.41270  Biso   1.000  C
  N138     1.0000 0.36310  0.06930  0.40250  Biso   1.000  N
  N139     1.0000 0.37240  0.17560  0.59480  Biso   1.000  N
  C257     1.0000 0.34970  0.13820  0.60480  Biso   1.000  C
  H117     1.0000 0.35940  0.10150  0.63020  Biso   1.000  H
  C258     1.0000 0.31300  0.15200  0.57920  Biso   1.000  C
  H118     1.0000 0.29710  0.12150  0.58460  Biso   1.000  H
  C259     1.0000 0.29790  0.20800  0.54540  Biso   1.000  C
  C260     1.0000 0.32220  0.25000  0.53670  Biso   1.000  C
  H119     1.0000 0.31380  0.28870  0.51320  Biso   1.000  H
  C261     1.0000 0.35890  0.23100  0.56450  Biso   1.000  C
  H120     1.0000 0.37610  0.26040  0.56140  Biso   1.000  H
  C262     1.0000 0.25940  0.22400  0.51650  Biso   1.000  C
  H121     1.0000 0.24420  0.19220  0.52200  Biso   1.000  H
  N140     1.0000 0.44490  0.26490  0.65750  Biso   1.000  N
  C263     1.0000 0.45190  0.31390  0.63080  Biso   1.000  C
  H122     1.0000 0.45570  0.29960  0.60280  Biso   1.000  H
  C264     1.0000 0.45360  0.38440  0.64270  Biso   1.000  C
  H123     1.0000 0.45910  0.41760  0.62320  Biso   1.000  H
  C265     1.0000 0.44760  0.40750  0.68240  Biso   1.000  C
  C266     1.0000 0.44850  0.35690  0.71660  Biso   1.000  C
  H124     1.0000 0.45090  0.36900  0.74970  Biso   1.000  H
  C267     1.0000 0.44570  0.28820  0.70090  Biso   1.000  C
  H125     1.0000 0.44420  0.25390  0.72330  Biso   1.000  H
  C268     1.0000 0.44860  0.48200  0.69400  Biso   1.000  C
  H126     1.0000 0.45140  0.51470  0.67170  Biso   1.000  H
  N141     1.0000 0.43730  0.72750  0.75940  Biso   1.000  N
  C269     1.0000 0.43830  0.67740  0.79200  Biso   1.000  C
  H127     1.0000 0.43730  0.69150  0.82240  Biso   1.000  H
  C270     1.0000 0.44070  0.60630  0.78450  Biso   1.000  C
  H128     1.0000 0.44040  0.57300  0.80840  Biso   1.000  H
  C271     1.0000 0.44350  0.58430  0.74170  Biso   1.000  C
  C272     1.0000 0.45320  0.63640  0.71800  Biso   1.000  C
  H129     1.0000 0.46380  0.62440  0.69690  Biso   1.000  H
  C273     1.0000 0.44750  0.70590  0.72500  Biso   1.000  C
  H130     1.0000 0.45100  0.74030  0.70460  Biso   1.000  H
  C274     1.0000 0.44570  0.50800  0.73500  Biso   1.000  C
  H131     1.0000 0.44510  0.47630  0.75970  Biso   1.000  H
  N142     1.0000 0.36890  0.16620  0.22220  Biso   1.000  N
  C275     1.0000 0.34960  0.21700  0.22900  Biso   1.000  C
  H132     1.0000 0.36260  0.25320  0.25440  Biso   1.000  H
  C276     1.0000 0.31130  0.21900  0.20100  Biso   1.000  C
  H133     1.0000 0.29860  0.25870  0.20380  Biso   1.000  H
  C277     1.0000 0.31120  0.11400  0.15800  Biso   1.000  C
  H134     1.0000 0.29880  0.07810  0.13280  Biso   1.000  H
  C278     1.0000 0.34930  0.11900  0.18510  Biso   1.000  C
  H135     1.0000 0.36260  0.08550  0.17670  Biso   1.000  H
  C279     1.0000 0.29140  0.16400  0.16810  Biso   1.000  C
  C280     1.0000 0.24720  0.15700  0.13600  Biso   1.000  C
  H136     1.0000 0.23560  0.14820  0.09920  Biso   1.000  H
  N143     1.0000 0.10910  0.16830  0.07680  Biso   1.000  N
  C281     1.0000 0.12830  0.15600  0.05220  Biso   1.000  C
  H137     1.0000 0.11490  0.15020  0.01500  Biso   1.000  H
  C282     1.0000 0.16660  0.15200  0.07780  Biso   1.000  C
  H138     1.0000 0.17870  0.14170  0.05840  Biso   1.000  H
  C283     1.0000 0.18690  0.16300  0.13120  Biso   1.000  C
  C284     1.0000 0.16730  0.16500  0.15780  Biso   1.000  C
  H139     1.0000 0.18000  0.16310  0.19530  Biso   1.000  H
  C285     1.0000 0.12910  0.17100  0.12970  Biso   1.000  C
  H140     1.0000 0.11630  0.17750  0.14870  Biso   1.000  H
  C286     1.0000 0.22800  0.16100  0.15500  Biso   1.000  C
  H141     1.0000 0.24150  0.16360  0.19230  Biso   1.000  H
  N144     1.0000 0.42540  0.15640  0.54930  Biso   1.000  N
  N145     1.0000 0.42340  0.03720  0.61150  Biso   1.000  N
  C287     1.0000 0.35000  0.12900  0.24000  Biso   1.000  C
  C288     1.0000 0.31200  0.13500  0.21800  Biso   1.000  C
  C289     1.0000 0.31080  0.18800  0.14430  Biso   1.000  C
  C290     1.0000 0.34910  0.19100  0.17300  Biso   1.000  C
  H142     1.0000 0.36320  0.09800  0.26880  Biso   1.000  H
  H143     1.0000 0.30020  0.11840  0.23630  Biso   1.000  H
  H144     1.0000 0.29790  0.20280  0.10850  Biso   1.000  H
  H145     1.0000 0.36180  0.21200  0.15730  Biso   1.000  H
  W16      1.0000 0.91767  0.37888  0.30568  Biso   1.000  W
  W17      1.0000 0.92088  0.37204  0.57921  Biso   1.000  W
  W18      1.0000 0.90505  0.72427  0.43312  Biso   1.000  W
  Mn21     1.0000 0.93418  0.64980  0.63196  Biso   1.000  Mn
  Mn22     1.0000 0.93139  0.65660  0.27255  Biso   1.000  Mn
  Mn23     1.0000 0.95249  0.18500  0.46456  Biso   1.000  Mn
  Mn24     1.0000 0.82901  0.47310  0.38021  Biso   1.000  Mn
  C291     1.0000 0.92680  0.37490  0.23800  Biso   1.000  C
  N146     1.0000 0.93220  0.37370  0.20420  Biso   1.000  N
  C292     1.0000 0.89530  0.28100  0.27220  Biso   1.000  C
  N147     1.0000 0.88380  0.22500  0.25660  Biso   1.000  N
  C293     1.0000 0.86500  0.40560  0.23750  Biso   1.000  C
  N148     1.0000 0.83700  0.41730  0.20070  Biso   1.000  N
  C294     1.0000 0.94630  0.43230  0.38030  Biso   1.000  C
  N149     1.0000 0.96130  0.45810  0.42050  Biso   1.000  N
  C295     1.0000 0.97560  0.36280  0.33200  Biso   1.000  C
  N150     1.0000 0.00580  0.35770  0.34230  Biso   1.000  N
  C296     1.0000 0.92210  0.48720  0.29350  Biso   1.000  C
  N151     1.0000 0.92520  0.54630  0.28450  Biso   1.000  N
  C297     1.0000 0.93430  0.30250  0.36780  Biso   1.000  C
  N152     1.0000 0.94260  0.25930  0.40240  Biso   1.000  N
  C298     1.0000 0.87820  0.40030  0.33050  Biso   1.000  C
  N153     1.0000 0.85750  0.41600  0.34460  Biso   1.000  N
  C299     1.0000 0.90710  0.26600  0.58700  Biso   1.000  C
  N154     1.0000 0.89930  0.20400  0.58960  Biso   1.000  N
  C300     1.0000 0.86660  0.38800  0.56960  Biso   1.000  C
  N155     1.0000 0.83620  0.38800  0.56210  Biso   1.000  N
  C301     1.0000 0.92630  0.36810  0.65690  Biso   1.000  C
  N156     1.0000 0.93170  0.36770  0.69940  Biso   1.000  N
  C302     1.0000 0.95260  0.42890  0.55270  Biso   1.000  C
  N157     1.0000 0.96730  0.46080  0.53440  Biso   1.000  N
  C303     1.0000 0.92070  0.48090  0.59900  Biso   1.000  C
  C304     1.0000 0.97780  0.35300  0.63660  Biso   1.000  C
  N158     1.0000 0.00800  0.34540  0.66970  Biso   1.000  N
  C305     1.0000 0.93680  0.30490  0.53670  Biso   1.000  C
  N159     1.0000 0.94600  0.26350  0.51410  Biso   1.000  N
  C306     1.0000 0.88190  0.39900  0.49760  Biso   1.000  C
  N160     1.0000 0.86260  0.41940  0.45410  Biso   1.000  N
  C307     1.0000 0.89980  0.81900  0.39010  Biso   1.000  C
  N161     1.0000 0.89890  0.87400  0.36720  Biso   1.000  N
  C308     1.0000 0.89260  0.80800  0.47100  Biso   1.000  C
  N162     1.0000 0.87400  0.83800  0.48400  Biso   1.000  N
  C309     1.0000 0.84700  0.73900  0.38100  Biso   1.000  C
  N163     1.0000 0.81600  0.73600  0.33400  Biso   1.000  N
  C310     1.0000 0.94750  0.64190  0.46220  Biso   1.000  C
  N164     1.0000 0.96870  0.60070  0.47790  Biso   1.000  N
  C311     1.0000 0.91630  0.69550  0.51050  Biso   1.000  C
  C312     1.0000 0.91450  0.69700  0.36810  Biso   1.000  C
  N165     1.0000 0.92370  0.68000  0.33920  Biso   1.000  N
  C313     1.0000 0.95780  0.77660  0.47590  Biso   1.000  C
  N166     1.0000 0.98690  0.79990  0.49780  Biso   1.000  N
  C314     1.0000 0.87820  0.62290  0.41270  Biso   1.000  C
  N167     1.0000 0.86310  0.56930  0.40250  Biso   1.000  N
  N168     1.0000 0.87240  0.67560  0.59480  Biso   1.000  N
  C315     1.0000 0.84970  0.63820  0.60480  Biso   1.000  C
  H146     1.0000 0.85940  0.60150  0.63020  Biso   1.000  H
  C316     1.0000 0.81300  0.65200  0.57920  Biso   1.000  C
  H147     1.0000 0.79710  0.62150  0.58460  Biso   1.000  H
  C317     1.0000 0.79790  0.70800  0.54540  Biso   1.000  C
  C318     1.0000 0.82220  0.75000  0.53670  Biso   1.000  C
  H148     1.0000 0.81380  0.78870  0.51320  Biso   1.000  H
  C319     1.0000 0.85890  0.73100  0.56450  Biso   1.000  C
  H149     1.0000 0.87610  0.76040  0.56140  Biso   1.000  H
  C320     1.0000 0.75940  0.72400  0.51650  Biso   1.000  C
  H150     1.0000 0.74420  0.69220  0.52200  Biso   1.000  H
  N169     1.0000 0.94490  0.76490  0.65750  Biso   1.000  N
  C321     1.0000 0.95190  0.81390  0.63080  Biso   1.000  C
  H151     1.0000 0.95570  0.79960  0.60280  Biso   1.000  H
  C322     1.0000 0.95360  0.88440  0.64270  Biso   1.000  C
  H152     1.0000 0.95910  0.91760  0.62320  Biso   1.000  H
  C323     1.0000 0.94760  0.90750  0.68240  Biso   1.000  C
  C324     1.0000 0.94850  0.85690  0.71660  Biso   1.000  C
  H153     1.0000 0.95090  0.86900  0.74970  Biso   1.000  H
  C325     1.0000 0.94570  0.78820  0.70090  Biso   1.000  C
  H154     1.0000 0.94420  0.75390  0.72330  Biso   1.000  H
  C326     1.0000 0.94860  0.98200  0.69400  Biso   1.000  C
  H155     1.0000 0.95140  0.01470  0.67170  Biso   1.000  H
  N170     1.0000 0.93730  0.22750  0.75940  Biso   1.000  N
  C327     1.0000 0.93830  0.17740  0.79200  Biso   1.000  C
  H156     1.0000 0.93730  0.19150  0.82240  Biso   1.000  H
  C328     1.0000 0.94070  0.10630  0.78450  Biso   1.000  C
  H157     1.0000 0.94040  0.07300  0.80840  Biso   1.000  H
  C329     1.0000 0.94350  0.08430  0.74170  Biso   1.000  C
  C330     1.0000 0.95320  0.13640  0.71800  Biso   1.000  C
  H158     1.0000 0.96380  0.12440  0.69690  Biso   1.000  H
  C331     1.0000 0.94750  0.20590  0.72500  Biso   1.000  C
  H159     1.0000 0.95100  0.24030  0.70460  Biso   1.000  H
  C332     1.0000 0.94570  0.00800  0.73500  Biso   1.000  C
  H160     1.0000 0.94510  0.97630  0.75970  Biso   1.000  H
  N171     1.0000 0.86890  0.66620  0.22220  Biso   1.000  N
  C333     1.0000 0.84960  0.71700  0.22900  Biso   1.000  C
  H161     1.0000 0.86260  0.75320  0.25440  Biso   1.000  H
  C334     1.0000 0.81130  0.71900  0.20100  Biso   1.000  C
  H162     1.0000 0.79860  0.75870  0.20380  Biso   1.000  H
  C335     1.0000 0.81120  0.61400  0.15800  Biso   1.000  C
  H163     1.0000 0.79880  0.57810  0.13280  Biso   1.000  H
  C336     1.0000 0.84930  0.61900  0.18510  Biso   1.000  C
  H164     1.0000 0.86260  0.58550  0.17670  Biso   1.000  H
  C337     1.0000 0.79140  0.66400  0.16810  Biso   1.000  C
  C338     1.0000 0.74720  0.65700  0.13600  Biso   1.000  C
  H165     1.0000 0.73560  0.64820  0.09920  Biso   1.000  H
  N172     1.0000 0.60910  0.66830  0.07680  Biso   1.000  N
  C339     1.0000 0.62830  0.65600  0.05220  Biso   1.000  C
  H166     1.0000 0.61490  0.65020  0.01500  Biso   1.000  H
  C340     1.0000 0.66660  0.65200  0.07780  Biso   1.000  C
  H167     1.0000 0.67870  0.64170  0.05840  Biso   1.000  H
  C341     1.0000 0.68690  0.66300  0.13120  Biso   1.000  C
  C342     1.0000 0.66730  0.66500  0.15780  Biso   1.000  C
  H168     1.0000 0.68000  0.66310  0.19530  Biso   1.000  H
  C343     1.0000 0.62910  0.67100  0.12970  Biso   1.000  C
  H169     1.0000 0.61630  0.67750  0.14870  Biso   1.000  H
  C344     1.0000 0.72800  0.66100  0.15500  Biso   1.000  C
  H170     1.0000 0.74150  0.66360  0.19230  Biso   1.000  H
  N173     1.0000 0.92540  0.65640  0.54930  Biso   1.000  N
  N174     1.0000 0.92340  0.53720  0.61150  Biso   1.000  N
  C345     1.0000 0.85000  0.62900  0.24000  Biso   1.000  C
  C346     1.0000 0.81200  0.63500  0.21800  Biso   1.000  C
  C347     1.0000 0.81080  0.68800  0.14430  Biso   1.000  C
  C348     1.0000 0.84910  0.69100  0.17300  Biso   1.000  C
  H171     1.0000 0.86320  0.59800  0.26880  Biso   1.000  H
  H172     1.0000 0.80020  0.61840  0.23630  Biso   1.000  H
  H173     1.0000 0.79790  0.70280  0.10850  Biso   1.000  H
  H174     1.0000 0.86180  0.71200  0.15730  Biso   1.000  H
  W19      1.0000 0.58233  0.87888  0.19432  Biso   1.000  W
  W20      1.0000 0.57912  0.87204  0.92079  Biso   1.000  W
  W21      1.0000 0.59495  0.22427  0.06688  Biso   1.000  W
  Mn25     1.0000 0.56582  0.14980  0.86804  Biso   1.000  Mn
  Mn26     1.0000 0.56861  0.15660  0.22745  Biso   1.000  Mn
  Mn27     1.0000 0.54751  0.68500  0.03544  Biso   1.000  Mn
  Mn28     1.0000 0.67099  0.97310  0.11979  Biso   1.000  Mn
  C349     1.0000 0.57320  0.87490  0.26200  Biso   1.000  C
  N175     1.0000 0.56780  0.87370  0.29580  Biso   1.000  N
  C350     1.0000 0.60470  0.78100  0.22780  Biso   1.000  C
  N176     1.0000 0.61620  0.72500  0.24340  Biso   1.000  N
  C351     1.0000 0.63500  0.90560  0.26250  Biso   1.000  C
  N177     1.0000 0.66300  0.91730  0.29930  Biso   1.000  N
  C352     1.0000 0.55370  0.93230  0.11970  Biso   1.000  C
  N178     1.0000 0.53870  0.95810  0.07950  Biso   1.000  N
  C353     1.0000 0.52440  0.86280  0.16800  Biso   1.000  C
  N179     1.0000 0.49420  0.85770  0.15770  Biso   1.000  N
  C354     1.0000 0.57790  0.98720  0.20650  Biso   1.000  C
  N180     1.0000 0.57480  0.04630  0.21550  Biso   1.000  N
  C355     1.0000 0.56570  0.80250  0.13220  Biso   1.000  C
  N181     1.0000 0.55740  0.75930  0.09760  Biso   1.000  N
  C356     1.0000 0.62180  0.90030  0.16950  Biso   1.000  C
  N182     1.0000 0.64250  0.91600  0.15540  Biso   1.000  N
  C357     1.0000 0.59290  0.76600  0.91300  Biso   1.000  C
  N183     1.0000 0.60070  0.70400  0.91040  Biso   1.000  N
  C358     1.0000 0.63340  0.88800  0.93040  Biso   1.000  C
  N184     1.0000 0.66380  0.88800  0.93790  Biso   1.000  N
  C359     1.0000 0.57370  0.86810  0.84310  Biso   1.000  C
  N185     1.0000 0.56830  0.86770  0.80060  Biso   1.000  N
  C360     1.0000 0.54740  0.92890  0.94730  Biso   1.000  C
  N186     1.0000 0.53270  0.96080  0.96560  Biso   1.000  N
  C361     1.0000 0.57930  0.98090  0.90100  Biso   1.000  C
  C362     1.0000 0.52220  0.85300  0.86340  Biso   1.000  C
  N187     1.0000 0.49200  0.84540  0.83030  Biso   1.000  N
  C363     1.0000 0.56320  0.80490  0.96330  Biso   1.000  C
  N188     1.0000 0.55400  0.76350  0.98590  Biso   1.000  N
  C364     1.0000 0.61810  0.89900  0.00240  Biso   1.000  C
  N189     1.0000 0.63740  0.91940  0.04590  Biso   1.000  N
  C365     1.0000 0.60020  0.31900  0.10990  Biso   1.000  C
  N190     1.0000 0.60110  0.37400  0.13280  Biso   1.000  N
  C366     1.0000 0.60740  0.30800  0.02900  Biso   1.000  C
  N191     1.0000 0.62600  0.33800  0.01600  Biso   1.000  N
  C367     1.0000 0.65300  0.23900  0.11900  Biso   1.000  C
  N192     1.0000 0.68400  0.23600  0.16600  Biso   1.000  N
  C368     1.0000 0.55250  0.14190  0.03780  Biso   1.000  C
  N193     1.0000 0.53130  0.10070  0.02210  Biso   1.000  N
  C369     1.0000 0.58370  0.19550  0.98950  Biso   1.000  C
  C370     1.0000 0.58550  0.19700  0.13190  Biso   1.000  C
  N194     1.0000 0.57630  0.18000  0.16080  Biso   1.000  N
  C371     1.0000 0.54220  0.27660  0.02410  Biso   1.000  C
  N195     1.0000 0.51310  0.29990  0.00220  Biso   1.000  N
  C372     1.0000 0.62180  0.12290  0.08730  Biso   1.000  C
  N196     1.0000 0.63690  0.06930  0.09750  Biso   1.000  N
  N197     1.0000 0.62760  0.17560  0.90520  Biso   1.000  N
  C373     1.0000 0.65030  0.13820  0.89520  Biso   1.000  C
  H175     1.0000 0.64060  0.10150  0.86980  Biso   1.000  H
  C374     1.0000 0.68700  0.15200  0.92080  Biso   1.000  C
  H176     1.0000 0.70290  0.12150  0.91540  Biso   1.000  H
  C375     1.0000 0.70210  0.20800  0.95460  Biso   1.000  C
  C376     1.0000 0.67780  0.25000  0.96330  Biso   1.000  C
  H177     1.0000 0.68620  0.28870  0.98680  Biso   1.000  H
  C377     1.0000 0.64110  0.23100  0.93550  Biso   1.000  C
  H178     1.0000 0.62390  0.26040  0.93860  Biso   1.000  H
  C378     1.0000 0.74060  0.22400  0.98350  Biso   1.000  C
  H179     1.0000 0.75580  0.19220  0.97800  Biso   1.000  H
  N198     1.0000 0.55510  0.26490  0.84250  Biso   1.000  N
  C379     1.0000 0.54810  0.31390  0.86920  Biso   1.000  C
  H180     1.0000 0.54430  0.29960  0.89720  Biso   1.000  H
  C380     1.0000 0.54640  0.38440  0.85730  Biso   1.000  C
  H181     1.0000 0.54090  0.41760  0.87680  Biso   1.000  H
  C381     1.0000 0.55240  0.40750  0.81760  Biso   1.000  C
  C382     1.0000 0.55150  0.35690  0.78340  Biso   1.000  C
  H182     1.0000 0.54910  0.36900  0.75030  Biso   1.000  H
  C383     1.0000 0.55430  0.28820  0.79910  Biso   1.000  C
  H183     1.0000 0.55580  0.25390  0.77670  Biso   1.000  H
  C384     1.0000 0.55140  0.48200  0.80600  Biso   1.000  C
  H184     1.0000 0.54860  0.51470  0.82830  Biso   1.000  H
  N199     1.0000 0.56270  0.72750  0.74060  Biso   1.000  N
  C385     1.0000 0.56170  0.67740  0.70800  Biso   1.000  C
  H185     1.0000 0.56270  0.69150  0.67760  Biso   1.000  H
  C386     1.0000 0.55930  0.60630  0.71550  Biso   1.000  C
  H186     1.0000 0.55960  0.57300  0.69160  Biso   1.000  H
  C387     1.0000 0.55650  0.58430  0.75830  Biso   1.000  C
  C388     1.0000 0.54680  0.63640  0.78200  Biso   1.000  C
  H187     1.0000 0.53620  0.62440  0.80310  Biso   1.000  H
  C389     1.0000 0.55250  0.70590  0.77500  Biso   1.000  C
  H188     1.0000 0.54900  0.74030  0.79540  Biso   1.000  H
  C390     1.0000 0.55430  0.50800  0.76500  Biso   1.000  C
  H189     1.0000 0.55490  0.47630  0.74030  Biso   1.000  H
  N200     1.0000 0.63110  0.16620  0.27780  Biso   1.000  N
  C391     1.0000 0.65040  0.21700  0.27100  Biso   1.000  C
  H190     1.0000 0.63740  0.25320  0.24560  Biso   1.000  H
  C392     1.0000 0.68870  0.21900  0.29900  Biso   1.000  C
  H191     1.0000 0.70140  0.25870  0.29620  Biso   1.000  H
  C393     1.0000 0.68880  0.11400  0.34200  Biso   1.000  C
  H192     1.0000 0.70120  0.07810  0.36720  Biso   1.000  H
  C394     1.0000 0.65070  0.11900  0.31490  Biso   1.000  C
  H193     1.0000 0.63740  0.08550  0.32330  Biso   1.000  H
  C395     1.0000 0.70860  0.16400  0.33190  Biso   1.000  C
  C396     1.0000 0.75280  0.15700  0.36400  Biso   1.000  C
  H194     1.0000 0.76440  0.14820  0.40080  Biso   1.000  H
  N201     1.0000 0.89090  0.16830  0.42320  Biso   1.000  N
  C397     1.0000 0.87170  0.15600  0.44780  Biso   1.000  C
  H195     1.0000 0.88510  0.15020  0.48500  Biso   1.000  H
  C398     1.0000 0.83340  0.15200  0.42220  Biso   1.000  C
  H196     1.0000 0.82130  0.14170  0.44160  Biso   1.000  H
  C399     1.0000 0.81310  0.16300  0.36880  Biso   1.000  C
  C400     1.0000 0.83270  0.16500  0.34220  Biso   1.000  C
  H197     1.0000 0.82000  0.16310  0.30470  Biso   1.000  H
  C401     1.0000 0.87090  0.17100  0.37030  Biso   1.000  C
  H198     1.0000 0.88370  0.17750  0.35130  Biso   1.000  H
  C402     1.0000 0.77200  0.16100  0.34500  Biso   1.000  C
  H199     1.0000 0.75850  0.16360  0.30770  Biso   1.000  H
  N202     1.0000 0.57460  0.15640  0.95070  Biso   1.000  N
  N203     1.0000 0.57660  0.03720  0.88850  Biso   1.000  N
  C403     1.0000 0.65000  0.12900  0.26000  Biso   1.000  C
  C404     1.0000 0.68800  0.13500  0.28200  Biso   1.000  C
  C405     1.0000 0.68920  0.18800  0.35570  Biso   1.000  C
  C406     1.0000 0.65090  0.19100  0.32700  Biso   1.000  C
  H200     1.0000 0.63680  0.09800  0.23120  Biso   1.000  H
  H201     1.0000 0.69980  0.11840  0.26370  Biso   1.000  H
  H202     1.0000 0.70210  0.20280  0.39150  Biso   1.000  H
  H203     1.0000 0.63820  0.21200  0.34270  Biso   1.000  H
  W22      1.0000 0.08233  0.37888  0.19432  Biso   1.000  W
  W23      1.0000 0.07912  0.37204  0.92079  Biso   1.000  W
  W24      1.0000 0.09495  0.72427  0.06688  Biso   1.000  W
  Mn29     1.0000 0.06582  0.64980  0.86804  Biso   1.000  Mn
  Mn30     1.0000 0.06861  0.65660  0.22745  Biso   1.000  Mn
  Mn31     1.0000 0.04751  0.18500  0.03544  Biso   1.000  Mn
  Mn32     1.0000 0.17099  0.47310  0.11979  Biso   1.000  Mn
  C407     1.0000 0.07320  0.37490  0.26200  Biso   1.000  C
  N204     1.0000 0.06780  0.37370  0.29580  Biso   1.000  N
  C408     1.0000 0.10470  0.28100  0.22780  Biso   1.000  C
  N205     1.0000 0.11620  0.22500  0.24340  Biso   1.000  N
  C409     1.0000 0.13500  0.40560  0.26250  Biso   1.000  C
  N206     1.0000 0.16300  0.41730  0.29930  Biso   1.000  N
  C410     1.0000 0.05370  0.43230  0.11970  Biso   1.000  C
  N207     1.0000 0.03870  0.45810  0.07950  Biso   1.000  N
  C411     1.0000 0.02440  0.36280  0.16800  Biso   1.000  C
  N208     1.0000 0.99420  0.35770  0.15770  Biso   1.000  N
  C412     1.0000 0.07790  0.48720  0.20650  Biso   1.000  C
  N209     1.0000 0.07480  0.54630  0.21550  Biso   1.000  N
  C413     1.0000 0.06570  0.30250  0.13220  Biso   1.000  C
  N210     1.0000 0.05740  0.25930  0.09760  Biso   1.000  N
  C414     1.0000 0.12180  0.40030  0.16950  Biso   1.000  C
  N211     1.0000 0.14250  0.41600  0.15540  Biso   1.000  N
  C415     1.0000 0.09290  0.26600  0.91300  Biso   1.000  C
  N212     1.0000 0.10070  0.20400  0.91040  Biso   1.000  N
  C416     1.0000 0.13340  0.38800  0.93040  Biso   1.000  C
  N213     1.0000 0.16380  0.38800  0.93790  Biso   1.000  N
  C417     1.0000 0.07370  0.36810  0.84310  Biso   1.000  C
  N214     1.0000 0.06830  0.36770  0.80060  Biso   1.000  N
  C418     1.0000 0.04740  0.42890  0.94730  Biso   1.000  C
  N215     1.0000 0.03270  0.46080  0.96560  Biso   1.000  N
  C419     1.0000 0.07930  0.48090  0.90100  Biso   1.000  C
  C420     1.0000 0.02220  0.35300  0.86340  Biso   1.000  C
  N216     1.0000 0.99200  0.34540  0.83030  Biso   1.000  N
  C421     1.0000 0.06320  0.30490  0.96330  Biso   1.000  C
  N217     1.0000 0.05400  0.26350  0.98590  Biso   1.000  N
  C422     1.0000 0.11810  0.39900  0.00240  Biso   1.000  C
  N218     1.0000 0.13740  0.41940  0.04590  Biso   1.000  N
  C423     1.0000 0.10020  0.81900  0.10990  Biso   1.000  C
  N219     1.0000 0.10110  0.87400  0.13280  Biso   1.000  N
  C424     1.0000 0.10740  0.80800  0.02900  Biso   1.000  C
  N220     1.0000 0.12600  0.83800  0.01600  Biso   1.000  N
  C425     1.0000 0.15300  0.73900  0.11900  Biso   1.000  C
  N221     1.0000 0.18400  0.73600  0.16600  Biso   1.000  N
  C426     1.0000 0.05250  0.64190  0.03780  Biso   1.000  C
  N222     1.0000 0.03130  0.60070  0.02210  Biso   1.000  N
  C427     1.0000 0.08370  0.69550  0.98950  Biso   1.000  C
  C428     1.0000 0.08550  0.69700  0.13190  Biso   1.000  C
  N223     1.0000 0.07630  0.68000  0.16080  Biso   1.000  N
  C429     1.0000 0.04220  0.77660  0.02410  Biso   1.000  C
  N224     1.0000 0.01310  0.79990  0.00220  Biso   1.000  N
  C430     1.0000 0.12180  0.62290  0.08730  Biso   1.000  C
  N225     1.0000 0.13690  0.56930  0.09750  Biso   1.000  N
  N226     1.0000 0.12760  0.67560  0.90520  Biso   1.000  N
  C431     1.0000 0.15030  0.63820  0.89520  Biso   1.000  C
  H204     1.0000 0.14060  0.60150  0.86980  Biso   1.000  H
  C432     1.0000 0.18700  0.65200  0.92080  Biso   1.000  C
  H205     1.0000 0.20290  0.62150  0.91540  Biso   1.000  H
  C433     1.0000 0.20210  0.70800  0.95460  Biso   1.000  C
  C434     1.0000 0.17780  0.75000  0.96330  Biso   1.000  C
  H206     1.0000 0.18620  0.78870  0.98680  Biso   1.000  H
  C435     1.0000 0.14110  0.73100  0.93550  Biso   1.000  C
  H207     1.0000 0.12390  0.76040  0.93860  Biso   1.000  H
  C436     1.0000 0.24060  0.72400  0.98350  Biso   1.000  C
  H208     1.0000 0.25580  0.69220  0.97800  Biso   1.000  H
  N227     1.0000 0.05510  0.76490  0.84250  Biso   1.000  N
  C437     1.0000 0.04810  0.81390  0.86920  Biso   1.000  C
  H209     1.0000 0.04430  0.79960  0.89720  Biso   1.000  H
  C438     1.0000 0.04640  0.88440  0.85730  Biso   1.000  C
  H210     1.0000 0.04090  0.91760  0.87680  Biso   1.000  H
  C439     1.0000 0.05240  0.90750  0.81760  Biso   1.000  C
  C440     1.0000 0.05150  0.85690  0.78340  Biso   1.000  C
  H211     1.0000 0.04910  0.86900  0.75030  Biso   1.000  H
  C441     1.0000 0.05430  0.78820  0.79910  Biso   1.000  C
  H212     1.0000 0.05580  0.75390  0.77670  Biso   1.000  H
  C442     1.0000 0.05140  0.98200  0.80600  Biso   1.000  C
  H213     1.0000 0.04860  0.01470  0.82830  Biso   1.000  H
  N228     1.0000 0.06270  0.22750  0.74060  Biso   1.000  N
  C443     1.0000 0.06170  0.17740  0.70800  Biso   1.000  C
  H214     1.0000 0.06270  0.19150  0.67760  Biso   1.000  H
  C444     1.0000 0.05930  0.10630  0.71550  Biso   1.000  C
  H215     1.0000 0.05960  0.07300  0.69160  Biso   1.000  H
  C445     1.0000 0.05650  0.08430  0.75830  Biso   1.000  C
  C446     1.0000 0.04680  0.13640  0.78200  Biso   1.000  C
  H216     1.0000 0.03620  0.12440  0.80310  Biso   1.000  H
  C447     1.0000 0.05250  0.20590  0.77500  Biso   1.000  C
  H217     1.0000 0.04900  0.24030  0.79540  Biso   1.000  H
  C448     1.0000 0.05430  0.00800  0.76500  Biso   1.000  C
  H218     1.0000 0.05490  0.97630  0.74030  Biso   1.000  H
  N229     1.0000 0.13110  0.66620  0.27780  Biso   1.000  N
  C449     1.0000 0.15040  0.71700  0.27100  Biso   1.000  C
  H219     1.0000 0.13740  0.75320  0.24560  Biso   1.000  H
  C450     1.0000 0.18870  0.71900  0.29900  Biso   1.000  C
  H220     1.0000 0.20140  0.75870  0.29620  Biso   1.000  H
  C451     1.0000 0.18880  0.61400  0.34200  Biso   1.000  C
  H221     1.0000 0.20120  0.57810  0.36720  Biso   1.000  H
  C452     1.0000 0.15070  0.61900  0.31490  Biso   1.000  C
  H222     1.0000 0.13740  0.58550  0.32330  Biso   1.000  H
  C453     1.0000 0.20860  0.66400  0.33190  Biso   1.000  C
  C454     1.0000 0.25280  0.65700  0.36400  Biso   1.000  C
  H223     1.0000 0.26440  0.64820  0.40080  Biso   1.000  H
  N230     1.0000 0.39090  0.66830  0.42320  Biso   1.000  N
  C455     1.0000 0.37170  0.65600  0.44780  Biso   1.000  C
  H224     1.0000 0.38510  0.65020  0.48500  Biso   1.000  H
  C456     1.0000 0.33340  0.65200  0.42220  Biso   1.000  C
  H225     1.0000 0.32130  0.64170  0.44160  Biso   1.000  H
  C457     1.0000 0.31310  0.66300  0.36880  Biso   1.000  C
  C458     1.0000 0.33270  0.66500  0.34220  Biso   1.000  C
  H226     1.0000 0.32000  0.66310  0.30470  Biso   1.000  H
  C459     1.0000 0.37090  0.67100  0.37030  Biso   1.000  C
  H227     1.0000 0.38370  0.67750  0.35130  Biso   1.000  H
  C460     1.0000 0.27200  0.66100  0.34500  Biso   1.000  C
  H228     1.0000 0.25850  0.66360  0.30770  Biso   1.000  H
  N231     1.0000 0.07460  0.65640  0.95070  Biso   1.000  N
  N232     1.0000 0.07660  0.53720  0.88850  Biso   1.000  N
  C461     1.0000 0.15000  0.62900  0.26000  Biso   1.000  C
  C462     1.0000 0.18800  0.63500  0.28200  Biso   1.000  C
  C463     1.0000 0.18920  0.68800  0.35570  Biso   1.000  C
  C464     1.0000 0.15090  0.69100  0.32700  Biso   1.000  C
  H229     1.0000 0.13680  0.59800  0.23120  Biso   1.000  H
  H230     1.0000 0.19980  0.61840  0.26370  Biso   1.000  H
  H231     1.0000 0.20210  0.70280  0.39150  Biso   1.000  H
  H232     1.0000 0.13820  0.71200  0.34270  Biso   1.000  H
  Mn33     1.0000 0.50000  0.00000  0.50000  Biso   1.000  Mn
  Mn34     1.0000 0.00000  0.50000  0.50000  Biso   1.000  Mn
  Mn35     1.0000 0.50000  0.00000  0.00000  Biso   1.000  Mn
  Mn36     1.0000 0.00000  0.50000  0.00000  Biso   1.000  Mn
