data_image0
_cell_length_a       55.0575
_cell_length_b       55.0575
_cell_length_c       55.0575
_cell_angle_alpha    90
_cell_angle_beta     90
_cell_angle_gamma    90

_symmetry_space_group_name_H-M    "P 1"
_symmetry_int_tables_number       1

loop_
  _symmetry_equiv_pos_as_xyz
  'x, y, z'

loop_
  _atom_site_label
  _atom_site_occupancy
  _atom_site_fract_x
  _atom_site_fract_y
  _atom_site_fract_z
  _atom_site_thermal_displace_type
  _atom_site_B_iso_or_equiv
  _atom_site_type_symbol
  C1       1.0000 0.70391  0.67476  0.42305  Biso   1.000  C
  H1       1.0000 0.71110  0.66090  0.41570  Biso   1.000  H
  C2       1.0000 0.71373  0.68453  0.44306  Biso   1.000  C
  H2       1.0000 0.72870  0.67830  0.44900  Biso   1.000  H
  O1       1.0000 0.65380  0.68188  0.38157  Biso   1.000  O
  C3       1.0000 0.70391  0.17476  0.92305  Biso   1.000  C
  H3       1.0000 0.71110  0.16090  0.91570  Biso   1.000  H
  C4       1.0000 0.71373  0.18453  0.94306  Biso   1.000  C
  H4       1.0000 0.72870  0.17830  0.94900  Biso   1.000  H
  O2       1.0000 0.65380  0.18188  0.88157  Biso   1.000  O
  C5       1.0000 0.20391  0.67476  0.92305  Biso   1.000  C
  H5       1.0000 0.21110  0.66090  0.91570  Biso   1.000  H
  C6       1.0000 0.21373  0.68453  0.94306  Biso   1.000  C
  H6       1.0000 0.22870  0.67830  0.94900  Biso   1.000  H
  O3       1.0000 0.15380  0.68188  0.88157  Biso   1.000  O
  C7       1.0000 0.20391  0.17476  0.42305  Biso   1.000  C
  H7       1.0000 0.21110  0.16090  0.41570  Biso   1.000  H
  C8       1.0000 0.21373  0.18453  0.44306  Biso   1.000  C
  H8       1.0000 0.22870  0.17830  0.44900  Biso   1.000  H
  O4       1.0000 0.15380  0.18188  0.38157  Biso   1.000  O
  C9       1.0000 0.29609  0.32524  0.42305  Biso   1.000  C
  H9       1.0000 0.28890  0.33910  0.41570  Biso   1.000  H
  C10      1.0000 0.28627  0.31547  0.44306  Biso   1.000  C
  H10      1.0000 0.27130  0.32170  0.44900  Biso   1.000  H
  O5       1.0000 0.34620  0.31812  0.38157  Biso   1.000  O
  C11      1.0000 0.29609  0.82524  0.92305  Biso   1.000  C
  H11      1.0000 0.28890  0.83910  0.91570  Biso   1.000  H
  C12      1.0000 0.28627  0.81547  0.94306  Biso   1.000  C
  H12      1.0000 0.27130  0.82170  0.94900  Biso   1.000  H
  O6       1.0000 0.34620  0.81812  0.88157  Biso   1.000  O
  C13      1.0000 0.79609  0.32524  0.92305  Biso   1.000  C
  H13      1.0000 0.78890  0.33910  0.91570  Biso   1.000  H
  C14      1.0000 0.78627  0.31547  0.94306  Biso   1.000  C
  H14      1.0000 0.77130  0.32170  0.94900  Biso   1.000  H
  O7       1.0000 0.84620  0.31812  0.88157  Biso   1.000  O
  C15      1.0000 0.79609  0.82524  0.42305  Biso   1.000  C
  H15      1.0000 0.78890  0.83910  0.41570  Biso   1.000  H
  C16      1.0000 0.78627  0.81547  0.44306  Biso   1.000  C
  H16      1.0000 0.77130  0.82170  0.44900  Biso   1.000  H
  O8       1.0000 0.84620  0.81812  0.38157  Biso   1.000  O
  C17      1.0000 0.29609  0.67476  0.57695  Biso   1.000  C
  H17      1.0000 0.28890  0.66090  0.58430  Biso   1.000  H
  C18      1.0000 0.28627  0.68453  0.55694  Biso   1.000  C
  H18      1.0000 0.27130  0.67830  0.55100  Biso   1.000  H
  O9       1.0000 0.34620  0.68188  0.61843  Biso   1.000  O
  C19      1.0000 0.29609  0.17476  0.07695  Biso   1.000  C
  H19      1.0000 0.28890  0.16090  0.08430  Biso   1.000  H
  C20      1.0000 0.28627  0.18453  0.05694  Biso   1.000  C
  H20      1.0000 0.27130  0.17830  0.05100  Biso   1.000  H
  O10      1.0000 0.34620  0.18188  0.11843  Biso   1.000  O
  C21      1.0000 0.79609  0.67476  0.07695  Biso   1.000  C
  H21      1.0000 0.78890  0.66090  0.08430  Biso   1.000  H
  C22      1.0000 0.78627  0.68453  0.05694  Biso   1.000  C
  H22      1.0000 0.77130  0.67830  0.05100  Biso   1.000  H
  O11      1.0000 0.84620  0.68188  0.11843  Biso   1.000  O
  C23      1.0000 0.79609  0.17476  0.57695  Biso   1.000  C
  H23      1.0000 0.78890  0.16090  0.58430  Biso   1.000  H
  C24      1.0000 0.78627  0.18453  0.55694  Biso   1.000  C
  H24      1.0000 0.77130  0.17830  0.55100  Biso   1.000  H
  O12      1.0000 0.84620  0.18188  0.61843  Biso   1.000  O
  C25      1.0000 0.70391  0.32524  0.57695  Biso   1.000  C
  H25      1.0000 0.71110  0.33910  0.58430  Biso   1.000  H
  C26      1.0000 0.71373  0.31547  0.55694  Biso   1.000  C
  H26      1.0000 0.72870  0.32170  0.55100  Biso   1.000  H
  O13      1.0000 0.65380  0.31812  0.61843  Biso   1.000  O
  C27      1.0000 0.70391  0.82524  0.07695  Biso   1.000  C
  H27      1.0000 0.71110  0.83910  0.08430  Biso   1.000  H
  C28      1.0000 0.71373  0.81547  0.05694  Biso   1.000  C
  H28      1.0000 0.72870  0.82170  0.05100  Biso   1.000  H
  O14      1.0000 0.65380  0.81812  0.11843  Biso   1.000  O
  C29      1.0000 0.20391  0.32524  0.07695  Biso   1.000  C
  H29      1.0000 0.21110  0.33910  0.08430  Biso   1.000  H
  C30      1.0000 0.21373  0.31547  0.05694  Biso   1.000  C
  H30      1.0000 0.22870  0.32170  0.05100  Biso   1.000  H
  O15      1.0000 0.15380  0.31812  0.11843  Biso   1.000  O
  C31      1.0000 0.20391  0.82524  0.57695  Biso   1.000  C
  H31      1.0000 0.21110  0.83910  0.58430  Biso   1.000  H
  C32      1.0000 0.21373  0.81547  0.55694  Biso   1.000  C
  H32      1.0000 0.22870  0.82170  0.55100  Biso   1.000  H
  O16      1.0000 0.15380  0.81812  0.61843  Biso   1.000  O
  C33      1.0000 0.42305  0.70391  0.67476  Biso   1.000  C
  H33      1.0000 0.41570  0.71110  0.66090  Biso   1.000  H
  C34      1.0000 0.44306  0.71373  0.68453  Biso   1.000  C
  H34      1.0000 0.44900  0.72870  0.67830  Biso   1.000  H
  O17      1.0000 0.38157  0.65380  0.68188  Biso   1.000  O
  C35      1.0000 0.42305  0.20391  0.17476  Biso   1.000  C
  H35      1.0000 0.41570  0.21110  0.16090  Biso   1.000  H
  C36      1.0000 0.44306  0.21373  0.18453  Biso   1.000  C
  H36      1.0000 0.44900  0.22870  0.17830  Biso   1.000  H
  O18      1.0000 0.38157  0.15380  0.18188  Biso   1.000  O
  C37      1.0000 0.92305  0.70391  0.17476  Biso   1.000  C
  H37      1.0000 0.91570  0.71110  0.16090  Biso   1.000  H
  C38      1.0000 0.94306  0.71373  0.18453  Biso   1.000  C
  H38      1.0000 0.94900  0.72870  0.17830  Biso   1.000  H
  O19      1.0000 0.88157  0.65380  0.18188  Biso   1.000  O
  C39      1.0000 0.92305  0.20391  0.67476  Biso   1.000  C
  H39      1.0000 0.91570  0.21110  0.66090  Biso   1.000  H
  C40      1.0000 0.94306  0.21373  0.68453  Biso   1.000  C
  H40      1.0000 0.94900  0.22870  0.67830  Biso   1.000  H
  O20      1.0000 0.88157  0.15380  0.68188  Biso   1.000  O
  C41      1.0000 0.42305  0.29609  0.32524  Biso   1.000  C
  H41      1.0000 0.41570  0.28890  0.33910  Biso   1.000  H
  C42      1.0000 0.44306  0.28627  0.31547  Biso   1.000  C
  H42      1.0000 0.44900  0.27130  0.32170  Biso   1.000  H
  O21      1.0000 0.38157  0.34620  0.31812  Biso   1.000  O
  C43      1.0000 0.42305  0.79609  0.82524  Biso   1.000  C
  H43      1.0000 0.41570  0.78890  0.83910  Biso   1.000  H
  C44      1.0000 0.44306  0.78627  0.81547  Biso   1.000  C
  H44      1.0000 0.44900  0.77130  0.82170  Biso   1.000  H
  O22      1.0000 0.38157  0.84620  0.81812  Biso   1.000  O
  C45      1.0000 0.92305  0.29609  0.82524  Biso   1.000  C
  H45      1.0000 0.91570  0.28890  0.83910  Biso   1.000  H
  C46      1.0000 0.94306  0.28627  0.81547  Biso   1.000  C
  H46      1.0000 0.94900  0.27130  0.82170  Biso   1.000  H
  O23      1.0000 0.88157  0.34620  0.81812  Biso   1.000  O
  C47      1.0000 0.92305  0.79609  0.32524  Biso   1.000  C
  H47      1.0000 0.91570  0.78890  0.33910  Biso   1.000  H
  C48      1.0000 0.94306  0.78627  0.31547  Biso   1.000  C
  H48      1.0000 0.94900  0.77130  0.32170  Biso   1.000  H
  O24      1.0000 0.88157  0.84620  0.31812  Biso   1.000  O
  C49      1.0000 0.57695  0.29609  0.67476  Biso   1.000  C
  H49      1.0000 0.58430  0.28890  0.66090  Biso   1.000  H
  C50      1.0000 0.55694  0.28627  0.68453  Biso   1.000  C
  H50      1.0000 0.55100  0.27130  0.67830  Biso   1.000  H
  O25      1.0000 0.61843  0.34620  0.68188  Biso   1.000  O
  C51      1.0000 0.57695  0.79609  0.17476  Biso   1.000  C
  H51      1.0000 0.58430  0.78890  0.16090  Biso   1.000  H
  C52      1.0000 0.55694  0.78627  0.18453  Biso   1.000  C
  H52      1.0000 0.55100  0.77130  0.17830  Biso   1.000  H
  O26      1.0000 0.61843  0.84620  0.18188  Biso   1.000  O
  C53      1.0000 0.07695  0.29609  0.17476  Biso   1.000  C
  H53      1.0000 0.08430  0.28890  0.16090  Biso   1.000  H
  C54      1.0000 0.05694  0.28627  0.18453  Biso   1.000  C
  H54      1.0000 0.05100  0.27130  0.17830  Biso   1.000  H
  O27      1.0000 0.11843  0.34620  0.18188  Biso   1.000  O
  C55      1.0000 0.07695  0.79609  0.67476  Biso   1.000  C
  H55      1.0000 0.08430  0.78890  0.66090  Biso   1.000  H
  C56      1.0000 0.05694  0.78627  0.68453  Biso   1.000  C
  H56      1.0000 0.05100  0.77130  0.67830  Biso   1.000  H
  O28      1.0000 0.11843  0.84620  0.68188  Biso   1.000  O
  C57      1.0000 0.57695  0.70391  0.32524  Biso   1.000  C
  H57      1.0000 0.58430  0.71110  0.33910  Biso   1.000  H
  C58      1.0000 0.55694  0.71373  0.31547  Biso   1.000  C
  H58      1.0000 0.55100  0.72870  0.32170  Biso   1.000  H
  O29      1.0000 0.61843  0.65380  0.31812  Biso   1.000  O
  C59      1.0000 0.57695  0.20391  0.82524  Biso   1.000  C
  H59      1.0000 0.58430  0.21110  0.83910  Biso   1.000  H
  C60      1.0000 0.55694  0.21373  0.81547  Biso   1.000  C
  H60      1.0000 0.55100  0.22870  0.82170  Biso   1.000  H
  O30      1.0000 0.61843  0.15380  0.81812  Biso   1.000  O
  C61      1.0000 0.07695  0.70391  0.82524  Biso   1.000  C
  H61      1.0000 0.08430  0.71110  0.83910  Biso   1.000  H
  C62      1.0000 0.05694  0.71373  0.81547  Biso   1.000  C
  H62      1.0000 0.05100  0.72870  0.82170  Biso   1.000  H
  O31      1.0000 0.11843  0.65380  0.81812  Biso   1.000  O
  C63      1.0000 0.07695  0.20391  0.32524  Biso   1.000  C
  H63      1.0000 0.08430  0.21110  0.33910  Biso   1.000  H
  C64      1.0000 0.05694  0.21373  0.31547  Biso   1.000  C
  H64      1.0000 0.05100  0.22870  0.32170  Biso   1.000  H
  O32      1.0000 0.11843  0.15380  0.31812  Biso   1.000  O
  C65      1.0000 0.67476  0.42305  0.70391  Biso   1.000  C
  H65      1.0000 0.66090  0.41570  0.71110  Biso   1.000  H
  C66      1.0000 0.68453  0.44306  0.71373  Biso   1.000  C
  H66      1.0000 0.67830  0.44900  0.72870  Biso   1.000  H
  O33      1.0000 0.68188  0.38157  0.65380  Biso   1.000  O
  C67      1.0000 0.67476  0.92305  0.20391  Biso   1.000  C
  H67      1.0000 0.66090  0.91570  0.21110  Biso   1.000  H
  C68      1.0000 0.68453  0.94306  0.21373  Biso   1.000  C
  H68      1.0000 0.67830  0.94900  0.22870  Biso   1.000  H
  O34      1.0000 0.68188  0.88157  0.15380  Biso   1.000  O
  C69      1.0000 0.17476  0.42305  0.20391  Biso   1.000  C
  H69      1.0000 0.16090  0.41570  0.21110  Biso   1.000  H
  C70      1.0000 0.18453  0.44306  0.21373  Biso   1.000  C
  H70      1.0000 0.17830  0.44900  0.22870  Biso   1.000  H
  O35      1.0000 0.18188  0.38157  0.15380  Biso   1.000  O
  C71      1.0000 0.17476  0.92305  0.70391  Biso   1.000  C
  H71      1.0000 0.16090  0.91570  0.71110  Biso   1.000  H
  C72      1.0000 0.18453  0.94306  0.71373  Biso   1.000  C
  H72      1.0000 0.17830  0.94900  0.72870  Biso   1.000  H
  O36      1.0000 0.18188  0.88157  0.65380  Biso   1.000  O
  C73      1.0000 0.32524  0.42305  0.29609  Biso   1.000  C
  H73      1.0000 0.33910  0.41570  0.28890  Biso   1.000  H
  C74      1.0000 0.31547  0.44306  0.28627  Biso   1.000  C
  H74      1.0000 0.32170  0.44900  0.27130  Biso   1.000  H
  O37      1.0000 0.31812  0.38157  0.34620  Biso   1.000  O
  C75      1.0000 0.32524  0.92305  0.79609  Biso   1.000  C
  H75      1.0000 0.33910  0.91570  0.78890  Biso   1.000  H
  C76      1.0000 0.31547  0.94306  0.78627  Biso   1.000  C
  H76      1.0000 0.32170  0.94900  0.77130  Biso   1.000  H
  O38      1.0000 0.31812  0.88157  0.84620  Biso   1.000  O
  C77      1.0000 0.82524  0.42305  0.79609  Biso   1.000  C
  H77      1.0000 0.83910  0.41570  0.78890  Biso   1.000  H
  C78      1.0000 0.81547  0.44306  0.78627  Biso   1.000  C
  H78      1.0000 0.82170  0.44900  0.77130  Biso   1.000  H
  O39      1.0000 0.81812  0.38157  0.84620  Biso   1.000  O
  C79      1.0000 0.82524  0.92305  0.29609  Biso   1.000  C
  H79      1.0000 0.83910  0.91570  0.28890  Biso   1.000  H
  C80      1.0000 0.81547  0.94306  0.28627  Biso   1.000  C
  H80      1.0000 0.82170  0.94900  0.27130  Biso   1.000  H
  O40      1.0000 0.81812  0.88157  0.34620  Biso   1.000  O
  C81      1.0000 0.67476  0.57695  0.29609  Biso   1.000  C
  H81      1.0000 0.66090  0.58430  0.28890  Biso   1.000  H
  C82      1.0000 0.68453  0.55694  0.28627  Biso   1.000  C
  H82      1.0000 0.67830  0.55100  0.27130  Biso   1.000  H
  O41      1.0000 0.68188  0.61843  0.34620  Biso   1.000  O
  C83      1.0000 0.67476  0.07695  0.79609  Biso   1.000  C
  H83      1.0000 0.66090  0.08430  0.78890  Biso   1.000  H
  C84      1.0000 0.68453  0.05694  0.78627  Biso   1.000  C
  H84      1.0000 0.67830  0.05100  0.77130  Biso   1.000  H
  O42      1.0000 0.68188  0.11843  0.84620  Biso   1.000  O
  C85      1.0000 0.17476  0.57695  0.79609  Biso   1.000  C
  H85      1.0000 0.16090  0.58430  0.78890  Biso   1.000  H
  C86      1.0000 0.18453  0.55694  0.78627  Biso   1.000  C
  H86      1.0000 0.17830  0.55100  0.77130  Biso   1.000  H
  O43      1.0000 0.18188  0.61843  0.84620  Biso   1.000  O
  C87      1.0000 0.17476  0.07695  0.29609  Biso   1.000  C
  H87      1.0000 0.16090  0.08430  0.28890  Biso   1.000  H
  C88      1.0000 0.18453  0.05694  0.28627  Biso   1.000  C
  H88      1.0000 0.17830  0.05100  0.27130  Biso   1.000  H
  O44      1.0000 0.18188  0.11843  0.34620  Biso   1.000  O
  C89      1.0000 0.32524  0.57695  0.70391  Biso   1.000  C
  H89      1.0000 0.33910  0.58430  0.71110  Biso   1.000  H
  C90      1.0000 0.31547  0.55694  0.71373  Biso   1.000  C
  H90      1.0000 0.32170  0.55100  0.72870  Biso   1.000  H
  O45      1.0000 0.31812  0.61843  0.65380  Biso   1.000  O
  C91      1.0000 0.32524  0.07695  0.20391  Biso   1.000  C
  H91      1.0000 0.33910  0.08430  0.21110  Biso   1.000  H
  C92      1.0000 0.31547  0.05694  0.21373  Biso   1.000  C
  H92      1.0000 0.32170  0.05100  0.22870  Biso   1.000  H
  O46      1.0000 0.31812  0.11843  0.15380  Biso   1.000  O
  C93      1.0000 0.82524  0.57695  0.20391  Biso   1.000  C
  H93      1.0000 0.83910  0.58430  0.21110  Biso   1.000  H
  C94      1.0000 0.81547  0.55694  0.21373  Biso   1.000  C
  H94      1.0000 0.82170  0.55100  0.22870  Biso   1.000  H
  O47      1.0000 0.81812  0.61843  0.15380  Biso   1.000  O
  C95      1.0000 0.82524  0.07695  0.70391  Biso   1.000  C
  H95      1.0000 0.83910  0.08430  0.71110  Biso   1.000  H
  C96      1.0000 0.81547  0.05694  0.71373  Biso   1.000  C
  H96      1.0000 0.82170  0.05100  0.72870  Biso   1.000  H
  O48      1.0000 0.81812  0.11843  0.65380  Biso   1.000  O
  C97      1.0000 0.67476  0.70391  0.57695  Biso   1.000  C
  H97      1.0000 0.66090  0.71110  0.58430  Biso   1.000  H
  C98      1.0000 0.68453  0.71373  0.55694  Biso   1.000  C
  H98      1.0000 0.67830  0.72870  0.55100  Biso   1.000  H
  O49      1.0000 0.68188  0.65380  0.61843  Biso   1.000  O
  C99      1.0000 0.67476  0.20391  0.07695  Biso   1.000  C
  H99      1.0000 0.66090  0.21110  0.08430  Biso   1.000  H
  C100     1.0000 0.68453  0.21373  0.05694  Biso   1.000  C
  H100     1.0000 0.67830  0.22870  0.05100  Biso   1.000  H
  O50      1.0000 0.68188  0.15380  0.11843  Biso   1.000  O
  C101     1.0000 0.17476  0.70391  0.07695  Biso   1.000  C
  H101     1.0000 0.16090  0.71110  0.08430  Biso   1.000  H
  C102     1.0000 0.18453  0.71373  0.05694  Biso   1.000  C
  H102     1.0000 0.17830  0.72870  0.05100  Biso   1.000  H
  O51      1.0000 0.18188  0.65380  0.11843  Biso   1.000  O
  C103     1.0000 0.17476  0.20391  0.57695  Biso   1.000  C
  H103     1.0000 0.16090  0.21110  0.58430  Biso   1.000  H
  C104     1.0000 0.18453  0.21373  0.55694  Biso   1.000  C
  H104     1.0000 0.17830  0.22870  0.55100  Biso   1.000  H
  O52      1.0000 0.18188  0.15380  0.61843  Biso   1.000  O
  C105     1.0000 0.32524  0.29609  0.57695  Biso   1.000  C
  H105     1.0000 0.33910  0.28890  0.58430  Biso   1.000  H
  C106     1.0000 0.31547  0.28627  0.55694  Biso   1.000  C
  H106     1.0000 0.32170  0.27130  0.55100  Biso   1.000  H
  O53      1.0000 0.31812  0.34620  0.61843  Biso   1.000  O
  C107     1.0000 0.32524  0.79609  0.07695  Biso   1.000  C
  H107     1.0000 0.33910  0.78890  0.08430  Biso   1.000  H
  C108     1.0000 0.31547  0.78627  0.05694  Biso   1.000  C
  H108     1.0000 0.32170  0.77130  0.05100  Biso   1.000  H
  O54      1.0000 0.31812  0.84620  0.11843  Biso   1.000  O
  C109     1.0000 0.82524  0.29609  0.07695  Biso   1.000  C
  H109     1.0000 0.83910  0.28890  0.08430  Biso   1.000  H
  C110     1.0000 0.81547  0.28627  0.05694  Biso   1.000  C
  H110     1.0000 0.82170  0.27130  0.05100  Biso   1.000  H
  O55      1.0000 0.81812  0.34620  0.11843  Biso   1.000  O
  C111     1.0000 0.82524  0.79609  0.57695  Biso   1.000  C
  H111     1.0000 0.83910  0.78890  0.58430  Biso   1.000  H
  C112     1.0000 0.81547  0.78627  0.55694  Biso   1.000  C
  H112     1.0000 0.82170  0.77130  0.55100  Biso   1.000  H
  O56      1.0000 0.81812  0.84620  0.61843  Biso   1.000  O
  C113     1.0000 0.67476  0.29609  0.42305  Biso   1.000  C
  H113     1.0000 0.66090  0.28890  0.41570  Biso   1.000  H
  C114     1.0000 0.68453  0.28627  0.44306  Biso   1.000  C
  H114     1.0000 0.67830  0.27130  0.44900  Biso   1.000  H
  O57      1.0000 0.68188  0.34620  0.38157  Biso   1.000  O
  C115     1.0000 0.67476  0.79609  0.92305  Biso   1.000  C
  H115     1.0000 0.66090  0.78890  0.91570  Biso   1.000  H
  C116     1.0000 0.68453  0.78627  0.94306  Biso   1.000  C
  H116     1.0000 0.67830  0.77130  0.94900  Biso   1.000  H
  O58      1.0000 0.68188  0.84620  0.88157  Biso   1.000  O
  C117     1.0000 0.17476  0.29609  0.92305  Biso   1.000  C
  H117     1.0000 0.16090  0.28890  0.91570  Biso   1.000  H
  C118     1.0000 0.18453  0.28627  0.94306  Biso   1.000  C
  H118     1.0000 0.17830  0.27130  0.94900  Biso   1.000  H
  O59      1.0000 0.18188  0.34620  0.88157  Biso   1.000  O
  C119     1.0000 0.17476  0.79609  0.42305  Biso   1.000  C
  H119     1.0000 0.16090  0.78890  0.41570  Biso   1.000  H
  C120     1.0000 0.18453  0.78627  0.44306  Biso   1.000  C
  H120     1.0000 0.17830  0.77130  0.44900  Biso   1.000  H
  O60      1.0000 0.18188  0.84620  0.38157  Biso   1.000  O
  C121     1.0000 0.32524  0.70391  0.42305  Biso   1.000  C
  H121     1.0000 0.33910  0.71110  0.41570  Biso   1.000  H
  C122     1.0000 0.31547  0.71373  0.44306  Biso   1.000  C
  H122     1.0000 0.32170  0.72870  0.44900  Biso   1.000  H
  O61      1.0000 0.31812  0.65380  0.38157  Biso   1.000  O
  C123     1.0000 0.32524  0.20391  0.92305  Biso   1.000  C
  H123     1.0000 0.33910  0.21110  0.91570  Biso   1.000  H
  C124     1.0000 0.31547  0.21373  0.94306  Biso   1.000  C
  H124     1.0000 0.32170  0.22870  0.94900  Biso   1.000  H
  O62      1.0000 0.31812  0.15380  0.88157  Biso   1.000  O
  C125     1.0000 0.82524  0.70391  0.92305  Biso   1.000  C
  H125     1.0000 0.83910  0.71110  0.91570  Biso   1.000  H
  C126     1.0000 0.81547  0.71373  0.94306  Biso   1.000  C
  H126     1.0000 0.82170  0.72870  0.94900  Biso   1.000  H
  O63      1.0000 0.81812  0.65380  0.88157  Biso   1.000  O
  C127     1.0000 0.82524  0.20391  0.42305  Biso   1.000  C
  H127     1.0000 0.83910  0.21110  0.41570  Biso   1.000  H
  C128     1.0000 0.81547  0.21373  0.44306  Biso   1.000  C
  H128     1.0000 0.82170  0.22870  0.44900  Biso   1.000  H
  O64      1.0000 0.81812  0.15380  0.38157  Biso   1.000  O
  C129     1.0000 0.70391  0.42305  0.32524  Biso   1.000  C
  H129     1.0000 0.71110  0.41570  0.33910  Biso   1.000  H
  C130     1.0000 0.71373  0.44306  0.31547  Biso   1.000  C
  H130     1.0000 0.72870  0.44900  0.32170  Biso   1.000  H
  O65      1.0000 0.65380  0.38157  0.31812  Biso   1.000  O
  C131     1.0000 0.70391  0.92305  0.82524  Biso   1.000  C
  H131     1.0000 0.71110  0.91570  0.83910  Biso   1.000  H
  C132     1.0000 0.71373  0.94306  0.81547  Biso   1.000  C
  H132     1.0000 0.72870  0.94900  0.82170  Biso   1.000  H
  O66      1.0000 0.65380  0.88157  0.81812  Biso   1.000  O
  C133     1.0000 0.20391  0.42305  0.82524  Biso   1.000  C
  H133     1.0000 0.21110  0.41570  0.83910  Biso   1.000  H
  C134     1.0000 0.21373  0.44306  0.81547  Biso   1.000  C
  H134     1.0000 0.22870  0.44900  0.82170  Biso   1.000  H
  O67      1.0000 0.15380  0.38157  0.81812  Biso   1.000  O
  C135     1.0000 0.20391  0.92305  0.32524  Biso   1.000  C
  H135     1.0000 0.21110  0.91570  0.33910  Biso   1.000  H
  C136     1.0000 0.21373  0.94306  0.31547  Biso   1.000  C
  H136     1.0000 0.22870  0.94900  0.32170  Biso   1.000  H
  O68      1.0000 0.15380  0.88157  0.31812  Biso   1.000  O
  C137     1.0000 0.29609  0.42305  0.67476  Biso   1.000  C
  H137     1.0000 0.28890  0.41570  0.66090  Biso   1.000  H
  C138     1.0000 0.28627  0.44306  0.68453  Biso   1.000  C
  H138     1.0000 0.27130  0.44900  0.67830  Biso   1.000  H
  O69      1.0000 0.34620  0.38157  0.68188  Biso   1.000  O
  C139     1.0000 0.29609  0.92305  0.17476  Biso   1.000  C
  H139     1.0000 0.28890  0.91570  0.16090  Biso   1.000  H
  C140     1.0000 0.28627  0.94306  0.18453  Biso   1.000  C
  H140     1.0000 0.27130  0.94900  0.17830  Biso   1.000  H
  O70      1.0000 0.34620  0.88157  0.18188  Biso   1.000  O
  C141     1.0000 0.79609  0.42305  0.17476  Biso   1.000  C
  H141     1.0000 0.78890  0.41570  0.16090  Biso   1.000  H
  C142     1.0000 0.78627  0.44306  0.18453  Biso   1.000  C
  H142     1.0000 0.77130  0.44900  0.17830  Biso   1.000  H
  O71      1.0000 0.84620  0.38157  0.18188  Biso   1.000  O
  C143     1.0000 0.79609  0.92305  0.67476  Biso   1.000  C
  H143     1.0000 0.78890  0.91570  0.66090  Biso   1.000  H
  C144     1.0000 0.78627  0.94306  0.68453  Biso   1.000  C
  H144     1.0000 0.77130  0.94900  0.67830  Biso   1.000  H
  O72      1.0000 0.84620  0.88157  0.68188  Biso   1.000  O
  C145     1.0000 0.29609  0.57695  0.32524  Biso   1.000  C
  H145     1.0000 0.28890  0.58430  0.33910  Biso   1.000  H
  C146     1.0000 0.28627  0.55694  0.31547  Biso   1.000  C
  H146     1.0000 0.27130  0.55100  0.32170  Biso   1.000  H
  O73      1.0000 0.34620  0.61843  0.31812  Biso   1.000  O
  C147     1.0000 0.29609  0.07695  0.82524  Biso   1.000  C
  H147     1.0000 0.28890  0.08430  0.83910  Biso   1.000  H
  C148     1.0000 0.28627  0.05694  0.81547  Biso   1.000  C
  H148     1.0000 0.27130  0.05100  0.82170  Biso   1.000  H
  O74      1.0000 0.34620  0.11843  0.81812  Biso   1.000  O
  C149     1.0000 0.79609  0.57695  0.82524  Biso   1.000  C
  H149     1.0000 0.78890  0.58430  0.83910  Biso   1.000  H
  C150     1.0000 0.78627  0.55694  0.81547  Biso   1.000  C
  H150     1.0000 0.77130  0.55100  0.82170  Biso   1.000  H
  O75      1.0000 0.84620  0.61843  0.81812  Biso   1.000  O
  C151     1.0000 0.79609  0.07695  0.32524  Biso   1.000  C
  H151     1.0000 0.78890  0.08430  0.33910  Biso   1.000  H
  C152     1.0000 0.78627  0.05694  0.31547  Biso   1.000  C
  H152     1.0000 0.77130  0.05100  0.32170  Biso   1.000  H
  O76      1.0000 0.84620  0.11843  0.31812  Biso   1.000  O
  C153     1.0000 0.70391  0.57695  0.67476  Biso   1.000  C
  H153     1.0000 0.71110  0.58430  0.66090  Biso   1.000  H
  C154     1.0000 0.71373  0.55694  0.68453  Biso   1.000  C
  H154     1.0000 0.72870  0.55100  0.67830  Biso   1.000  H
  O77      1.0000 0.65380  0.61843  0.68188  Biso   1.000  O
  C155     1.0000 0.70391  0.07695  0.17476  Biso   1.000  C
  H155     1.0000 0.71110  0.08430  0.16090  Biso   1.000  H
  C156     1.0000 0.71373  0.05694  0.18453  Biso   1.000  C
  H156     1.0000 0.72870  0.05100  0.17830  Biso   1.000  H
  O78      1.0000 0.65380  0.11843  0.18188  Biso   1.000  O
  C157     1.0000 0.20391  0.57695  0.17476  Biso   1.000  C
  H157     1.0000 0.21110  0.58430  0.16090  Biso   1.000  H
  C158     1.0000 0.21373  0.55694  0.18453  Biso   1.000  C
  H158     1.0000 0.22870  0.55100  0.17830  Biso   1.000  H
  O79      1.0000 0.15380  0.61843  0.18188  Biso   1.000  O
  C159     1.0000 0.20391  0.07695  0.67476  Biso   1.000  C
  H159     1.0000 0.21110  0.08430  0.66090  Biso   1.000  H
  C160     1.0000 0.21373  0.05694  0.68453  Biso   1.000  C
  H160     1.0000 0.22870  0.05100  0.67830  Biso   1.000  H
  O80      1.0000 0.15380  0.11843  0.68188  Biso   1.000  O
  C161     1.0000 0.42305  0.67476  0.29609  Biso   1.000  C
  H161     1.0000 0.41570  0.66090  0.28890  Biso   1.000  H
  C162     1.0000 0.44306  0.68453  0.28627  Biso   1.000  C
  H162     1.0000 0.44900  0.67830  0.27130  Biso   1.000  H
  O81      1.0000 0.38157  0.68188  0.34620  Biso   1.000  O
  C163     1.0000 0.42305  0.17476  0.79609  Biso   1.000  C
  H163     1.0000 0.41570  0.16090  0.78890  Biso   1.000  H
  C164     1.0000 0.44306  0.18453  0.78627  Biso   1.000  C
  H164     1.0000 0.44900  0.17830  0.77130  Biso   1.000  H
  O82      1.0000 0.38157  0.18188  0.84620  Biso   1.000  O
  C165     1.0000 0.92305  0.67476  0.79609  Biso   1.000  C
  H165     1.0000 0.91570  0.66090  0.78890  Biso   1.000  H
  C166     1.0000 0.94306  0.68453  0.78627  Biso   1.000  C
  H166     1.0000 0.94900  0.67830  0.77130  Biso   1.000  H
  O83      1.0000 0.88157  0.68188  0.84620  Biso   1.000  O
  C167     1.0000 0.92305  0.17476  0.29609  Biso   1.000  C
  H167     1.0000 0.91570  0.16090  0.28890  Biso   1.000  H
  C168     1.0000 0.94306  0.18453  0.28627  Biso   1.000  C
  H168     1.0000 0.94900  0.17830  0.27130  Biso   1.000  H
  O84      1.0000 0.88157  0.18188  0.34620  Biso   1.000  O
  C169     1.0000 0.42305  0.32524  0.70391  Biso   1.000  C
  H169     1.0000 0.41570  0.33910  0.71110  Biso   1.000  H
  C170     1.0000 0.44306  0.31547  0.71373  Biso   1.000  C
  H170     1.0000 0.44900  0.32170  0.72870  Biso   1.000  H
  O85      1.0000 0.38157  0.31812  0.65380  Biso   1.000  O
  C171     1.0000 0.42305  0.82524  0.20391  Biso   1.000  C
  H171     1.0000 0.41570  0.83910  0.21110  Biso   1.000  H
  C172     1.0000 0.44306  0.81547  0.21373  Biso   1.000  C
  H172     1.0000 0.44900  0.82170  0.22870  Biso   1.000  H
  O86      1.0000 0.38157  0.81812  0.15380  Biso   1.000  O
  C173     1.0000 0.92305  0.32524  0.20391  Biso   1.000  C
  H173     1.0000 0.91570  0.33910  0.21110  Biso   1.000  H
  C174     1.0000 0.94306  0.31547  0.21373  Biso   1.000  C
  H174     1.0000 0.94900  0.32170  0.22870  Biso   1.000  H
  O87      1.0000 0.88157  0.31812  0.15380  Biso   1.000  O
  C175     1.0000 0.92305  0.82524  0.70391  Biso   1.000  C
  H175     1.0000 0.91570  0.83910  0.71110  Biso   1.000  H
  C176     1.0000 0.94306  0.81547  0.71373  Biso   1.000  C
  H176     1.0000 0.94900  0.82170  0.72870  Biso   1.000  H
  O88      1.0000 0.88157  0.81812  0.65380  Biso   1.000  O
  C177     1.0000 0.57695  0.67476  0.70391  Biso   1.000  C
  H177     1.0000 0.58430  0.66090  0.71110  Biso   1.000  H
  C178     1.0000 0.55694  0.68453  0.71373  Biso   1.000  C
  H178     1.0000 0.55100  0.67830  0.72870  Biso   1.000  H
  O89      1.0000 0.61843  0.68188  0.65380  Biso   1.000  O
  C179     1.0000 0.57695  0.17476  0.20391  Biso   1.000  C
  H179     1.0000 0.58430  0.16090  0.21110  Biso   1.000  H
  C180     1.0000 0.55694  0.18453  0.21373  Biso   1.000  C
  H180     1.0000 0.55100  0.17830  0.22870  Biso   1.000  H
  O90      1.0000 0.61843  0.18188  0.15380  Biso   1.000  O
  C181     1.0000 0.07695  0.67476  0.20391  Biso   1.000  C
  H181     1.0000 0.08430  0.66090  0.21110  Biso   1.000  H
  C182     1.0000 0.05694  0.68453  0.21373  Biso   1.000  C
  H182     1.0000 0.05100  0.67830  0.22870  Biso   1.000  H
  O91      1.0000 0.11843  0.68188  0.15380  Biso   1.000  O
  C183     1.0000 0.07695  0.17476  0.70391  Biso   1.000  C
  H183     1.0000 0.08430  0.16090  0.71110  Biso   1.000  H
  C184     1.0000 0.05694  0.18453  0.71373  Biso   1.000  C
  H184     1.0000 0.05100  0.17830  0.72870  Biso   1.000  H
  O92      1.0000 0.11843  0.18188  0.65380  Biso   1.000  O
  C185     1.0000 0.57695  0.32524  0.29609  Biso   1.000  C
  H185     1.0000 0.58430  0.33910  0.28890  Biso   1.000  H
  C186     1.0000 0.55694  0.31547  0.28627  Biso   1.000  C
  H186     1.0000 0.55100  0.32170  0.27130  Biso   1.000  H
  O93      1.0000 0.61843  0.31812  0.34620  Biso   1.000  O
  C187     1.0000 0.57695  0.82524  0.79609  Biso   1.000  C
  H187     1.0000 0.58430  0.83910  0.78890  Biso   1.000  H
  C188     1.0000 0.55694  0.81547  0.78627  Biso   1.000  C
  H188     1.0000 0.55100  0.82170  0.77130  Biso   1.000  H
  O94      1.0000 0.61843  0.81812  0.84620  Biso   1.000  O
  C189     1.0000 0.07695  0.32524  0.79609  Biso   1.000  C
  H189     1.0000 0.08430  0.33910  0.78890  Biso   1.000  H
  C190     1.0000 0.05694  0.31547  0.78627  Biso   1.000  C
  H190     1.0000 0.05100  0.32170  0.77130  Biso   1.000  H
  O95      1.0000 0.11843  0.31812  0.84620  Biso   1.000  O
  C191     1.0000 0.07695  0.82524  0.29609  Biso   1.000  C
  H191     1.0000 0.08430  0.83910  0.28890  Biso   1.000  H
  C192     1.0000 0.05694  0.81547  0.28627  Biso   1.000  C
  H192     1.0000 0.05100  0.82170  0.27130  Biso   1.000  H
  O96      1.0000 0.11843  0.81812  0.34620  Biso   1.000  O
  C193     1.0000 0.29609  0.32524  0.57695  Biso   1.000  C
  H193     1.0000 0.28890  0.33910  0.58430  Biso   1.000  H
  C194     1.0000 0.28627  0.31547  0.55694  Biso   1.000  C
  H194     1.0000 0.27130  0.32170  0.55100  Biso   1.000  H
  O97      1.0000 0.34620  0.31812  0.61843  Biso   1.000  O
  C195     1.0000 0.29609  0.82524  0.07695  Biso   1.000  C
  H195     1.0000 0.28890  0.83910  0.08430  Biso   1.000  H
  C196     1.0000 0.28627  0.81547  0.05694  Biso   1.000  C
  H196     1.0000 0.27130  0.82170  0.05100  Biso   1.000  H
  O98      1.0000 0.34620  0.81812  0.11843  Biso   1.000  O
  C197     1.0000 0.79609  0.32524  0.07695  Biso   1.000  C
  H197     1.0000 0.78890  0.33910  0.08430  Biso   1.000  H
  C198     1.0000 0.78627  0.31547  0.05694  Biso   1.000  C
  H198     1.0000 0.77130  0.32170  0.05100  Biso   1.000  H
  O99      1.0000 0.84620  0.31812  0.11843  Biso   1.000  O
  C199     1.0000 0.79609  0.82524  0.57695  Biso   1.000  C
  H199     1.0000 0.78890  0.83910  0.58430  Biso   1.000  H
  C200     1.0000 0.78627  0.81547  0.55694  Biso   1.000  C
  H200     1.0000 0.77130  0.82170  0.55100  Biso   1.000  H
  O100     1.0000 0.84620  0.81812  0.61843  Biso   1.000  O
  C201     1.0000 0.70391  0.67476  0.57695  Biso   1.000  C
  H201     1.0000 0.71110  0.66090  0.58430  Biso   1.000  H
  C202     1.0000 0.71373  0.68453  0.55694  Biso   1.000  C
  H202     1.0000 0.72870  0.67830  0.55100  Biso   1.000  H
  O101     1.0000 0.65380  0.68188  0.61843  Biso   1.000  O
  C203     1.0000 0.70391  0.17476  0.07695  Biso   1.000  C
  H203     1.0000 0.71110  0.16090  0.08430  Biso   1.000  H
  C204     1.0000 0.71373  0.18453  0.05694  Biso   1.000  C
  H204     1.0000 0.72870  0.17830  0.05100  Biso   1.000  H
  O102     1.0000 0.65380  0.18188  0.11843  Biso   1.000  O
  C205     1.0000 0.20391  0.67476  0.07695  Biso   1.000  C
  H205     1.0000 0.21110  0.66090  0.08430  Biso   1.000  H
  C206     1.0000 0.21373  0.68453  0.05694  Biso   1.000  C
  H206     1.0000 0.22870  0.67830  0.05100  Biso   1.000  H
  O103     1.0000 0.15380  0.68188  0.11843  Biso   1.000  O
  C207     1.0000 0.20391  0.17476  0.57695  Biso   1.000  C
  H207     1.0000 0.21110  0.16090  0.58430  Biso   1.000  H
  C208     1.0000 0.21373  0.18453  0.55694  Biso   1.000  C
  H208     1.0000 0.22870  0.17830  0.55100  Biso   1.000  H
  O104     1.0000 0.15380  0.18188  0.61843  Biso   1.000  O
  C209     1.0000 0.70391  0.32524  0.42305  Biso   1.000  C
  H209     1.0000 0.71110  0.33910  0.41570  Biso   1.000  H
  C210     1.0000 0.71373  0.31547  0.44306  Biso   1.000  C
  H210     1.0000 0.72870  0.32170  0.44900  Biso   1.000  H
  O105     1.0000 0.65380  0.31812  0.38157  Biso   1.000  O
  C211     1.0000 0.70391  0.82524  0.92305  Biso   1.000  C
  H211     1.0000 0.71110  0.83910  0.91570  Biso   1.000  H
  C212     1.0000 0.71373  0.81547  0.94306  Biso   1.000  C
  H212     1.0000 0.72870  0.82170  0.94900  Biso   1.000  H
  O106     1.0000 0.65380  0.81812  0.88157  Biso   1.000  O
  C213     1.0000 0.20391  0.32524  0.92305  Biso   1.000  C
  H213     1.0000 0.21110  0.33910  0.91570  Biso   1.000  H
  C214     1.0000 0.21373  0.31547  0.94306  Biso   1.000  C
  H214     1.0000 0.22870  0.32170  0.94900  Biso   1.000  H
  O107     1.0000 0.15380  0.31812  0.88157  Biso   1.000  O
  C215     1.0000 0.20391  0.82524  0.42305  Biso   1.000  C
  H215     1.0000 0.21110  0.83910  0.41570  Biso   1.000  H
  C216     1.0000 0.21373  0.81547  0.44306  Biso   1.000  C
  H216     1.0000 0.22870  0.82170  0.44900  Biso   1.000  H
  O108     1.0000 0.15380  0.81812  0.38157  Biso   1.000  O
  C217     1.0000 0.29609  0.67476  0.42305  Biso   1.000  C
  H217     1.0000 0.28890  0.66090  0.41570  Biso   1.000  H
  C218     1.0000 0.28627  0.68453  0.44306  Biso   1.000  C
  H218     1.0000 0.27130  0.67830  0.44900  Biso   1.000  H
  O109     1.0000 0.34620  0.68188  0.38157  Biso   1.000  O
  C219     1.0000 0.29609  0.17476  0.92305  Biso   1.000  C
  H219     1.0000 0.28890  0.16090  0.91570  Biso   1.000  H
  C220     1.0000 0.28627  0.18453  0.94306  Biso   1.000  C
  H220     1.0000 0.27130  0.17830  0.94900  Biso   1.000  H
  O110     1.0000 0.34620  0.18188  0.88157  Biso   1.000  O
  C221     1.0000 0.79609  0.67476  0.92305  Biso   1.000  C
  H221     1.0000 0.78890  0.66090  0.91570  Biso   1.000  H
  C222     1.0000 0.78627  0.68453  0.94306  Biso   1.000  C
  H222     1.0000 0.77130  0.67830  0.94900  Biso   1.000  H
  O111     1.0000 0.84620  0.68188  0.88157  Biso   1.000  O
  C223     1.0000 0.79609  0.17476  0.42305  Biso   1.000  C
  H223     1.0000 0.78890  0.16090  0.41570  Biso   1.000  H
  C224     1.0000 0.78627  0.18453  0.44306  Biso   1.000  C
  H224     1.0000 0.77130  0.17830  0.44900  Biso   1.000  H
  O112     1.0000 0.84620  0.18188  0.38157  Biso   1.000  O
  C225     1.0000 0.57695  0.29609  0.32524  Biso   1.000  C
  H225     1.0000 0.58430  0.28890  0.33910  Biso   1.000  H
  C226     1.0000 0.55694  0.28627  0.31547  Biso   1.000  C
  H226     1.0000 0.55100  0.27130  0.32170  Biso   1.000  H
  O113     1.0000 0.61843  0.34620  0.31812  Biso   1.000  O
  C227     1.0000 0.57695  0.79609  0.82524  Biso   1.000  C
  H227     1.0000 0.58430  0.78890  0.83910  Biso   1.000  H
  C228     1.0000 0.55694  0.78627  0.81547  Biso   1.000  C
  H228     1.0000 0.55100  0.77130  0.82170  Biso   1.000  H
  O114     1.0000 0.61843  0.84620  0.81812  Biso   1.000  O
  C229     1.0000 0.07695  0.29609  0.82524  Biso   1.000  C
  H229     1.0000 0.08430  0.28890  0.83910  Biso   1.000  H
  C230     1.0000 0.05694  0.28627  0.81547  Biso   1.000  C
  H230     1.0000 0.05100  0.27130  0.82170  Biso   1.000  H
  O115     1.0000 0.11843  0.34620  0.81812  Biso   1.000  O
  C231     1.0000 0.07695  0.79609  0.32524  Biso   1.000  C
  H231     1.0000 0.08430  0.78890  0.33910  Biso   1.000  H
  C232     1.0000 0.05694  0.78627  0.31547  Biso   1.000  C
  H232     1.0000 0.05100  0.77130  0.32170  Biso   1.000  H
  O116     1.0000 0.11843  0.84620  0.31812  Biso   1.000  O
  C233     1.0000 0.57695  0.70391  0.67476  Biso   1.000  C
  H233     1.0000 0.58430  0.71110  0.66090  Biso   1.000  H
  C234     1.0000 0.55694  0.71373  0.68453  Biso   1.000  C
  H234     1.0000 0.55100  0.72870  0.67830  Biso   1.000  H
  O117     1.0000 0.61843  0.65380  0.68188  Biso   1.000  O
  C235     1.0000 0.57695  0.20391  0.17476  Biso   1.000  C
  H235     1.0000 0.58430  0.21110  0.16090  Biso   1.000  H
  C236     1.0000 0.55694  0.21373  0.18453  Biso   1.000  C
  H236     1.0000 0.55100  0.22870  0.17830  Biso   1.000  H
  O118     1.0000 0.61843  0.15380  0.18188  Biso   1.000  O
  C237     1.0000 0.07695  0.70391  0.17476  Biso   1.000  C
  H237     1.0000 0.08430  0.71110  0.16090  Biso   1.000  H
  C238     1.0000 0.05694  0.71373  0.18453  Biso   1.000  C
  H238     1.0000 0.05100  0.72870  0.17830  Biso   1.000  H
  O119     1.0000 0.11843  0.65380  0.18188  Biso   1.000  O
  C239     1.0000 0.07695  0.20391  0.67476  Biso   1.000  C
  H239     1.0000 0.08430  0.21110  0.66090  Biso   1.000  H
  C240     1.0000 0.05694  0.21373  0.68453  Biso   1.000  C
  H240     1.0000 0.05100  0.22870  0.67830  Biso   1.000  H
  O120     1.0000 0.11843  0.15380  0.68188  Biso   1.000  O
  C241     1.0000 0.42305  0.70391  0.32524  Biso   1.000  C
  H241     1.0000 0.41570  0.71110  0.33910  Biso   1.000  H
  C242     1.0000 0.44306  0.71373  0.31547  Biso   1.000  C
  H242     1.0000 0.44900  0.72870  0.32170  Biso   1.000  H
  O121     1.0000 0.38157  0.65380  0.31812  Biso   1.000  O
  C243     1.0000 0.42305  0.20391  0.82524  Biso   1.000  C
  H243     1.0000 0.41570  0.21110  0.83910  Biso   1.000  H
  C244     1.0000 0.44306  0.21373  0.81547  Biso   1.000  C
  H244     1.0000 0.44900  0.22870  0.82170  Biso   1.000  H
  O122     1.0000 0.38157  0.15380  0.81812  Biso   1.000  O
  C245     1.0000 0.92305  0.70391  0.82524  Biso   1.000  C
  H245     1.0000 0.91570  0.71110  0.83910  Biso   1.000  H
  C246     1.0000 0.94306  0.71373  0.81547  Biso   1.000  C
  H246     1.0000 0.94900  0.72870  0.82170  Biso   1.000  H
  O123     1.0000 0.88157  0.65380  0.81812  Biso   1.000  O
  C247     1.0000 0.92305  0.20391  0.32524  Biso   1.000  C
  H247     1.0000 0.91570  0.21110  0.33910  Biso   1.000  H
  C248     1.0000 0.94306  0.21373  0.31547  Biso   1.000  C
  H248     1.0000 0.94900  0.22870  0.32170  Biso   1.000  H
  O124     1.0000 0.88157  0.15380  0.31812  Biso   1.000  O
  C249     1.0000 0.42305  0.29609  0.67476  Biso   1.000  C
  H249     1.0000 0.41570  0.28890  0.66090  Biso   1.000  H
  C250     1.0000 0.44306  0.28627  0.68453  Biso   1.000  C
  H250     1.0000 0.44900  0.27130  0.67830  Biso   1.000  H
  O125     1.0000 0.38157  0.34620  0.68188  Biso   1.000  O
  C251     1.0000 0.42305  0.79609  0.17476  Biso   1.000  C
  H251     1.0000 0.41570  0.78890  0.16090  Biso   1.000  H
  C252     1.0000 0.44306  0.78627  0.18453  Biso   1.000  C
  H252     1.0000 0.44900  0.77130  0.17830  Biso   1.000  H
  O126     1.0000 0.38157  0.84620  0.18188  Biso   1.000  O
  C253     1.0000 0.92305  0.29609  0.17476  Biso   1.000  C
  H253     1.0000 0.91570  0.28890  0.16090  Biso   1.000  H
  C254     1.0000 0.94306  0.28627  0.18453  Biso   1.000  C
  H254     1.0000 0.94900  0.27130  0.17830  Biso   1.000  H
  O127     1.0000 0.88157  0.34620  0.18188  Biso   1.000  O
  C255     1.0000 0.92305  0.79609  0.67476  Biso   1.000  C
  H255     1.0000 0.91570  0.78890  0.66090  Biso   1.000  H
  C256     1.0000 0.94306  0.78627  0.68453  Biso   1.000  C
  H256     1.0000 0.94900  0.77130  0.67830  Biso   1.000  H
  O128     1.0000 0.88157  0.84620  0.68188  Biso   1.000  O
  C257     1.0000 0.32524  0.57695  0.29609  Biso   1.000  C
  H257     1.0000 0.33910  0.58430  0.28890  Biso   1.000  H
  C258     1.0000 0.31547  0.55694  0.28627  Biso   1.000  C
  H258     1.0000 0.32170  0.55100  0.27130  Biso   1.000  H
  O129     1.0000 0.31812  0.61843  0.34620  Biso   1.000  O
  C259     1.0000 0.32524  0.07695  0.79609  Biso   1.000  C
  H259     1.0000 0.33910  0.08430  0.78890  Biso   1.000  H
  C260     1.0000 0.31547  0.05694  0.78627  Biso   1.000  C
  H260     1.0000 0.32170  0.05100  0.77130  Biso   1.000  H
  O130     1.0000 0.31812  0.11843  0.84620  Biso   1.000  O
  C261     1.0000 0.82524  0.57695  0.79609  Biso   1.000  C
  H261     1.0000 0.83910  0.58430  0.78890  Biso   1.000  H
  C262     1.0000 0.81547  0.55694  0.78627  Biso   1.000  C
  H262     1.0000 0.82170  0.55100  0.77130  Biso   1.000  H
  O131     1.0000 0.81812  0.61843  0.84620  Biso   1.000  O
  C263     1.0000 0.82524  0.07695  0.29609  Biso   1.000  C
  H263     1.0000 0.83910  0.08430  0.28890  Biso   1.000  H
  C264     1.0000 0.81547  0.05694  0.28627  Biso   1.000  C
  H264     1.0000 0.82170  0.05100  0.27130  Biso   1.000  H
  O132     1.0000 0.81812  0.11843  0.34620  Biso   1.000  O
  C265     1.0000 0.67476  0.57695  0.70391  Biso   1.000  C
  H265     1.0000 0.66090  0.58430  0.71110  Biso   1.000  H
  C266     1.0000 0.68453  0.55694  0.71373  Biso   1.000  C
  H266     1.0000 0.67830  0.55100  0.72870  Biso   1.000  H
  O133     1.0000 0.68188  0.61843  0.65380  Biso   1.000  O
  C267     1.0000 0.67476  0.07695  0.20391  Biso   1.000  C
  H267     1.0000 0.66090  0.08430  0.21110  Biso   1.000  H
  C268     1.0000 0.68453  0.05694  0.21373  Biso   1.000  C
  H268     1.0000 0.67830  0.05100  0.22870  Biso   1.000  H
  O134     1.0000 0.68188  0.11843  0.15380  Biso   1.000  O
  C269     1.0000 0.17476  0.57695  0.20391  Biso   1.000  C
  H269     1.0000 0.16090  0.58430  0.21110  Biso   1.000  H
  C270     1.0000 0.18453  0.55694  0.21373  Biso   1.000  C
  H270     1.0000 0.17830  0.55100  0.22870  Biso   1.000  H
  O135     1.0000 0.18188  0.61843  0.15380  Biso   1.000  O
  C271     1.0000 0.17476  0.07695  0.70391  Biso   1.000  C
  H271     1.0000 0.16090  0.08430  0.71110  Biso   1.000  H
  C272     1.0000 0.18453  0.05694  0.71373  Biso   1.000  C
  H272     1.0000 0.17830  0.05100  0.72870  Biso   1.000  H
  O136     1.0000 0.18188  0.11843  0.65380  Biso   1.000  O
  C273     1.0000 0.32524  0.42305  0.70391  Biso   1.000  C
  H273     1.0000 0.33910  0.41570  0.71110  Biso   1.000  H
  C274     1.0000 0.31547  0.44306  0.71373  Biso   1.000  C
  H274     1.0000 0.32170  0.44900  0.72870  Biso   1.000  H
  O137     1.0000 0.31812  0.38157  0.65380  Biso   1.000  O
  C275     1.0000 0.32524  0.92305  0.20391  Biso   1.000  C
  H275     1.0000 0.33910  0.91570  0.21110  Biso   1.000  H
  C276     1.0000 0.31547  0.94306  0.21373  Biso   1.000  C
  H276     1.0000 0.32170  0.94900  0.22870  Biso   1.000  H
  O138     1.0000 0.31812  0.88157  0.15380  Biso   1.000  O
  C277     1.0000 0.82524  0.42305  0.20391  Biso   1.000  C
  H277     1.0000 0.83910  0.41570  0.21110  Biso   1.000  H
  C278     1.0000 0.81547  0.44306  0.21373  Biso   1.000  C
  H278     1.0000 0.82170  0.44900  0.22870  Biso   1.000  H
  O139     1.0000 0.81812  0.38157  0.15380  Biso   1.000  O
  C279     1.0000 0.82524  0.92305  0.70391  Biso   1.000  C
  H279     1.0000 0.83910  0.91570  0.71110  Biso   1.000  H
  C280     1.0000 0.81547  0.94306  0.71373  Biso   1.000  C
  H280     1.0000 0.82170  0.94900  0.72870  Biso   1.000  H
  O140     1.0000 0.81812  0.88157  0.65380  Biso   1.000  O
  C281     1.0000 0.67476  0.42305  0.29609  Biso   1.000  C
  H281     1.0000 0.66090  0.41570  0.28890  Biso   1.000  H
  C282     1.0000 0.68453  0.44306  0.28627  Biso   1.000  C
  H282     1.0000 0.67830  0.44900  0.27130  Biso   1.000  H
  O141     1.0000 0.68188  0.38157  0.34620  Biso   1.000  O
  C283     1.0000 0.67476  0.92305  0.79609  Biso   1.000  C
  H283     1.0000 0.66090  0.91570  0.78890  Biso   1.000  H
  C284     1.0000 0.68453  0.94306  0.78627  Biso   1.000  C
  H284     1.0000 0.67830  0.94900  0.77130  Biso   1.000  H
  O142     1.0000 0.68188  0.88157  0.84620  Biso   1.000  O
  C285     1.0000 0.17476  0.42305  0.79609  Biso   1.000  C
  H285     1.0000 0.16090  0.41570  0.78890  Biso   1.000  H
  C286     1.0000 0.18453  0.44306  0.78627  Biso   1.000  C
  H286     1.0000 0.17830  0.44900  0.77130  Biso   1.000  H
  O143     1.0000 0.18188  0.38157  0.84620  Biso   1.000  O
  C287     1.0000 0.17476  0.92305  0.29609  Biso   1.000  C
  H287     1.0000 0.16090  0.91570  0.28890  Biso   1.000  H
  C288     1.0000 0.18453  0.94306  0.28627  Biso   1.000  C
  H288     1.0000 0.17830  0.94900  0.27130  Biso   1.000  H
  O144     1.0000 0.18188  0.88157  0.34620  Biso   1.000  O
  C289     1.0000 0.32524  0.29609  0.42305  Biso   1.000  C
  H289     1.0000 0.33910  0.28890  0.41570  Biso   1.000  H
  C290     1.0000 0.31547  0.28627  0.44306  Biso   1.000  C
  H290     1.0000 0.32170  0.27130  0.44900  Biso   1.000  H
  O145     1.0000 0.31812  0.34620  0.38157  Biso   1.000  O
  C291     1.0000 0.32524  0.79609  0.92305  Biso   1.000  C
  H291     1.0000 0.33910  0.78890  0.91570  Biso   1.000  H
  C292     1.0000 0.31547  0.78627  0.94306  Biso   1.000  C
  H292     1.0000 0.32170  0.77130  0.94900  Biso   1.000  H
  O146     1.0000 0.31812  0.84620  0.88157  Biso   1.000  O
  C293     1.0000 0.82524  0.29609  0.92305  Biso   1.000  C
  H293     1.0000 0.83910  0.28890  0.91570  Biso   1.000  H
  C294     1.0000 0.81547  0.28627  0.94306  Biso   1.000  C
  H294     1.0000 0.82170  0.27130  0.94900  Biso   1.000  H
  O147     1.0000 0.81812  0.34620  0.88157  Biso   1.000  O
  C295     1.0000 0.82524  0.79609  0.42305  Biso   1.000  C
  H295     1.0000 0.83910  0.78890  0.41570  Biso   1.000  H
  C296     1.0000 0.81547  0.78627  0.44306  Biso   1.000  C
  H296     1.0000 0.82170  0.77130  0.44900  Biso   1.000  H
  O148     1.0000 0.81812  0.84620  0.38157  Biso   1.000  O
  C297     1.0000 0.67476  0.70391  0.42305  Biso   1.000  C
  H297     1.0000 0.66090  0.71110  0.41570  Biso   1.000  H
  C298     1.0000 0.68453  0.71373  0.44306  Biso   1.000  C
  H298     1.0000 0.67830  0.72870  0.44900  Biso   1.000  H
  O149     1.0000 0.68188  0.65380  0.38157  Biso   1.000  O
  C299     1.0000 0.67476  0.20391  0.92305  Biso   1.000  C
  H299     1.0000 0.66090  0.21110  0.91570  Biso   1.000  H
  C300     1.0000 0.68453  0.21373  0.94306  Biso   1.000  C
  H300     1.0000 0.67830  0.22870  0.94900  Biso   1.000  H
  O150     1.0000 0.68188  0.15380  0.88157  Biso   1.000  O
  C301     1.0000 0.17476  0.70391  0.92305  Biso   1.000  C
  H301     1.0000 0.16090  0.71110  0.91570  Biso   1.000  H
  C302     1.0000 0.18453  0.71373  0.94306  Biso   1.000  C
  H302     1.0000 0.17830  0.72870  0.94900  Biso   1.000  H
  O151     1.0000 0.18188  0.65380  0.88157  Biso   1.000  O
  C303     1.0000 0.17476  0.20391  0.42305  Biso   1.000  C
  H303     1.0000 0.16090  0.21110  0.41570  Biso   1.000  H
  C304     1.0000 0.18453  0.21373  0.44306  Biso   1.000  C
  H304     1.0000 0.17830  0.22870  0.44900  Biso   1.000  H
  O152     1.0000 0.18188  0.15380  0.38157  Biso   1.000  O
  C305     1.0000 0.32524  0.70391  0.57695  Biso   1.000  C
  H305     1.0000 0.33910  0.71110  0.58430  Biso   1.000  H
  C306     1.0000 0.31547  0.71373  0.55694  Biso   1.000  C
  H306     1.0000 0.32170  0.72870  0.55100  Biso   1.000  H
  O153     1.0000 0.31812  0.65380  0.61843  Biso   1.000  O
  C307     1.0000 0.32524  0.20391  0.07695  Biso   1.000  C
  H307     1.0000 0.33910  0.21110  0.08430  Biso   1.000  H
  C308     1.0000 0.31547  0.21373  0.05694  Biso   1.000  C
  H308     1.0000 0.32170  0.22870  0.05100  Biso   1.000  H
  O154     1.0000 0.31812  0.15380  0.11843  Biso   1.000  O
  C309     1.0000 0.82524  0.70391  0.07695  Biso   1.000  C
  H309     1.0000 0.83910  0.71110  0.08430  Biso   1.000  H
  C310     1.0000 0.81547  0.71373  0.05694  Biso   1.000  C
  H310     1.0000 0.82170  0.72870  0.05100  Biso   1.000  H
  O155     1.0000 0.81812  0.65380  0.11843  Biso   1.000  O
  C311     1.0000 0.82524  0.20391  0.57695  Biso   1.000  C
  H311     1.0000 0.83910  0.21110  0.58430  Biso   1.000  H
  C312     1.0000 0.81547  0.21373  0.55694  Biso   1.000  C
  H312     1.0000 0.82170  0.22870  0.55100  Biso   1.000  H
  O156     1.0000 0.81812  0.15380  0.61843  Biso   1.000  O
  C313     1.0000 0.67476  0.29609  0.57695  Biso   1.000  C
  H313     1.0000 0.66090  0.28890  0.58430  Biso   1.000  H
  C314     1.0000 0.68453  0.28627  0.55694  Biso   1.000  C
  H314     1.0000 0.67830  0.27130  0.55100  Biso   1.000  H
  O157     1.0000 0.68188  0.34620  0.61843  Biso   1.000  O
  C315     1.0000 0.67476  0.79609  0.07695  Biso   1.000  C
  H315     1.0000 0.66090  0.78890  0.08430  Biso   1.000  H
  C316     1.0000 0.68453  0.78627  0.05694  Biso   1.000  C
  H316     1.0000 0.67830  0.77130  0.05100  Biso   1.000  H
  O158     1.0000 0.68188  0.84620  0.11843  Biso   1.000  O
  C317     1.0000 0.17476  0.29609  0.07695  Biso   1.000  C
  H317     1.0000 0.16090  0.28890  0.08430  Biso   1.000  H
  C318     1.0000 0.18453  0.28627  0.05694  Biso   1.000  C
  H318     1.0000 0.17830  0.27130  0.05100  Biso   1.000  H
  O159     1.0000 0.18188  0.34620  0.11843  Biso   1.000  O
  C319     1.0000 0.17476  0.79609  0.57695  Biso   1.000  C
  H319     1.0000 0.16090  0.78890  0.58430  Biso   1.000  H
  C320     1.0000 0.18453  0.78627  0.55694  Biso   1.000  C
  H320     1.0000 0.17830  0.77130  0.55100  Biso   1.000  H
  O160     1.0000 0.18188  0.84620  0.61843  Biso   1.000  O
  C321     1.0000 0.29609  0.57695  0.67476  Biso   1.000  C
  H321     1.0000 0.28890  0.58430  0.66090  Biso   1.000  H
  C322     1.0000 0.28627  0.55694  0.68453  Biso   1.000  C
  H322     1.0000 0.27130  0.55100  0.67830  Biso   1.000  H
  O161     1.0000 0.34620  0.61843  0.68188  Biso   1.000  O
  C323     1.0000 0.29609  0.07695  0.17476  Biso   1.000  C
  H323     1.0000 0.28890  0.08430  0.16090  Biso   1.000  H
  C324     1.0000 0.28627  0.05694  0.18453  Biso   1.000  C
  H324     1.0000 0.27130  0.05100  0.17830  Biso   1.000  H
  O162     1.0000 0.34620  0.11843  0.18188  Biso   1.000  O
  C325     1.0000 0.79609  0.57695  0.17476  Biso   1.000  C
  H325     1.0000 0.78890  0.58430  0.16090  Biso   1.000  H
  C326     1.0000 0.78627  0.55694  0.18453  Biso   1.000  C
  H326     1.0000 0.77130  0.55100  0.17830  Biso   1.000  H
  O163     1.0000 0.84620  0.61843  0.18188  Biso   1.000  O
  C327     1.0000 0.79609  0.07695  0.67476  Biso   1.000  C
  H327     1.0000 0.78890  0.08430  0.66090  Biso   1.000  H
  C328     1.0000 0.78627  0.05694  0.68453  Biso   1.000  C
  H328     1.0000 0.77130  0.05100  0.67830  Biso   1.000  H
  O164     1.0000 0.84620  0.11843  0.68188  Biso   1.000  O
  C329     1.0000 0.70391  0.57695  0.32524  Biso   1.000  C
  H329     1.0000 0.71110  0.58430  0.33910  Biso   1.000  H
  C330     1.0000 0.71373  0.55694  0.31547  Biso   1.000  C
  H330     1.0000 0.72870  0.55100  0.32170  Biso   1.000  H
  O165     1.0000 0.65380  0.61843  0.31812  Biso   1.000  O
  C331     1.0000 0.70391  0.07695  0.82524  Biso   1.000  C
  H331     1.0000 0.71110  0.08430  0.83910  Biso   1.000  H
  C332     1.0000 0.71373  0.05694  0.81547  Biso   1.000  C
  H332     1.0000 0.72870  0.05100  0.82170  Biso   1.000  H
  O166     1.0000 0.65380  0.11843  0.81812  Biso   1.000  O
  C333     1.0000 0.20391  0.57695  0.82524  Biso   1.000  C
  H333     1.0000 0.21110  0.58430  0.83910  Biso   1.000  H
  C334     1.0000 0.21373  0.55694  0.81547  Biso   1.000  C
  H334     1.0000 0.22870  0.55100  0.82170  Biso   1.000  H
  O167     1.0000 0.15380  0.61843  0.81812  Biso   1.000  O
  C335     1.0000 0.20391  0.07695  0.32524  Biso   1.000  C
  H335     1.0000 0.21110  0.08430  0.33910  Biso   1.000  H
  C336     1.0000 0.21373  0.05694  0.31547  Biso   1.000  C
  H336     1.0000 0.22870  0.05100  0.32170  Biso   1.000  H
  O168     1.0000 0.15380  0.11843  0.31812  Biso   1.000  O
  C337     1.0000 0.70391  0.42305  0.67476  Biso   1.000  C
  H337     1.0000 0.71110  0.41570  0.66090  Biso   1.000  H
  C338     1.0000 0.71373  0.44306  0.68453  Biso   1.000  C
  H338     1.0000 0.72870  0.44900  0.67830  Biso   1.000  H
  O169     1.0000 0.65380  0.38157  0.68188  Biso   1.000  O
  C339     1.0000 0.70391  0.92305  0.17476  Biso   1.000  C
  H339     1.0000 0.71110  0.91570  0.16090  Biso   1.000  H
  C340     1.0000 0.71373  0.94306  0.18453  Biso   1.000  C
  H340     1.0000 0.72870  0.94900  0.17830  Biso   1.000  H
  O170     1.0000 0.65380  0.88157  0.18188  Biso   1.000  O
  C341     1.0000 0.20391  0.42305  0.17476  Biso   1.000  C
  H341     1.0000 0.21110  0.41570  0.16090  Biso   1.000  H
  C342     1.0000 0.21373  0.44306  0.18453  Biso   1.000  C
  H342     1.0000 0.22870  0.44900  0.17830  Biso   1.000  H
  O171     1.0000 0.15380  0.38157  0.18188  Biso   1.000  O
  C343     1.0000 0.20391  0.92305  0.67476  Biso   1.000  C
  H343     1.0000 0.21110  0.91570  0.66090  Biso   1.000  H
  C344     1.0000 0.21373  0.94306  0.68453  Biso   1.000  C
  H344     1.0000 0.22870  0.94900  0.67830  Biso   1.000  H
  O172     1.0000 0.15380  0.88157  0.68188  Biso   1.000  O
  C345     1.0000 0.29609  0.42305  0.32524  Biso   1.000  C
  H345     1.0000 0.28890  0.41570  0.33910  Biso   1.000  H
  C346     1.0000 0.28627  0.44306  0.31547  Biso   1.000  C
  H346     1.0000 0.27130  0.44900  0.32170  Biso   1.000  H
  O173     1.0000 0.34620  0.38157  0.31812  Biso   1.000  O
  C347     1.0000 0.29609  0.92305  0.82524  Biso   1.000  C
  H347     1.0000 0.28890  0.91570  0.83910  Biso   1.000  H
  C348     1.0000 0.28627  0.94306  0.81547  Biso   1.000  C
  H348     1.0000 0.27130  0.94900  0.82170  Biso   1.000  H
  O174     1.0000 0.34620  0.88157  0.81812  Biso   1.000  O
  C349     1.0000 0.79609  0.42305  0.82524  Biso   1.000  C
  H349     1.0000 0.78890  0.41570  0.83910  Biso   1.000  H
  C350     1.0000 0.78627  0.44306  0.81547  Biso   1.000  C
  H350     1.0000 0.77130  0.44900  0.82170  Biso   1.000  H
  O175     1.0000 0.84620  0.38157  0.81812  Biso   1.000  O
  C351     1.0000 0.79609  0.92305  0.32524  Biso   1.000  C
  H351     1.0000 0.78890  0.91570  0.33910  Biso   1.000  H
  C352     1.0000 0.78627  0.94306  0.31547  Biso   1.000  C
  H352     1.0000 0.77130  0.94900  0.32170  Biso   1.000  H
  O176     1.0000 0.84620  0.88157  0.31812  Biso   1.000  O
  C353     1.0000 0.57695  0.32524  0.70391  Biso   1.000  C
  H353     1.0000 0.58430  0.33910  0.71110  Biso   1.000  H
  C354     1.0000 0.55694  0.31547  0.71373  Biso   1.000  C
  H354     1.0000 0.55100  0.32170  0.72870  Biso   1.000  H
  O177     1.0000 0.61843  0.31812  0.65380  Biso   1.000  O
  C355     1.0000 0.57695  0.82524  0.20391  Biso   1.000  C
  H355     1.0000 0.58430  0.83910  0.21110  Biso   1.000  H
  C356     1.0000 0.55694  0.81547  0.21373  Biso   1.000  C
  H356     1.0000 0.55100  0.82170  0.22870  Biso   1.000  H
  O178     1.0000 0.61843  0.81812  0.15380  Biso   1.000  O
  C357     1.0000 0.07695  0.32524  0.20391  Biso   1.000  C
  H357     1.0000 0.08430  0.33910  0.21110  Biso   1.000  H
  C358     1.0000 0.05694  0.31547  0.21373  Biso   1.000  C
  H358     1.0000 0.05100  0.32170  0.22870  Biso   1.000  H
  O179     1.0000 0.11843  0.31812  0.15380  Biso   1.000  O
  C359     1.0000 0.07695  0.82524  0.70391  Biso   1.000  C
  H359     1.0000 0.08430  0.83910  0.71110  Biso   1.000  H
  C360     1.0000 0.05694  0.81547  0.71373  Biso   1.000  C
  H360     1.0000 0.05100  0.82170  0.72870  Biso   1.000  H
  O180     1.0000 0.11843  0.81812  0.65380  Biso   1.000  O
  C361     1.0000 0.57695  0.67476  0.29609  Biso   1.000  C
  H361     1.0000 0.58430  0.66090  0.28890  Biso   1.000  H
  C362     1.0000 0.55694  0.68453  0.28627  Biso   1.000  C
  H362     1.0000 0.55100  0.67830  0.27130  Biso   1.000  H
  O181     1.0000 0.61843  0.68188  0.34620  Biso   1.000  O
  C363     1.0000 0.57695  0.17476  0.79609  Biso   1.000  C
  H363     1.0000 0.58430  0.16090  0.78890  Biso   1.000  H
  C364     1.0000 0.55694  0.18453  0.78627  Biso   1.000  C
  H364     1.0000 0.55100  0.17830  0.77130  Biso   1.000  H
  O182     1.0000 0.61843  0.18188  0.84620  Biso   1.000  O
  C365     1.0000 0.07695  0.67476  0.79609  Biso   1.000  C
  H365     1.0000 0.08430  0.66090  0.78890  Biso   1.000  H
  C366     1.0000 0.05694  0.68453  0.78627  Biso   1.000  C
  H366     1.0000 0.05100  0.67830  0.77130  Biso   1.000  H
  O183     1.0000 0.11843  0.68188  0.84620  Biso   1.000  O
  C367     1.0000 0.07695  0.17476  0.29609  Biso   1.000  C
  H367     1.0000 0.08430  0.16090  0.28890  Biso   1.000  H
  C368     1.0000 0.05694  0.18453  0.28627  Biso   1.000  C
  H368     1.0000 0.05100  0.17830  0.27130  Biso   1.000  H
  O184     1.0000 0.11843  0.18188  0.34620  Biso   1.000  O
  C369     1.0000 0.42305  0.32524  0.29609  Biso   1.000  C
  H369     1.0000 0.41570  0.33910  0.28890  Biso   1.000  H
  C370     1.0000 0.44306  0.31547  0.28627  Biso   1.000  C
  H370     1.0000 0.44900  0.32170  0.27130  Biso   1.000  H
  O185     1.0000 0.38157  0.31812  0.34620  Biso   1.000  O
  C371     1.0000 0.42305  0.82524  0.79609  Biso   1.000  C
  H371     1.0000 0.41570  0.83910  0.78890  Biso   1.000  H
  C372     1.0000 0.44306  0.81547  0.78627  Biso   1.000  C
  H372     1.0000 0.44900  0.82170  0.77130  Biso   1.000  H
  O186     1.0000 0.38157  0.81812  0.84620  Biso   1.000  O
  C373     1.0000 0.92305  0.32524  0.79609  Biso   1.000  C
  H373     1.0000 0.91570  0.33910  0.78890  Biso   1.000  H
  C374     1.0000 0.94306  0.31547  0.78627  Biso   1.000  C
  H374     1.0000 0.94900  0.32170  0.77130  Biso   1.000  H
  O187     1.0000 0.88157  0.31812  0.84620  Biso   1.000  O
  C375     1.0000 0.92305  0.82524  0.29609  Biso   1.000  C
  H375     1.0000 0.91570  0.83910  0.28890  Biso   1.000  H
  C376     1.0000 0.94306  0.81547  0.28627  Biso   1.000  C
  H376     1.0000 0.94900  0.82170  0.27130  Biso   1.000  H
  O188     1.0000 0.88157  0.81812  0.34620  Biso   1.000  O
  C377     1.0000 0.42305  0.67476  0.70391  Biso   1.000  C
  H377     1.0000 0.41570  0.66090  0.71110  Biso   1.000  H
  C378     1.0000 0.44306  0.68453  0.71373  Biso   1.000  C
  H378     1.0000 0.44900  0.67830  0.72870  Biso   1.000  H
  O189     1.0000 0.38157  0.68188  0.65380  Biso   1.000  O
  C379     1.0000 0.42305  0.17476  0.20391  Biso   1.000  C
  H379     1.0000 0.41570  0.16090  0.21110  Biso   1.000  H
  C380     1.0000 0.44306  0.18453  0.21373  Biso   1.000  C
  H380     1.0000 0.44900  0.17830  0.22870  Biso   1.000  H
  O190     1.0000 0.38157  0.18188  0.15380  Biso   1.000  O
  C381     1.0000 0.92305  0.67476  0.20391  Biso   1.000  C
  H381     1.0000 0.91570  0.66090  0.21110  Biso   1.000  H
  C382     1.0000 0.94306  0.68453  0.21373  Biso   1.000  C
  H382     1.0000 0.94900  0.67830  0.22870  Biso   1.000  H
  O191     1.0000 0.88157  0.68188  0.15380  Biso   1.000  O
  C383     1.0000 0.92305  0.17476  0.70391  Biso   1.000  C
  H383     1.0000 0.91570  0.16090  0.71110  Biso   1.000  H
  C384     1.0000 0.94306  0.18453  0.71373  Biso   1.000  C
  H384     1.0000 0.94900  0.17830  0.72870  Biso   1.000  H
  O192     1.0000 0.88157  0.18188  0.65380  Biso   1.000  O
  C385     1.0000 0.67236  0.67236  0.39058  Biso   1.000  C
  C386     1.0000 0.68435  0.68435  0.41359  Biso   1.000  C
  C387     1.0000 0.70285  0.70285  0.45479  Biso   1.000  C
  C388     1.0000 0.71388  0.71388  0.47829  Biso   1.000  C
  C389     1.0000 0.73157  0.73157  0.47639  Biso   1.000  C
  C390     1.0000 0.74131  0.74131  0.45486  Biso   1.000  C
  H385     1.0000 0.73540  0.73540  0.43970  Biso   1.000  H
  C391     1.0000 0.67236  0.17236  0.89058  Biso   1.000  C
  C392     1.0000 0.68435  0.18435  0.91359  Biso   1.000  C
  C393     1.0000 0.70285  0.20285  0.95479  Biso   1.000  C
  C394     1.0000 0.71388  0.21388  0.97829  Biso   1.000  C
  C395     1.0000 0.73157  0.23157  0.97639  Biso   1.000  C
  C396     1.0000 0.74131  0.24131  0.95486  Biso   1.000  C
  H386     1.0000 0.73540  0.23540  0.93970  Biso   1.000  H
  C397     1.0000 0.17236  0.67236  0.89058  Biso   1.000  C
  C398     1.0000 0.18435  0.68435  0.91359  Biso   1.000  C
  C399     1.0000 0.20285  0.70285  0.95479  Biso   1.000  C
  C400     1.0000 0.21388  0.71388  0.97829  Biso   1.000  C
  C401     1.0000 0.23157  0.73157  0.97639  Biso   1.000  C
  C402     1.0000 0.24131  0.74131  0.95486  Biso   1.000  C
  H387     1.0000 0.23540  0.73540  0.93970  Biso   1.000  H
  C403     1.0000 0.17236  0.17236  0.39058  Biso   1.000  C
  C404     1.0000 0.18435  0.18435  0.41359  Biso   1.000  C
  C405     1.0000 0.20285  0.20285  0.45479  Biso   1.000  C
  C406     1.0000 0.21388  0.21388  0.47829  Biso   1.000  C
  C407     1.0000 0.23157  0.23157  0.47639  Biso   1.000  C
  C408     1.0000 0.24131  0.24131  0.45486  Biso   1.000  C
  H388     1.0000 0.23540  0.23540  0.43970  Biso   1.000  H
  C409     1.0000 0.32764  0.32764  0.39058  Biso   1.000  C
  C410     1.0000 0.31565  0.31565  0.41359  Biso   1.000  C
  C411     1.0000 0.29715  0.29715  0.45479  Biso   1.000  C
  C412     1.0000 0.28612  0.28612  0.47829  Biso   1.000  C
  C413     1.0000 0.26843  0.26843  0.47639  Biso   1.000  C
  C414     1.0000 0.25869  0.25869  0.45486  Biso   1.000  C
  H389     1.0000 0.26460  0.26460  0.43970  Biso   1.000  H
  C415     1.0000 0.32764  0.82764  0.89058  Biso   1.000  C
  C416     1.0000 0.31565  0.81565  0.91359  Biso   1.000  C
  C417     1.0000 0.29715  0.79715  0.95479  Biso   1.000  C
  C418     1.0000 0.28612  0.78612  0.97829  Biso   1.000  C
  C419     1.0000 0.26843  0.76843  0.97639  Biso   1.000  C
  C420     1.0000 0.25869  0.75869  0.95486  Biso   1.000  C
  H390     1.0000 0.26460  0.76460  0.93970  Biso   1.000  H
  C421     1.0000 0.82764  0.32764  0.89058  Biso   1.000  C
  C422     1.0000 0.81565  0.31565  0.91359  Biso   1.000  C
  C423     1.0000 0.79715  0.29715  0.95479  Biso   1.000  C
  C424     1.0000 0.78612  0.28612  0.97829  Biso   1.000  C
  C425     1.0000 0.76843  0.26843  0.97639  Biso   1.000  C
  C426     1.0000 0.75869  0.25869  0.95486  Biso   1.000  C
  H391     1.0000 0.76460  0.26460  0.93970  Biso   1.000  H
  C427     1.0000 0.82764  0.82764  0.39058  Biso   1.000  C
  C428     1.0000 0.81565  0.81565  0.41359  Biso   1.000  C
  C429     1.0000 0.79715  0.79715  0.45479  Biso   1.000  C
  C430     1.0000 0.78612  0.78612  0.47829  Biso   1.000  C
  C431     1.0000 0.76843  0.76843  0.47639  Biso   1.000  C
  C432     1.0000 0.75869  0.75869  0.45486  Biso   1.000  C
  H392     1.0000 0.76460  0.76460  0.43970  Biso   1.000  H
  C433     1.0000 0.32764  0.67236  0.60942  Biso   1.000  C
  C434     1.0000 0.31565  0.68435  0.58641  Biso   1.000  C
  C435     1.0000 0.29715  0.70285  0.54521  Biso   1.000  C
  C436     1.0000 0.28612  0.71388  0.52171  Biso   1.000  C
  C437     1.0000 0.26843  0.73157  0.52361  Biso   1.000  C
  C438     1.0000 0.25869  0.74131  0.54514  Biso   1.000  C
  H393     1.0000 0.26460  0.73540  0.56030  Biso   1.000  H
  C439     1.0000 0.32764  0.17236  0.10942  Biso   1.000  C
  C440     1.0000 0.31565  0.18435  0.08641  Biso   1.000  C
  C441     1.0000 0.29715  0.20285  0.04521  Biso   1.000  C
  C442     1.0000 0.28612  0.21388  0.02171  Biso   1.000  C
  C443     1.0000 0.26843  0.23157  0.02361  Biso   1.000  C
  C444     1.0000 0.25869  0.24131  0.04514  Biso   1.000  C
  H394     1.0000 0.26460  0.23540  0.06030  Biso   1.000  H
  C445     1.0000 0.82764  0.67236  0.10942  Biso   1.000  C
  C446     1.0000 0.81565  0.68435  0.08641  Biso   1.000  C
  C447     1.0000 0.79715  0.70285  0.04521  Biso   1.000  C
  C448     1.0000 0.78612  0.71388  0.02171  Biso   1.000  C
  C449     1.0000 0.76843  0.73157  0.02361  Biso   1.000  C
  C450     1.0000 0.75869  0.74131  0.04514  Biso   1.000  C
  H395     1.0000 0.76460  0.73540  0.06030  Biso   1.000  H
  C451     1.0000 0.82764  0.17236  0.60942  Biso   1.000  C
  C452     1.0000 0.81565  0.18435  0.58641  Biso   1.000  C
  C453     1.0000 0.79715  0.20285  0.54521  Biso   1.000  C
  C454     1.0000 0.78612  0.21388  0.52171  Biso   1.000  C
  C455     1.0000 0.76843  0.23157  0.52361  Biso   1.000  C
  C456     1.0000 0.75869  0.24131  0.54514  Biso   1.000  C
  H396     1.0000 0.76460  0.23540  0.56030  Biso   1.000  H
  C457     1.0000 0.67236  0.32764  0.60942  Biso   1.000  C
  C458     1.0000 0.68435  0.31565  0.58641  Biso   1.000  C
  C459     1.0000 0.70285  0.29715  0.54521  Biso   1.000  C
  C460     1.0000 0.71388  0.28612  0.52171  Biso   1.000  C
  C461     1.0000 0.73157  0.26843  0.52361  Biso   1.000  C
  C462     1.0000 0.74131  0.25869  0.54514  Biso   1.000  C
  H397     1.0000 0.73540  0.26460  0.56030  Biso   1.000  H
  C463     1.0000 0.67236  0.82764  0.10942  Biso   1.000  C
  C464     1.0000 0.68435  0.81565  0.08641  Biso   1.000  C
  C465     1.0000 0.70285  0.79715  0.04521  Biso   1.000  C
  C466     1.0000 0.71388  0.78612  0.02171  Biso   1.000  C
  C467     1.0000 0.73157  0.76843  0.02361  Biso   1.000  C
  C468     1.0000 0.74131  0.75869  0.04514  Biso   1.000  C
  H398     1.0000 0.73540  0.76460  0.06030  Biso   1.000  H
  C469     1.0000 0.17236  0.32764  0.10942  Biso   1.000  C
  C470     1.0000 0.18435  0.31565  0.08641  Biso   1.000  C
  C471     1.0000 0.20285  0.29715  0.04521  Biso   1.000  C
  C472     1.0000 0.21388  0.28612  0.02171  Biso   1.000  C
  C473     1.0000 0.23157  0.26843  0.02361  Biso   1.000  C
  C474     1.0000 0.24131  0.25869  0.04514  Biso   1.000  C
  H399     1.0000 0.23540  0.26460  0.06030  Biso   1.000  H
  C475     1.0000 0.17236  0.82764  0.60942  Biso   1.000  C
  C476     1.0000 0.18435  0.81565  0.58641  Biso   1.000  C
  C477     1.0000 0.20285  0.79715  0.54521  Biso   1.000  C
  C478     1.0000 0.21388  0.78612  0.52171  Biso   1.000  C
  C479     1.0000 0.23157  0.76843  0.52361  Biso   1.000  C
  C480     1.0000 0.24131  0.75869  0.54514  Biso   1.000  C
  H400     1.0000 0.23540  0.76460  0.56030  Biso   1.000  H
  C481     1.0000 0.39058  0.67236  0.67236  Biso   1.000  C
  C482     1.0000 0.41359  0.68435  0.68435  Biso   1.000  C
  C483     1.0000 0.45479  0.70285  0.70285  Biso   1.000  C
  C484     1.0000 0.47829  0.71388  0.71388  Biso   1.000  C
  C485     1.0000 0.47639  0.73157  0.73157  Biso   1.000  C
  C486     1.0000 0.45486  0.74131  0.74131  Biso   1.000  C
  H401     1.0000 0.43970  0.73540  0.73540  Biso   1.000  H
  C487     1.0000 0.39058  0.17236  0.17236  Biso   1.000  C
  C488     1.0000 0.41359  0.18435  0.18435  Biso   1.000  C
  C489     1.0000 0.45479  0.20285  0.20285  Biso   1.000  C
  C490     1.0000 0.47829  0.21388  0.21388  Biso   1.000  C
  C491     1.0000 0.47639  0.23157  0.23157  Biso   1.000  C
  C492     1.0000 0.45486  0.24131  0.24131  Biso   1.000  C
  H402     1.0000 0.43970  0.23540  0.23540  Biso   1.000  H
  C493     1.0000 0.89058  0.67236  0.17236  Biso   1.000  C
  C494     1.0000 0.91359  0.68435  0.18435  Biso   1.000  C
  C495     1.0000 0.95479  0.70285  0.20285  Biso   1.000  C
  C496     1.0000 0.97829  0.71388  0.21388  Biso   1.000  C
  C497     1.0000 0.97639  0.73157  0.23157  Biso   1.000  C
  C498     1.0000 0.95486  0.74131  0.24131  Biso   1.000  C
  H403     1.0000 0.93970  0.73540  0.23540  Biso   1.000  H
  C499     1.0000 0.89058  0.17236  0.67236  Biso   1.000  C
  C500     1.0000 0.91359  0.18435  0.68435  Biso   1.000  C
  C501     1.0000 0.95479  0.20285  0.70285  Biso   1.000  C
  C502     1.0000 0.97829  0.21388  0.71388  Biso   1.000  C
  C503     1.0000 0.97639  0.23157  0.73157  Biso   1.000  C
  C504     1.0000 0.95486  0.24131  0.74131  Biso   1.000  C
  H404     1.0000 0.93970  0.23540  0.73540  Biso   1.000  H
  C505     1.0000 0.39058  0.32764  0.32764  Biso   1.000  C
  C506     1.0000 0.41359  0.31565  0.31565  Biso   1.000  C
  C507     1.0000 0.45479  0.29715  0.29715  Biso   1.000  C
  C508     1.0000 0.47829  0.28612  0.28612  Biso   1.000  C
  C509     1.0000 0.47639  0.26843  0.26843  Biso   1.000  C
  C510     1.0000 0.45486  0.25869  0.25869  Biso   1.000  C
  H405     1.0000 0.43970  0.26460  0.26460  Biso   1.000  H
  C511     1.0000 0.39058  0.82764  0.82764  Biso   1.000  C
  C512     1.0000 0.41359  0.81565  0.81565  Biso   1.000  C
  C513     1.0000 0.45479  0.79715  0.79715  Biso   1.000  C
  C514     1.0000 0.47829  0.78612  0.78612  Biso   1.000  C
  C515     1.0000 0.47639  0.76843  0.76843  Biso   1.000  C
  C516     1.0000 0.45486  0.75869  0.75869  Biso   1.000  C
  H406     1.0000 0.43970  0.76460  0.76460  Biso   1.000  H
  C517     1.0000 0.89058  0.32764  0.82764  Biso   1.000  C
  C518     1.0000 0.91359  0.31565  0.81565  Biso   1.000  C
  C519     1.0000 0.95479  0.29715  0.79715  Biso   1.000  C
  C520     1.0000 0.97829  0.28612  0.78612  Biso   1.000  C
  C521     1.0000 0.97639  0.26843  0.76843  Biso   1.000  C
  C522     1.0000 0.95486  0.25869  0.75869  Biso   1.000  C
  H407     1.0000 0.93970  0.26460  0.76460  Biso   1.000  H
  C523     1.0000 0.89058  0.82764  0.32764  Biso   1.000  C
  C524     1.0000 0.91359  0.81565  0.31565  Biso   1.000  C
  C525     1.0000 0.95479  0.79715  0.29715  Biso   1.000  C
  C526     1.0000 0.97829  0.78612  0.28612  Biso   1.000  C
  C527     1.0000 0.97639  0.76843  0.26843  Biso   1.000  C
  C528     1.0000 0.95486  0.75869  0.25869  Biso   1.000  C
  H408     1.0000 0.93970  0.76460  0.26460  Biso   1.000  H
  C529     1.0000 0.60942  0.32764  0.67236  Biso   1.000  C
  C530     1.0000 0.58641  0.31565  0.68435  Biso   1.000  C
  C531     1.0000 0.54521  0.29715  0.70285  Biso   1.000  C
  C532     1.0000 0.52171  0.28612  0.71388  Biso   1.000  C
  C533     1.0000 0.52361  0.26843  0.73157  Biso   1.000  C
  C534     1.0000 0.54514  0.25869  0.74131  Biso   1.000  C
  H409     1.0000 0.56030  0.26460  0.73540  Biso   1.000  H
  C535     1.0000 0.60942  0.82764  0.17236  Biso   1.000  C
  C536     1.0000 0.58641  0.81565  0.18435  Biso   1.000  C
  C537     1.0000 0.54521  0.79715  0.20285  Biso   1.000  C
  C538     1.0000 0.52171  0.78612  0.21388  Biso   1.000  C
  C539     1.0000 0.52361  0.76843  0.23157  Biso   1.000  C
  C540     1.0000 0.54514  0.75869  0.24131  Biso   1.000  C
  H410     1.0000 0.56030  0.76460  0.23540  Biso   1.000  H
  C541     1.0000 0.10942  0.32764  0.17236  Biso   1.000  C
  C542     1.0000 0.08641  0.31565  0.18435  Biso   1.000  C
  C543     1.0000 0.04521  0.29715  0.20285  Biso   1.000  C
  C544     1.0000 0.02171  0.28612  0.21388  Biso   1.000  C
  C545     1.0000 0.02361  0.26843  0.23157  Biso   1.000  C
  C546     1.0000 0.04514  0.25869  0.24131  Biso   1.000  C
  H411     1.0000 0.06030  0.26460  0.23540  Biso   1.000  H
  C547     1.0000 0.10942  0.82764  0.67236  Biso   1.000  C
  C548     1.0000 0.08641  0.81565  0.68435  Biso   1.000  C
  C549     1.0000 0.04521  0.79715  0.70285  Biso   1.000  C
  C550     1.0000 0.02171  0.78612  0.71388  Biso   1.000  C
  C551     1.0000 0.02361  0.76843  0.73157  Biso   1.000  C
  C552     1.0000 0.04514  0.75869  0.74131  Biso   1.000  C
  H412     1.0000 0.06030  0.76460  0.73540  Biso   1.000  H
  C553     1.0000 0.60942  0.67236  0.32764  Biso   1.000  C
  C554     1.0000 0.58641  0.68435  0.31565  Biso   1.000  C
  C555     1.0000 0.54521  0.70285  0.29715  Biso   1.000  C
  C556     1.0000 0.52171  0.71388  0.28612  Biso   1.000  C
  C557     1.0000 0.52361  0.73157  0.26843  Biso   1.000  C
  C558     1.0000 0.54514  0.74131  0.25869  Biso   1.000  C
  H413     1.0000 0.56030  0.73540  0.26460  Biso   1.000  H
  C559     1.0000 0.60942  0.17236  0.82764  Biso   1.000  C
  C560     1.0000 0.58641  0.18435  0.81565  Biso   1.000  C
  C561     1.0000 0.54521  0.20285  0.79715  Biso   1.000  C
  C562     1.0000 0.52171  0.21388  0.78612  Biso   1.000  C
  C563     1.0000 0.52361  0.23157  0.76843  Biso   1.000  C
  C564     1.0000 0.54514  0.24131  0.75869  Biso   1.000  C
  H414     1.0000 0.56030  0.23540  0.76460  Biso   1.000  H
  C565     1.0000 0.10942  0.67236  0.82764  Biso   1.000  C
  C566     1.0000 0.08641  0.68435  0.81565  Biso   1.000  C
  C567     1.0000 0.04521  0.70285  0.79715  Biso   1.000  C
  C568     1.0000 0.02171  0.71388  0.78612  Biso   1.000  C
  C569     1.0000 0.02361  0.73157  0.76843  Biso   1.000  C
  C570     1.0000 0.04514  0.74131  0.75869  Biso   1.000  C
  H415     1.0000 0.06030  0.73540  0.76460  Biso   1.000  H
  C571     1.0000 0.10942  0.17236  0.32764  Biso   1.000  C
  C572     1.0000 0.08641  0.18435  0.31565  Biso   1.000  C
  C573     1.0000 0.04521  0.20285  0.29715  Biso   1.000  C
  C574     1.0000 0.02171  0.21388  0.28612  Biso   1.000  C
  C575     1.0000 0.02361  0.23157  0.26843  Biso   1.000  C
  C576     1.0000 0.04514  0.24131  0.25869  Biso   1.000  C
  H416     1.0000 0.06030  0.23540  0.26460  Biso   1.000  H
  C577     1.0000 0.67236  0.39058  0.67236  Biso   1.000  C
  C578     1.0000 0.68435  0.41359  0.68435  Biso   1.000  C
  C579     1.0000 0.70285  0.45479  0.70285  Biso   1.000  C
  C580     1.0000 0.71388  0.47829  0.71388  Biso   1.000  C
  C581     1.0000 0.73157  0.47639  0.73157  Biso   1.000  C
  C582     1.0000 0.74131  0.45486  0.74131  Biso   1.000  C
  H417     1.0000 0.73540  0.43970  0.73540  Biso   1.000  H
  C583     1.0000 0.67236  0.89058  0.17236  Biso   1.000  C
  C584     1.0000 0.68435  0.91359  0.18435  Biso   1.000  C
  C585     1.0000 0.70285  0.95479  0.20285  Biso   1.000  C
  C586     1.0000 0.71388  0.97829  0.21388  Biso   1.000  C
  C587     1.0000 0.73157  0.97639  0.23157  Biso   1.000  C
  C588     1.0000 0.74131  0.95486  0.24131  Biso   1.000  C
  H418     1.0000 0.73540  0.93970  0.23540  Biso   1.000  H
  C589     1.0000 0.17236  0.39058  0.17236  Biso   1.000  C
  C590     1.0000 0.18435  0.41359  0.18435  Biso   1.000  C
  C591     1.0000 0.20285  0.45479  0.20285  Biso   1.000  C
  C592     1.0000 0.21388  0.47829  0.21388  Biso   1.000  C
  C593     1.0000 0.23157  0.47639  0.23157  Biso   1.000  C
  C594     1.0000 0.24131  0.45486  0.24131  Biso   1.000  C
  H419     1.0000 0.23540  0.43970  0.23540  Biso   1.000  H
  C595     1.0000 0.17236  0.89058  0.67236  Biso   1.000  C
  C596     1.0000 0.18435  0.91359  0.68435  Biso   1.000  C
  C597     1.0000 0.20285  0.95479  0.70285  Biso   1.000  C
  C598     1.0000 0.21388  0.97829  0.71388  Biso   1.000  C
  C599     1.0000 0.23157  0.97639  0.73157  Biso   1.000  C
  C600     1.0000 0.24131  0.95486  0.74131  Biso   1.000  C
  H420     1.0000 0.23540  0.93970  0.73540  Biso   1.000  H
  C601     1.0000 0.32764  0.39058  0.32764  Biso   1.000  C
  C602     1.0000 0.31565  0.41359  0.31565  Biso   1.000  C
  C603     1.0000 0.29715  0.45479  0.29715  Biso   1.000  C
  C604     1.0000 0.28612  0.47829  0.28612  Biso   1.000  C
  C605     1.0000 0.26843  0.47639  0.26843  Biso   1.000  C
  C606     1.0000 0.25869  0.45486  0.25869  Biso   1.000  C
  H421     1.0000 0.26460  0.43970  0.26460  Biso   1.000  H
  C607     1.0000 0.32764  0.89058  0.82764  Biso   1.000  C
  C608     1.0000 0.31565  0.91359  0.81565  Biso   1.000  C
  C609     1.0000 0.29715  0.95479  0.79715  Biso   1.000  C
  C610     1.0000 0.28612  0.97829  0.78612  Biso   1.000  C
  C611     1.0000 0.26843  0.97639  0.76843  Biso   1.000  C
  C612     1.0000 0.25869  0.95486  0.75869  Biso   1.000  C
  H422     1.0000 0.26460  0.93970  0.76460  Biso   1.000  H
  C613     1.0000 0.82764  0.39058  0.82764  Biso   1.000  C
  C614     1.0000 0.81565  0.41359  0.81565  Biso   1.000  C
  C615     1.0000 0.79715  0.45479  0.79715  Biso   1.000  C
  C616     1.0000 0.78612  0.47829  0.78612  Biso   1.000  C
  C617     1.0000 0.76843  0.47639  0.76843  Biso   1.000  C
  C618     1.0000 0.75869  0.45486  0.75869  Biso   1.000  C
  H423     1.0000 0.76460  0.43970  0.76460  Biso   1.000  H
  C619     1.0000 0.82764  0.89058  0.32764  Biso   1.000  C
  C620     1.0000 0.81565  0.91359  0.31565  Biso   1.000  C
  C621     1.0000 0.79715  0.95479  0.29715  Biso   1.000  C
  C622     1.0000 0.78612  0.97829  0.28612  Biso   1.000  C
  C623     1.0000 0.76843  0.97639  0.26843  Biso   1.000  C
  C624     1.0000 0.75869  0.95486  0.25869  Biso   1.000  C
  H424     1.0000 0.76460  0.93970  0.26460  Biso   1.000  H
  C625     1.0000 0.67236  0.60942  0.32764  Biso   1.000  C
  C626     1.0000 0.68435  0.58641  0.31565  Biso   1.000  C
  C627     1.0000 0.70285  0.54521  0.29715  Biso   1.000  C
  C628     1.0000 0.71388  0.52171  0.28612  Biso   1.000  C
  C629     1.0000 0.73157  0.52361  0.26843  Biso   1.000  C
  C630     1.0000 0.74131  0.54514  0.25869  Biso   1.000  C
  H425     1.0000 0.73540  0.56030  0.26460  Biso   1.000  H
  C631     1.0000 0.67236  0.10942  0.82764  Biso   1.000  C
  C632     1.0000 0.68435  0.08641  0.81565  Biso   1.000  C
  C633     1.0000 0.70285  0.04521  0.79715  Biso   1.000  C
  C634     1.0000 0.71388  0.02171  0.78612  Biso   1.000  C
  C635     1.0000 0.73157  0.02361  0.76843  Biso   1.000  C
  C636     1.0000 0.74131  0.04514  0.75869  Biso   1.000  C
  H426     1.0000 0.73540  0.06030  0.76460  Biso   1.000  H
  C637     1.0000 0.17236  0.60942  0.82764  Biso   1.000  C
  C638     1.0000 0.18435  0.58641  0.81565  Biso   1.000  C
  C639     1.0000 0.20285  0.54521  0.79715  Biso   1.000  C
  C640     1.0000 0.21388  0.52171  0.78612  Biso   1.000  C
  C641     1.0000 0.23157  0.52361  0.76843  Biso   1.000  C
  C642     1.0000 0.24131  0.54514  0.75869  Biso   1.000  C
  H427     1.0000 0.23540  0.56030  0.76460  Biso   1.000  H
  C643     1.0000 0.17236  0.10942  0.32764  Biso   1.000  C
  C644     1.0000 0.18435  0.08641  0.31565  Biso   1.000  C
  C645     1.0000 0.20285  0.04521  0.29715  Biso   1.000  C
  C646     1.0000 0.21388  0.02171  0.28612  Biso   1.000  C
  C647     1.0000 0.23157  0.02361  0.26843  Biso   1.000  C
  C648     1.0000 0.24131  0.04514  0.25869  Biso   1.000  C
  H428     1.0000 0.23540  0.06030  0.26460  Biso   1.000  H
  C649     1.0000 0.32764  0.60942  0.67236  Biso   1.000  C
  C650     1.0000 0.31565  0.58641  0.68435  Biso   1.000  C
  C651     1.0000 0.29715  0.54521  0.70285  Biso   1.000  C
  C652     1.0000 0.28612  0.52171  0.71388  Biso   1.000  C
  C653     1.0000 0.26843  0.52361  0.73157  Biso   1.000  C
  C654     1.0000 0.25869  0.54514  0.74131  Biso   1.000  C
  H429     1.0000 0.26460  0.56030  0.73540  Biso   1.000  H
  C655     1.0000 0.32764  0.10942  0.17236  Biso   1.000  C
  C656     1.0000 0.31565  0.08641  0.18435  Biso   1.000  C
  C657     1.0000 0.29715  0.04521  0.20285  Biso   1.000  C
  C658     1.0000 0.28612  0.02171  0.21388  Biso   1.000  C
  C659     1.0000 0.26843  0.02361  0.23157  Biso   1.000  C
  C660     1.0000 0.25869  0.04514  0.24131  Biso   1.000  C
  H430     1.0000 0.26460  0.06030  0.23540  Biso   1.000  H
  C661     1.0000 0.82764  0.60942  0.17236  Biso   1.000  C
  C662     1.0000 0.81565  0.58641  0.18435  Biso   1.000  C
  C663     1.0000 0.79715  0.54521  0.20285  Biso   1.000  C
  C664     1.0000 0.78612  0.52171  0.21388  Biso   1.000  C
  C665     1.0000 0.76843  0.52361  0.23157  Biso   1.000  C
  C666     1.0000 0.75869  0.54514  0.24131  Biso   1.000  C
  H431     1.0000 0.76460  0.56030  0.23540  Biso   1.000  H
  C667     1.0000 0.82764  0.10942  0.67236  Biso   1.000  C
  C668     1.0000 0.81565  0.08641  0.68435  Biso   1.000  C
  C669     1.0000 0.79715  0.04521  0.70285  Biso   1.000  C
  C670     1.0000 0.78612  0.02171  0.71388  Biso   1.000  C
  C671     1.0000 0.76843  0.02361  0.73157  Biso   1.000  C
  C672     1.0000 0.75869  0.04514  0.74131  Biso   1.000  C
  H432     1.0000 0.76460  0.06030  0.73540  Biso   1.000  H
  C673     1.0000 0.67236  0.67236  0.60942  Biso   1.000  C
  C674     1.0000 0.68435  0.68435  0.58641  Biso   1.000  C
  C675     1.0000 0.70285  0.70285  0.54521  Biso   1.000  C
  C676     1.0000 0.71388  0.71388  0.52171  Biso   1.000  C
  C677     1.0000 0.73157  0.73157  0.52361  Biso   1.000  C
  C678     1.0000 0.74131  0.74131  0.54514  Biso   1.000  C
  H433     1.0000 0.73540  0.73540  0.56030  Biso   1.000  H
  C679     1.0000 0.67236  0.17236  0.10942  Biso   1.000  C
  C680     1.0000 0.68435  0.18435  0.08641  Biso   1.000  C
  C681     1.0000 0.70285  0.20285  0.04521  Biso   1.000  C
  C682     1.0000 0.71388  0.21388  0.02171  Biso   1.000  C
  C683     1.0000 0.73157  0.23157  0.02361  Biso   1.000  C
  C684     1.0000 0.74131  0.24131  0.04514  Biso   1.000  C
  H434     1.0000 0.73540  0.23540  0.06030  Biso   1.000  H
  C685     1.0000 0.17236  0.67236  0.10942  Biso   1.000  C
  C686     1.0000 0.18435  0.68435  0.08641  Biso   1.000  C
  C687     1.0000 0.20285  0.70285  0.04521  Biso   1.000  C
  C688     1.0000 0.21388  0.71388  0.02171  Biso   1.000  C
  C689     1.0000 0.23157  0.73157  0.02361  Biso   1.000  C
  C690     1.0000 0.24131  0.74131  0.04514  Biso   1.000  C
  H435     1.0000 0.23540  0.73540  0.06030  Biso   1.000  H
  C691     1.0000 0.17236  0.17236  0.60942  Biso   1.000  C
  C692     1.0000 0.18435  0.18435  0.58641  Biso   1.000  C
  C693     1.0000 0.20285  0.20285  0.54521  Biso   1.000  C
  C694     1.0000 0.21388  0.21388  0.52171  Biso   1.000  C
  C695     1.0000 0.23157  0.23157  0.52361  Biso   1.000  C
  C696     1.0000 0.24131  0.24131  0.54514  Biso   1.000  C
  H436     1.0000 0.23540  0.23540  0.56030  Biso   1.000  H
  C697     1.0000 0.32764  0.32764  0.60942  Biso   1.000  C
  C698     1.0000 0.31565  0.31565  0.58641  Biso   1.000  C
  C699     1.0000 0.29715  0.29715  0.54521  Biso   1.000  C
  C700     1.0000 0.28612  0.28612  0.52171  Biso   1.000  C
  C701     1.0000 0.26843  0.26843  0.52361  Biso   1.000  C
  C702     1.0000 0.25869  0.25869  0.54514  Biso   1.000  C
  H437     1.0000 0.26460  0.26460  0.56030  Biso   1.000  H
  C703     1.0000 0.32764  0.82764  0.10942  Biso   1.000  C
  C704     1.0000 0.31565  0.81565  0.08641  Biso   1.000  C
  C705     1.0000 0.29715  0.79715  0.04521  Biso   1.000  C
  C706     1.0000 0.28612  0.78612  0.02171  Biso   1.000  C
  C707     1.0000 0.26843  0.76843  0.02361  Biso   1.000  C
  C708     1.0000 0.25869  0.75869  0.04514  Biso   1.000  C
  H438     1.0000 0.26460  0.76460  0.06030  Biso   1.000  H
  C709     1.0000 0.82764  0.32764  0.10942  Biso   1.000  C
  C710     1.0000 0.81565  0.31565  0.08641  Biso   1.000  C
  C711     1.0000 0.79715  0.29715  0.04521  Biso   1.000  C
  C712     1.0000 0.78612  0.28612  0.02171  Biso   1.000  C
  C713     1.0000 0.76843  0.26843  0.02361  Biso   1.000  C
  C714     1.0000 0.75869  0.25869  0.04514  Biso   1.000  C
  H439     1.0000 0.76460  0.26460  0.06030  Biso   1.000  H
  C715     1.0000 0.82764  0.82764  0.60942  Biso   1.000  C
  C716     1.0000 0.81565  0.81565  0.58641  Biso   1.000  C
  C717     1.0000 0.79715  0.79715  0.54521  Biso   1.000  C
  C718     1.0000 0.78612  0.78612  0.52171  Biso   1.000  C
  C719     1.0000 0.76843  0.76843  0.52361  Biso   1.000  C
  C720     1.0000 0.75869  0.75869  0.54514  Biso   1.000  C
  H440     1.0000 0.76460  0.76460  0.56030  Biso   1.000  H
  C721     1.0000 0.67236  0.32764  0.39058  Biso   1.000  C
  C722     1.0000 0.68435  0.31565  0.41359  Biso   1.000  C
  C723     1.0000 0.70285  0.29715  0.45479  Biso   1.000  C
  C724     1.0000 0.71388  0.28612  0.47829  Biso   1.000  C
  C725     1.0000 0.73157  0.26843  0.47639  Biso   1.000  C
  C726     1.0000 0.74131  0.25869  0.45486  Biso   1.000  C
  H441     1.0000 0.73540  0.26460  0.43970  Biso   1.000  H
  C727     1.0000 0.67236  0.82764  0.89058  Biso   1.000  C
  C728     1.0000 0.68435  0.81565  0.91359  Biso   1.000  C
  C729     1.0000 0.70285  0.79715  0.95479  Biso   1.000  C
  C730     1.0000 0.71388  0.78612  0.97829  Biso   1.000  C
  C731     1.0000 0.73157  0.76843  0.97639  Biso   1.000  C
  C732     1.0000 0.74131  0.75869  0.95486  Biso   1.000  C
  H442     1.0000 0.73540  0.76460  0.93970  Biso   1.000  H
  C733     1.0000 0.17236  0.32764  0.89058  Biso   1.000  C
  C734     1.0000 0.18435  0.31565  0.91359  Biso   1.000  C
  C735     1.0000 0.20285  0.29715  0.95479  Biso   1.000  C
  C736     1.0000 0.21388  0.28612  0.97829  Biso   1.000  C
  C737     1.0000 0.23157  0.26843  0.97639  Biso   1.000  C
  C738     1.0000 0.24131  0.25869  0.95486  Biso   1.000  C
  H443     1.0000 0.23540  0.26460  0.93970  Biso   1.000  H
  C739     1.0000 0.17236  0.82764  0.39058  Biso   1.000  C
  C740     1.0000 0.18435  0.81565  0.41359  Biso   1.000  C
  C741     1.0000 0.20285  0.79715  0.45479  Biso   1.000  C
  C742     1.0000 0.21388  0.78612  0.47829  Biso   1.000  C
  C743     1.0000 0.23157  0.76843  0.47639  Biso   1.000  C
  C744     1.0000 0.24131  0.75869  0.45486  Biso   1.000  C
  H444     1.0000 0.23540  0.76460  0.43970  Biso   1.000  H
  C745     1.0000 0.32764  0.67236  0.39058  Biso   1.000  C
  C746     1.0000 0.31565  0.68435  0.41359  Biso   1.000  C
  C747     1.0000 0.29715  0.70285  0.45479  Biso   1.000  C
  C748     1.0000 0.28612  0.71388  0.47829  Biso   1.000  C
  C749     1.0000 0.26843  0.73157  0.47639  Biso   1.000  C
  C750     1.0000 0.25869  0.74131  0.45486  Biso   1.000  C
  H445     1.0000 0.26460  0.73540  0.43970  Biso   1.000  H
  C751     1.0000 0.32764  0.17236  0.89058  Biso   1.000  C
  C752     1.0000 0.31565  0.18435  0.91359  Biso   1.000  C
  C753     1.0000 0.29715  0.20285  0.95479  Biso   1.000  C
  C754     1.0000 0.28612  0.21388  0.97829  Biso   1.000  C
  C755     1.0000 0.26843  0.23157  0.97639  Biso   1.000  C
  C756     1.0000 0.25869  0.24131  0.95486  Biso   1.000  C
  H446     1.0000 0.26460  0.23540  0.93970  Biso   1.000  H
  C757     1.0000 0.82764  0.67236  0.89058  Biso   1.000  C
  C758     1.0000 0.81565  0.68435  0.91359  Biso   1.000  C
  C759     1.0000 0.79715  0.70285  0.95479  Biso   1.000  C
  C760     1.0000 0.78612  0.71388  0.97829  Biso   1.000  C
  C761     1.0000 0.76843  0.73157  0.97639  Biso   1.000  C
  C762     1.0000 0.75869  0.74131  0.95486  Biso   1.000  C
  H447     1.0000 0.76460  0.73540  0.93970  Biso   1.000  H
  C763     1.0000 0.82764  0.17236  0.39058  Biso   1.000  C
  C764     1.0000 0.81565  0.18435  0.41359  Biso   1.000  C
  C765     1.0000 0.79715  0.20285  0.45479  Biso   1.000  C
  C766     1.0000 0.78612  0.21388  0.47829  Biso   1.000  C
  C767     1.0000 0.76843  0.23157  0.47639  Biso   1.000  C
  C768     1.0000 0.75869  0.24131  0.45486  Biso   1.000  C
  H448     1.0000 0.76460  0.23540  0.43970  Biso   1.000  H
  C769     1.0000 0.67236  0.39058  0.32764  Biso   1.000  C
  C770     1.0000 0.68435  0.41359  0.31565  Biso   1.000  C
  C771     1.0000 0.70285  0.45479  0.29715  Biso   1.000  C
  C772     1.0000 0.71388  0.47829  0.28612  Biso   1.000  C
  C773     1.0000 0.73157  0.47639  0.26843  Biso   1.000  C
  C774     1.0000 0.74131  0.45486  0.25869  Biso   1.000  C
  H449     1.0000 0.73540  0.43970  0.26460  Biso   1.000  H
  C775     1.0000 0.67236  0.89058  0.82764  Biso   1.000  C
  C776     1.0000 0.68435  0.91359  0.81565  Biso   1.000  C
  C777     1.0000 0.70285  0.95479  0.79715  Biso   1.000  C
  C778     1.0000 0.71388  0.97829  0.78612  Biso   1.000  C
  C779     1.0000 0.73157  0.97639  0.76843  Biso   1.000  C
  C780     1.0000 0.74131  0.95486  0.75869  Biso   1.000  C
  H450     1.0000 0.73540  0.93970  0.76460  Biso   1.000  H
  C781     1.0000 0.17236  0.39058  0.82764  Biso   1.000  C
  C782     1.0000 0.18435  0.41359  0.81565  Biso   1.000  C
  C783     1.0000 0.20285  0.45479  0.79715  Biso   1.000  C
  C784     1.0000 0.21388  0.47829  0.78612  Biso   1.000  C
  C785     1.0000 0.23157  0.47639  0.76843  Biso   1.000  C
  C786     1.0000 0.24131  0.45486  0.75869  Biso   1.000  C
  H451     1.0000 0.23540  0.43970  0.76460  Biso   1.000  H
  C787     1.0000 0.17236  0.89058  0.32764  Biso   1.000  C
  C788     1.0000 0.18435  0.91359  0.31565  Biso   1.000  C
  C789     1.0000 0.20285  0.95479  0.29715  Biso   1.000  C
  C790     1.0000 0.21388  0.97829  0.28612  Biso   1.000  C
  C791     1.0000 0.23157  0.97639  0.26843  Biso   1.000  C
  C792     1.0000 0.24131  0.95486  0.25869  Biso   1.000  C
  H452     1.0000 0.23540  0.93970  0.26460  Biso   1.000  H
  C793     1.0000 0.32764  0.39058  0.67236  Biso   1.000  C
  C794     1.0000 0.31565  0.41359  0.68435  Biso   1.000  C
  C795     1.0000 0.29715  0.45479  0.70285  Biso   1.000  C
  C796     1.0000 0.28612  0.47829  0.71388  Biso   1.000  C
  C797     1.0000 0.26843  0.47639  0.73157  Biso   1.000  C
  C798     1.0000 0.25869  0.45486  0.74131  Biso   1.000  C
  H453     1.0000 0.26460  0.43970  0.73540  Biso   1.000  H
  C799     1.0000 0.32764  0.89058  0.17236  Biso   1.000  C
  C800     1.0000 0.31565  0.91359  0.18435  Biso   1.000  C
  C801     1.0000 0.29715  0.95479  0.20285  Biso   1.000  C
  C802     1.0000 0.28612  0.97829  0.21388  Biso   1.000  C
  C803     1.0000 0.26843  0.97639  0.23157  Biso   1.000  C
  C804     1.0000 0.25869  0.95486  0.24131  Biso   1.000  C
  H454     1.0000 0.26460  0.93970  0.23540  Biso   1.000  H
  C805     1.0000 0.82764  0.39058  0.17236  Biso   1.000  C
  C806     1.0000 0.81565  0.41359  0.18435  Biso   1.000  C
  C807     1.0000 0.79715  0.45479  0.20285  Biso   1.000  C
  C808     1.0000 0.78612  0.47829  0.21388  Biso   1.000  C
  C809     1.0000 0.76843  0.47639  0.23157  Biso   1.000  C
  C810     1.0000 0.75869  0.45486  0.24131  Biso   1.000  C
  H455     1.0000 0.76460  0.43970  0.23540  Biso   1.000  H
  C811     1.0000 0.82764  0.89058  0.67236  Biso   1.000  C
  C812     1.0000 0.81565  0.91359  0.68435  Biso   1.000  C
  C813     1.0000 0.79715  0.95479  0.70285  Biso   1.000  C
  C814     1.0000 0.78612  0.97829  0.71388  Biso   1.000  C
  C815     1.0000 0.76843  0.97639  0.73157  Biso   1.000  C
  C816     1.0000 0.75869  0.95486  0.74131  Biso   1.000  C
  H456     1.0000 0.76460  0.93970  0.73540  Biso   1.000  H
  C817     1.0000 0.32764  0.60942  0.32764  Biso   1.000  C
  C818     1.0000 0.31565  0.58641  0.31565  Biso   1.000  C
  C819     1.0000 0.29715  0.54521  0.29715  Biso   1.000  C
  C820     1.0000 0.28612  0.52171  0.28612  Biso   1.000  C
  C821     1.0000 0.26843  0.52361  0.26843  Biso   1.000  C
  C822     1.0000 0.25869  0.54514  0.25869  Biso   1.000  C
  H457     1.0000 0.26460  0.56030  0.26460  Biso   1.000  H
  C823     1.0000 0.32764  0.10942  0.82764  Biso   1.000  C
  C824     1.0000 0.31565  0.08641  0.81565  Biso   1.000  C
  C825     1.0000 0.29715  0.04521  0.79715  Biso   1.000  C
  C826     1.0000 0.28612  0.02171  0.78612  Biso   1.000  C
  C827     1.0000 0.26843  0.02361  0.76843  Biso   1.000  C
  C828     1.0000 0.25869  0.04514  0.75869  Biso   1.000  C
  H458     1.0000 0.26460  0.06030  0.76460  Biso   1.000  H
  C829     1.0000 0.82764  0.60942  0.82764  Biso   1.000  C
  C830     1.0000 0.81565  0.58641  0.81565  Biso   1.000  C
  C831     1.0000 0.79715  0.54521  0.79715  Biso   1.000  C
  C832     1.0000 0.78612  0.52171  0.78612  Biso   1.000  C
  C833     1.0000 0.76843  0.52361  0.76843  Biso   1.000  C
  C834     1.0000 0.75869  0.54514  0.75869  Biso   1.000  C
  H459     1.0000 0.76460  0.56030  0.76460  Biso   1.000  H
  C835     1.0000 0.82764  0.10942  0.32764  Biso   1.000  C
  C836     1.0000 0.81565  0.08641  0.31565  Biso   1.000  C
  C837     1.0000 0.79715  0.04521  0.29715  Biso   1.000  C
  C838     1.0000 0.78612  0.02171  0.28612  Biso   1.000  C
  C839     1.0000 0.76843  0.02361  0.26843  Biso   1.000  C
  C840     1.0000 0.75869  0.04514  0.25869  Biso   1.000  C
  H460     1.0000 0.76460  0.06030  0.26460  Biso   1.000  H
  C841     1.0000 0.67236  0.60942  0.67236  Biso   1.000  C
  C842     1.0000 0.68435  0.58641  0.68435  Biso   1.000  C
  C843     1.0000 0.70285  0.54521  0.70285  Biso   1.000  C
  C844     1.0000 0.71388  0.52171  0.71388  Biso   1.000  C
  C845     1.0000 0.73157  0.52361  0.73157  Biso   1.000  C
  C846     1.0000 0.74131  0.54514  0.74131  Biso   1.000  C
  H461     1.0000 0.73540  0.56030  0.73540  Biso   1.000  H
  C847     1.0000 0.67236  0.10942  0.17236  Biso   1.000  C
  C848     1.0000 0.68435  0.08641  0.18435  Biso   1.000  C
  C849     1.0000 0.70285  0.04521  0.20285  Biso   1.000  C
  C850     1.0000 0.71388  0.02171  0.21388  Biso   1.000  C
  C851     1.0000 0.73157  0.02361  0.23157  Biso   1.000  C
  C852     1.0000 0.74131  0.04514  0.24131  Biso   1.000  C
  H462     1.0000 0.73540  0.06030  0.23540  Biso   1.000  H
  C853     1.0000 0.17236  0.60942  0.17236  Biso   1.000  C
  C854     1.0000 0.18435  0.58641  0.18435  Biso   1.000  C
  C855     1.0000 0.20285  0.54521  0.20285  Biso   1.000  C
  C856     1.0000 0.21388  0.52171  0.21388  Biso   1.000  C
  C857     1.0000 0.23157  0.52361  0.23157  Biso   1.000  C
  C858     1.0000 0.24131  0.54514  0.24131  Biso   1.000  C
  H463     1.0000 0.23540  0.56030  0.23540  Biso   1.000  H
  C859     1.0000 0.17236  0.10942  0.67236  Biso   1.000  C
  C860     1.0000 0.18435  0.08641  0.68435  Biso   1.000  C
  C861     1.0000 0.20285  0.04521  0.70285  Biso   1.000  C
  C862     1.0000 0.21388  0.02171  0.71388  Biso   1.000  C
  C863     1.0000 0.23157  0.02361  0.73157  Biso   1.000  C
  C864     1.0000 0.24131  0.04514  0.74131  Biso   1.000  C
  H464     1.0000 0.23540  0.06030  0.73540  Biso   1.000  H
  C865     1.0000 0.39058  0.67236  0.32764  Biso   1.000  C
  C866     1.0000 0.41359  0.68435  0.31565  Biso   1.000  C
  C867     1.0000 0.45479  0.70285  0.29715  Biso   1.000  C
  C868     1.0000 0.47829  0.71388  0.28612  Biso   1.000  C
  C869     1.0000 0.47639  0.73157  0.26843  Biso   1.000  C
  C870     1.0000 0.45486  0.74131  0.25869  Biso   1.000  C
  H465     1.0000 0.43970  0.73540  0.26460  Biso   1.000  H
  C871     1.0000 0.39058  0.17236  0.82764  Biso   1.000  C
  C872     1.0000 0.41359  0.18435  0.81565  Biso   1.000  C
  C873     1.0000 0.45479  0.20285  0.79715  Biso   1.000  C
  C874     1.0000 0.47829  0.21388  0.78612  Biso   1.000  C
  C875     1.0000 0.47639  0.23157  0.76843  Biso   1.000  C
  C876     1.0000 0.45486  0.24131  0.75869  Biso   1.000  C
  H466     1.0000 0.43970  0.23540  0.76460  Biso   1.000  H
  C877     1.0000 0.89058  0.67236  0.82764  Biso   1.000  C
  C878     1.0000 0.91359  0.68435  0.81565  Biso   1.000  C
  C879     1.0000 0.95479  0.70285  0.79715  Biso   1.000  C
  C880     1.0000 0.97829  0.71388  0.78612  Biso   1.000  C
  C881     1.0000 0.97639  0.73157  0.76843  Biso   1.000  C
  C882     1.0000 0.95486  0.74131  0.75869  Biso   1.000  C
  H467     1.0000 0.93970  0.73540  0.76460  Biso   1.000  H
  C883     1.0000 0.89058  0.17236  0.32764  Biso   1.000  C
  C884     1.0000 0.91359  0.18435  0.31565  Biso   1.000  C
  C885     1.0000 0.95479  0.20285  0.29715  Biso   1.000  C
  C886     1.0000 0.97829  0.21388  0.28612  Biso   1.000  C
  C887     1.0000 0.97639  0.23157  0.26843  Biso   1.000  C
  C888     1.0000 0.95486  0.24131  0.25869  Biso   1.000  C
  H468     1.0000 0.93970  0.23540  0.26460  Biso   1.000  H
  C889     1.0000 0.39058  0.32764  0.67236  Biso   1.000  C
  C890     1.0000 0.41359  0.31565  0.68435  Biso   1.000  C
  C891     1.0000 0.45479  0.29715  0.70285  Biso   1.000  C
  C892     1.0000 0.47829  0.28612  0.71388  Biso   1.000  C
  C893     1.0000 0.47639  0.26843  0.73157  Biso   1.000  C
  C894     1.0000 0.45486  0.25869  0.74131  Biso   1.000  C
  H469     1.0000 0.43970  0.26460  0.73540  Biso   1.000  H
  C895     1.0000 0.39058  0.82764  0.17236  Biso   1.000  C
  C896     1.0000 0.41359  0.81565  0.18435  Biso   1.000  C
  C897     1.0000 0.45479  0.79715  0.20285  Biso   1.000  C
  C898     1.0000 0.47829  0.78612  0.21388  Biso   1.000  C
  C899     1.0000 0.47639  0.76843  0.23157  Biso   1.000  C
  C900     1.0000 0.45486  0.75869  0.24131  Biso   1.000  C
  H470     1.0000 0.43970  0.76460  0.23540  Biso   1.000  H
  C901     1.0000 0.89058  0.32764  0.17236  Biso   1.000  C
  C902     1.0000 0.91359  0.31565  0.18435  Biso   1.000  C
  C903     1.0000 0.95479  0.29715  0.20285  Biso   1.000  C
  C904     1.0000 0.97829  0.28612  0.21388  Biso   1.000  C
  C905     1.0000 0.97639  0.26843  0.23157  Biso   1.000  C
  C906     1.0000 0.95486  0.25869  0.24131  Biso   1.000  C
  H471     1.0000 0.93970  0.26460  0.23540  Biso   1.000  H
  C907     1.0000 0.89058  0.82764  0.67236  Biso   1.000  C
  C908     1.0000 0.91359  0.81565  0.68435  Biso   1.000  C
  C909     1.0000 0.95479  0.79715  0.70285  Biso   1.000  C
  C910     1.0000 0.97829  0.78612  0.71388  Biso   1.000  C
  C911     1.0000 0.97639  0.76843  0.73157  Biso   1.000  C
  C912     1.0000 0.95486  0.75869  0.74131  Biso   1.000  C
  H472     1.0000 0.93970  0.76460  0.73540  Biso   1.000  H
  C913     1.0000 0.60942  0.67236  0.67236  Biso   1.000  C
  C914     1.0000 0.58641  0.68435  0.68435  Biso   1.000  C
  C915     1.0000 0.54521  0.70285  0.70285  Biso   1.000  C
  C916     1.0000 0.52171  0.71388  0.71388  Biso   1.000  C
  C917     1.0000 0.52361  0.73157  0.73157  Biso   1.000  C
  C918     1.0000 0.54514  0.74131  0.74131  Biso   1.000  C
  H473     1.0000 0.56030  0.73540  0.73540  Biso   1.000  H
  C919     1.0000 0.60942  0.17236  0.17236  Biso   1.000  C
  C920     1.0000 0.58641  0.18435  0.18435  Biso   1.000  C
  C921     1.0000 0.54521  0.20285  0.20285  Biso   1.000  C
  C922     1.0000 0.52171  0.21388  0.21388  Biso   1.000  C
  C923     1.0000 0.52361  0.23157  0.23157  Biso   1.000  C
  C924     1.0000 0.54514  0.24131  0.24131  Biso   1.000  C
  H474     1.0000 0.56030  0.23540  0.23540  Biso   1.000  H
  C925     1.0000 0.10942  0.67236  0.17236  Biso   1.000  C
  C926     1.0000 0.08641  0.68435  0.18435  Biso   1.000  C
  C927     1.0000 0.04521  0.70285  0.20285  Biso   1.000  C
  C928     1.0000 0.02171  0.71388  0.21388  Biso   1.000  C
  C929     1.0000 0.02361  0.73157  0.23157  Biso   1.000  C
  C930     1.0000 0.04514  0.74131  0.24131  Biso   1.000  C
  H475     1.0000 0.06030  0.73540  0.23540  Biso   1.000  H
  C931     1.0000 0.10942  0.17236  0.67236  Biso   1.000  C
  C932     1.0000 0.08641  0.18435  0.68435  Biso   1.000  C
  C933     1.0000 0.04521  0.20285  0.70285  Biso   1.000  C
  C934     1.0000 0.02171  0.21388  0.71388  Biso   1.000  C
  C935     1.0000 0.02361  0.23157  0.73157  Biso   1.000  C
  C936     1.0000 0.04514  0.24131  0.74131  Biso   1.000  C
  H476     1.0000 0.06030  0.23540  0.73540  Biso   1.000  H
  C937     1.0000 0.60942  0.32764  0.32764  Biso   1.000  C
  C938     1.0000 0.58641  0.31565  0.31565  Biso   1.000  C
  C939     1.0000 0.54521  0.29715  0.29715  Biso   1.000  C
  C940     1.0000 0.52171  0.28612  0.28612  Biso   1.000  C
  C941     1.0000 0.52361  0.26843  0.26843  Biso   1.000  C
  C942     1.0000 0.54514  0.25869  0.25869  Biso   1.000  C
  H477     1.0000 0.56030  0.26460  0.26460  Biso   1.000  H
  C943     1.0000 0.60942  0.82764  0.82764  Biso   1.000  C
  C944     1.0000 0.58641  0.81565  0.81565  Biso   1.000  C
  C945     1.0000 0.54521  0.79715  0.79715  Biso   1.000  C
  C946     1.0000 0.52171  0.78612  0.78612  Biso   1.000  C
  C947     1.0000 0.52361  0.76843  0.76843  Biso   1.000  C
  C948     1.0000 0.54514  0.75869  0.75869  Biso   1.000  C
  H478     1.0000 0.56030  0.76460  0.76460  Biso   1.000  H
  C949     1.0000 0.10942  0.32764  0.82764  Biso   1.000  C
  C950     1.0000 0.08641  0.31565  0.81565  Biso   1.000  C
  C951     1.0000 0.04521  0.29715  0.79715  Biso   1.000  C
  C952     1.0000 0.02171  0.28612  0.78612  Biso   1.000  C
  C953     1.0000 0.02361  0.26843  0.76843  Biso   1.000  C
  C954     1.0000 0.04514  0.25869  0.75869  Biso   1.000  C
  H479     1.0000 0.06030  0.26460  0.76460  Biso   1.000  H
  C955     1.0000 0.10942  0.82764  0.32764  Biso   1.000  C
  C956     1.0000 0.08641  0.81565  0.31565  Biso   1.000  C
  C957     1.0000 0.04521  0.79715  0.29715  Biso   1.000  C
  C958     1.0000 0.02171  0.78612  0.28612  Biso   1.000  C
  C959     1.0000 0.02361  0.76843  0.26843  Biso   1.000  C
  C960     1.0000 0.04514  0.75869  0.25869  Biso   1.000  C
  H480     1.0000 0.06030  0.76460  0.26460  Biso   1.000  H
  C961     1.0000 0.70550  0.70550  0.50000  Biso   1.000  C
  H481     1.0000 0.69330  0.69330  0.50000  Biso   1.000  H
  C962     1.0000 0.74074  0.74074  0.50000  Biso   1.000  C
  C963     1.0000 0.70550  0.20550  0.00000  Biso   1.000  C
  H482     1.0000 0.69330  0.19330  0.00000  Biso   1.000  H
  C964     1.0000 0.74074  0.24074  0.00000  Biso   1.000  C
  C965     1.0000 0.20550  0.70550  0.00000  Biso   1.000  C
  H483     1.0000 0.19330  0.69330  0.00000  Biso   1.000  H
  C966     1.0000 0.24074  0.74074  0.00000  Biso   1.000  C
  C967     1.0000 0.20550  0.20550  0.50000  Biso   1.000  C
  H484     1.0000 0.19330  0.19330  0.50000  Biso   1.000  H
  C968     1.0000 0.24074  0.24074  0.50000  Biso   1.000  C
  C969     1.0000 0.29450  0.29450  0.50000  Biso   1.000  C
  H485     1.0000 0.30670  0.30670  0.50000  Biso   1.000  H
  C970     1.0000 0.25926  0.25926  0.50000  Biso   1.000  C
  C971     1.0000 0.29450  0.79450  0.00000  Biso   1.000  C
  H486     1.0000 0.30670  0.80670  0.00000  Biso   1.000  H
  C972     1.0000 0.25926  0.75926  0.00000  Biso   1.000  C
  C973     1.0000 0.79450  0.29450  0.00000  Biso   1.000  C
  H487     1.0000 0.80670  0.30670  0.00000  Biso   1.000  H
  C974     1.0000 0.75926  0.25926  0.00000  Biso   1.000  C
  C975     1.0000 0.79450  0.79450  0.50000  Biso   1.000  C
  H488     1.0000 0.80670  0.80670  0.50000  Biso   1.000  H
  C976     1.0000 0.75926  0.75926  0.50000  Biso   1.000  C
  C977     1.0000 0.29450  0.70550  0.50000  Biso   1.000  C
  H489     1.0000 0.30670  0.69330  0.50000  Biso   1.000  H
  C978     1.0000 0.25926  0.74074  0.50000  Biso   1.000  C
  C979     1.0000 0.29450  0.20550  0.00000  Biso   1.000  C
  H490     1.0000 0.30670  0.19330  0.00000  Biso   1.000  H
  C980     1.0000 0.25926  0.24074  0.00000  Biso   1.000  C
  C981     1.0000 0.79450  0.70550  0.00000  Biso   1.000  C
  H491     1.0000 0.80670  0.69330  0.00000  Biso   1.000  H
  C982     1.0000 0.75926  0.74074  0.00000  Biso   1.000  C
  C983     1.0000 0.79450  0.20550  0.50000  Biso   1.000  C
  H492     1.0000 0.80670  0.19330  0.50000  Biso   1.000  H
  C984     1.0000 0.75926  0.24074  0.50000  Biso   1.000  C
  C985     1.0000 0.70550  0.29450  0.50000  Biso   1.000  C
  H493     1.0000 0.69330  0.30670  0.50000  Biso   1.000  H
  C986     1.0000 0.74074  0.25926  0.50000  Biso   1.000  C
  C987     1.0000 0.70550  0.79450  0.00000  Biso   1.000  C
  H494     1.0000 0.69330  0.80670  0.00000  Biso   1.000  H
  C988     1.0000 0.74074  0.75926  0.00000  Biso   1.000  C
  C989     1.0000 0.20550  0.29450  0.00000  Biso   1.000  C
  H495     1.0000 0.19330  0.30670  0.00000  Biso   1.000  H
  C990     1.0000 0.24074  0.25926  0.00000  Biso   1.000  C
  C991     1.0000 0.20550  0.79450  0.50000  Biso   1.000  C
  H496     1.0000 0.19330  0.80670  0.50000  Biso   1.000  H
  C992     1.0000 0.24074  0.75926  0.50000  Biso   1.000  C
  C993     1.0000 0.50000  0.70550  0.70550  Biso   1.000  C
  H497     1.0000 0.50000  0.69330  0.69330  Biso   1.000  H
  C994     1.0000 0.50000  0.74074  0.74074  Biso   1.000  C
  C995     1.0000 0.50000  0.20550  0.20550  Biso   1.000  C
  H498     1.0000 0.50000  0.19330  0.19330  Biso   1.000  H
  C996     1.0000 0.50000  0.24074  0.24074  Biso   1.000  C
  C997     1.0000 0.00000  0.70550  0.20550  Biso   1.000  C
  H499     1.0000 0.00000  0.69330  0.19330  Biso   1.000  H
  C998     1.0000 0.00000  0.74074  0.24074  Biso   1.000  C
  C999     1.0000 0.00000  0.20550  0.70550  Biso   1.000  C
  H500     1.0000 0.00000  0.19330  0.69330  Biso   1.000  H
  C1000    1.0000 0.00000  0.24074  0.74074  Biso   1.000  C
  C1001    1.0000 0.50000  0.29450  0.29450  Biso   1.000  C
  H501     1.0000 0.50000  0.30670  0.30670  Biso   1.000  H
  C1002    1.0000 0.50000  0.25926  0.25926  Biso   1.000  C
  C1003    1.0000 0.50000  0.79450  0.79450  Biso   1.000  C
  H502     1.0000 0.50000  0.80670  0.80670  Biso   1.000  H
  C1004    1.0000 0.50000  0.75926  0.75926  Biso   1.000  C
  C1005    1.0000 0.00000  0.29450  0.79450  Biso   1.000  C
  H503     1.0000 0.00000  0.30670  0.80670  Biso   1.000  H
  C1006    1.0000 0.00000  0.25926  0.75926  Biso   1.000  C
  C1007    1.0000 0.00000  0.79450  0.29450  Biso   1.000  C
  H504     1.0000 0.00000  0.80670  0.30670  Biso   1.000  H
  C1008    1.0000 0.00000  0.75926  0.25926  Biso   1.000  C
  C1009    1.0000 0.50000  0.29450  0.70550  Biso   1.000  C
  H505     1.0000 0.50000  0.30670  0.69330  Biso   1.000  H
  C1010    1.0000 0.50000  0.25926  0.74074  Biso   1.000  C
  C1011    1.0000 0.50000  0.79450  0.20550  Biso   1.000  C
  H506     1.0000 0.50000  0.80670  0.19330  Biso   1.000  H
  C1012    1.0000 0.50000  0.75926  0.24074  Biso   1.000  C
  C1013    1.0000 0.00000  0.29450  0.20550  Biso   1.000  C
  H507     1.0000 0.00000  0.30670  0.19330  Biso   1.000  H
  C1014    1.0000 0.00000  0.25926  0.24074  Biso   1.000  C
  C1015    1.0000 0.00000  0.79450  0.70550  Biso   1.000  C
  H508     1.0000 0.00000  0.80670  0.69330  Biso   1.000  H
  C1016    1.0000 0.00000  0.75926  0.74074  Biso   1.000  C
  C1017    1.0000 0.50000  0.70550  0.29450  Biso   1.000  C
  H509     1.0000 0.50000  0.69330  0.30670  Biso   1.000  H
  C1018    1.0000 0.50000  0.74074  0.25926  Biso   1.000  C
  C1019    1.0000 0.50000  0.20550  0.79450  Biso   1.000  C
  H510     1.0000 0.50000  0.19330  0.80670  Biso   1.000  H
  C1020    1.0000 0.50000  0.24074  0.75926  Biso   1.000  C
  C1021    1.0000 0.00000  0.70550  0.79450  Biso   1.000  C
  H511     1.0000 0.00000  0.69330  0.80670  Biso   1.000  H
  C1022    1.0000 0.00000  0.74074  0.75926  Biso   1.000  C
  C1023    1.0000 0.00000  0.20550  0.29450  Biso   1.000  C
  H512     1.0000 0.00000  0.19330  0.30670  Biso   1.000  H
  C1024    1.0000 0.00000  0.24074  0.25926  Biso   1.000  C
  C1025    1.0000 0.70550  0.50000  0.70550  Biso   1.000  C
  H513     1.0000 0.69330  0.50000  0.69330  Biso   1.000  H
  C1026    1.0000 0.74074  0.50000  0.74074  Biso   1.000  C
  C1027    1.0000 0.70550  0.00000  0.20550  Biso   1.000  C
  H514     1.0000 0.69330  0.00000  0.19330  Biso   1.000  H
  C1028    1.0000 0.74074  0.00000  0.24074  Biso   1.000  C
  C1029    1.0000 0.20550  0.50000  0.20550  Biso   1.000  C
  H515     1.0000 0.19330  0.50000  0.19330  Biso   1.000  H
  C1030    1.0000 0.24074  0.50000  0.24074  Biso   1.000  C
  C1031    1.0000 0.20550  0.00000  0.70550  Biso   1.000  C
  H516     1.0000 0.19330  0.00000  0.69330  Biso   1.000  H
  C1032    1.0000 0.24074  0.00000  0.74074  Biso   1.000  C
  C1033    1.0000 0.29450  0.50000  0.29450  Biso   1.000  C
  H517     1.0000 0.30670  0.50000  0.30670  Biso   1.000  H
  C1034    1.0000 0.25926  0.50000  0.25926  Biso   1.000  C
  C1035    1.0000 0.29450  0.00000  0.79450  Biso   1.000  C
  H518     1.0000 0.30670  0.00000  0.80670  Biso   1.000  H
  C1036    1.0000 0.25926  0.00000  0.75926  Biso   1.000  C
  C1037    1.0000 0.79450  0.50000  0.79450  Biso   1.000  C
  H519     1.0000 0.80670  0.50000  0.80670  Biso   1.000  H
  C1038    1.0000 0.75926  0.50000  0.75926  Biso   1.000  C
  C1039    1.0000 0.79450  0.00000  0.29450  Biso   1.000  C
  H520     1.0000 0.80670  0.00000  0.30670  Biso   1.000  H
  C1040    1.0000 0.75926  0.00000  0.25926  Biso   1.000  C
  C1041    1.0000 0.70550  0.50000  0.29450  Biso   1.000  C
  H521     1.0000 0.69330  0.50000  0.30670  Biso   1.000  H
  C1042    1.0000 0.74074  0.50000  0.25926  Biso   1.000  C
  C1043    1.0000 0.70550  0.00000  0.79450  Biso   1.000  C
  H522     1.0000 0.69330  0.00000  0.80670  Biso   1.000  H
  C1044    1.0000 0.74074  0.00000  0.75926  Biso   1.000  C
  C1045    1.0000 0.20550  0.50000  0.79450  Biso   1.000  C
  H523     1.0000 0.19330  0.50000  0.80670  Biso   1.000  H
  C1046    1.0000 0.24074  0.50000  0.75926  Biso   1.000  C
  C1047    1.0000 0.20550  0.00000  0.29450  Biso   1.000  C
  H524     1.0000 0.19330  0.00000  0.30670  Biso   1.000  H
  C1048    1.0000 0.24074  0.00000  0.25926  Biso   1.000  C
  C1049    1.0000 0.29450  0.50000  0.70550  Biso   1.000  C
  H525     1.0000 0.30670  0.50000  0.69330  Biso   1.000  H
  C1050    1.0000 0.25926  0.50000  0.74074  Biso   1.000  C
  C1051    1.0000 0.29450  0.00000  0.20550  Biso   1.000  C
  H526     1.0000 0.30670  0.00000  0.19330  Biso   1.000  H
  C1052    1.0000 0.25926  0.00000  0.24074  Biso   1.000  C
  C1053    1.0000 0.79450  0.50000  0.20550  Biso   1.000  C
  H527     1.0000 0.80670  0.50000  0.19330  Biso   1.000  H
  C1054    1.0000 0.75926  0.50000  0.24074  Biso   1.000  C
  C1055    1.0000 0.79450  0.00000  0.70550  Biso   1.000  C
  H528     1.0000 0.80670  0.00000  0.69330  Biso   1.000  H
  C1056    1.0000 0.75926  0.00000  0.74074  Biso   1.000  C
  U1       1.0000 0.65150  0.65150  0.34850  Biso   1.000  U
  U2       1.0000 0.65150  0.15150  0.84850  Biso   1.000  U
  U3       1.0000 0.15150  0.65150  0.84850  Biso   1.000  U
  U4       1.0000 0.15150  0.15150  0.34850  Biso   1.000  U
  U5       1.0000 0.34850  0.34850  0.34850  Biso   1.000  U
  U6       1.0000 0.34850  0.84850  0.84850  Biso   1.000  U
  U7       1.0000 0.84850  0.34850  0.84850  Biso   1.000  U
  U8       1.0000 0.84850  0.84850  0.34850  Biso   1.000  U
  U9       1.0000 0.34850  0.65150  0.65150  Biso   1.000  U
  U10      1.0000 0.34850  0.15150  0.15150  Biso   1.000  U
  U11      1.0000 0.84850  0.65150  0.15150  Biso   1.000  U
  U12      1.0000 0.84850  0.15150  0.65150  Biso   1.000  U
  U13      1.0000 0.65150  0.34850  0.65150  Biso   1.000  U
  U14      1.0000 0.65150  0.84850  0.15150  Biso   1.000  U
  U15      1.0000 0.15150  0.34850  0.15150  Biso   1.000  U
  U16      1.0000 0.15150  0.84850  0.65150  Biso   1.000  U
  U17      1.0000 0.65150  0.65150  0.65150  Biso   1.000  U
  U18      1.0000 0.65150  0.15150  0.15150  Biso   1.000  U
  U19      1.0000 0.15150  0.65150  0.15150  Biso   1.000  U
  U20      1.0000 0.15150  0.15150  0.65150  Biso   1.000  U
  U21      1.0000 0.34850  0.34850  0.65150  Biso   1.000  U
  U22      1.0000 0.34850  0.84850  0.15150  Biso   1.000  U
  U23      1.0000 0.84850  0.34850  0.15150  Biso   1.000  U
  U24      1.0000 0.84850  0.84850  0.65150  Biso   1.000  U
  U25      1.0000 0.65150  0.34850  0.34850  Biso   1.000  U
  U26      1.0000 0.65150  0.84850  0.84850  Biso   1.000  U
  U27      1.0000 0.15150  0.34850  0.84850  Biso   1.000  U
  U28      1.0000 0.15150  0.84850  0.34850  Biso   1.000  U
  U29      1.0000 0.34850  0.65150  0.34850  Biso   1.000  U
  U30      1.0000 0.34850  0.15150  0.84850  Biso   1.000  U
  U31      1.0000 0.84850  0.65150  0.84850  Biso   1.000  U
  U32      1.0000 0.84850  0.15150  0.34850  Biso   1.000  U
