data_image0
_cell_length_a       27.6765
_cell_length_b       27.6765
_cell_length_c       17.9353
_cell_angle_alpha    90
_cell_angle_beta     90
_cell_angle_gamma    120

_symmetry_space_group_name_H-M    "P 1"
_symmetry_int_tables_number       1

loop_
  _symmetry_equiv_pos_as_xyz
  'x, y, z'

loop_
  _atom_site_label
  _atom_site_occupancy
  _atom_site_fract_x
  _atom_site_fract_y
  _atom_site_fract_z
  _atom_site_thermal_displace_type
  _atom_site_B_iso_or_equiv
  _atom_site_type_symbol
  C1       1.0000 0.27579  0.06533  0.55769  Biso   1.000  C
  C2       1.0000 0.26439  0.09371  0.62074  Biso   1.000  C
  C3       1.0000 0.26938  0.14578  0.60950  Biso   1.000  C
  H1       1.0000 0.27640  0.16180  0.56110  Biso   1.000  H
  C4       1.0000 0.26393  0.17398  0.66976  Biso   1.000  C
  C5       1.0000 0.27352  0.23182  0.66009  Biso   1.000  C
  C6       1.0000 0.25165  0.15012  0.74115  Biso   1.000  C
  H2       1.0000 0.24910  0.17010  0.78250  Biso   1.000  H
  C7       1.0000 0.24335  0.09667  0.75021  Biso   1.000  C
  C8       1.0000 0.25110  0.06897  0.69070  Biso   1.000  C
  H3       1.0000 0.24730  0.03320  0.69790  Biso   1.000  H
  C9       1.0000 0.21713  0.09308  0.87946  Biso   1.000  C
  H4       1.0000 0.19080  0.10590  0.86500  Biso   1.000  H
  H5       1.0000 0.25200  0.12560  0.89780  Biso   1.000  H
  C10      1.0000 0.19166  0.04859  0.93927  Biso   1.000  C
  H6       1.0000 0.15600  0.01780  0.92150  Biso   1.000  H
  H7       1.0000 0.18530  0.06460  0.98440  Biso   1.000  H
  H8       1.0000 0.21710  0.03460  0.95060  Biso   1.000  H
  C11      1.0000 0.35955  0.11554  0.28113  Biso   1.000  C
  C12      1.0000 0.38036  0.16982  0.24068  Biso   1.000  C
  C13      1.0000 0.36560  0.20794  0.26581  Biso   1.000  C
  H9       1.0000 0.34360  0.20050  0.30950  Biso   1.000  H
  C14      1.0000 0.38338  0.25731  0.22628  Biso   1.000  C
  C15      1.0000 0.36748  0.29902  0.25166  Biso   1.000  C
  C16      1.0000 0.41571  0.26831  0.16256  Biso   1.000  C
  H10      1.0000 0.42840  0.30240  0.13650  Biso   1.000  H
  C17      1.0000 0.42943  0.22908  0.13697  Biso   1.000  C
  C18      1.0000 0.41272  0.18023  0.17652  Biso   1.000  C
  H11      1.0000 0.42320  0.15410  0.16020  Biso   1.000  H
  C19      1.0000 0.46354  0.19891  0.03425  Biso   1.000  C
  H12      1.0000 0.42690  0.16410  0.03290  Biso   1.000  H
  H13      1.0000 0.49050  0.19140  0.06080  Biso   1.000  H
  C20      1.0000 0.48374  0.21916  0.95601  Biso   1.000  C
  H14      1.0000 0.45680  0.22650  0.93040  Biso   1.000  H
  H15      1.0000 0.48750  0.19060  0.92870  Biso   1.000  H
  H16      1.0000 0.52000  0.25360  0.95820  Biso   1.000  H
  O1       1.0000 0.28953  0.09053  0.49587  Biso   1.000  O
  O2       1.0000 0.27122  0.01830  0.56895  Biso   1.000  O
  O3       1.0000 0.26934  0.24686  0.59422  Biso   1.000  O
  O4       1.0000 0.28498  0.26229  0.71637  Biso   1.000  O
  O5       1.0000 0.22861  0.06776  0.81658  Biso   1.000  O
  O6       1.0000 0.33064  0.10838  0.33869  Biso   1.000  O
  O7       1.0000 0.37261  0.08134  0.25468  Biso   1.000  O
  O8       1.0000 0.33273  0.28510  0.30461  Biso   1.000  O
  O9       1.0000 0.38930  0.34509  0.21800  Biso   1.000  O
  O10      1.0000 0.45871  0.24247  0.07138  Biso   1.000  O
  Zn1      1.0000 0.33315  0.32255  0.39895  Biso   1.000  Zn
  Zn2      1.0000 0.30908  0.05395  0.41812  Biso   1.000  Zn
  C21      1.0000 0.94246  0.39866  0.89102  Biso   1.000  C
  C22      1.0000 0.93106  0.42704  0.95407  Biso   1.000  C
  C23      1.0000 0.93605  0.47911  0.94283  Biso   1.000  C
  H17      1.0000 0.94307  0.49513  0.89443  Biso   1.000  H
  C24      1.0000 0.93060  0.50731  0.00309  Biso   1.000  C
  C25      1.0000 0.94019  0.56515  0.99342  Biso   1.000  C
  C26      1.0000 0.91832  0.48345  0.07448  Biso   1.000  C
  H18      1.0000 0.91577  0.50343  0.11583  Biso   1.000  H
  C27      1.0000 0.91002  0.43000  0.08354  Biso   1.000  C
  C28      1.0000 0.91777  0.40230  0.02403  Biso   1.000  C
  H19      1.0000 0.91397  0.36653  0.03123  Biso   1.000  H
  C29      1.0000 0.88380  0.42641  0.21279  Biso   1.000  C
  H20      1.0000 0.85747  0.43923  0.19833  Biso   1.000  H
  H21      1.0000 0.91867  0.45893  0.23113  Biso   1.000  H
  C30      1.0000 0.85833  0.38192  0.27260  Biso   1.000  C
  H22      1.0000 0.82267  0.35113  0.25483  Biso   1.000  H
  H23      1.0000 0.85197  0.39793  0.31773  Biso   1.000  H
  H24      1.0000 0.88377  0.36793  0.28393  Biso   1.000  H
  C31      1.0000 0.02622  0.44887  0.61446  Biso   1.000  C
  C32      1.0000 0.04703  0.50315  0.57401  Biso   1.000  C
  C33      1.0000 0.03227  0.54127  0.59914  Biso   1.000  C
  H25      1.0000 0.01027  0.53383  0.64283  Biso   1.000  H
  C34      1.0000 0.05005  0.59064  0.55961  Biso   1.000  C
  C35      1.0000 0.03415  0.63235  0.58499  Biso   1.000  C
  C36      1.0000 0.08238  0.60164  0.49589  Biso   1.000  C
  H26      1.0000 0.09507  0.63573  0.46983  Biso   1.000  H
  C37      1.0000 0.09610  0.56241  0.47030  Biso   1.000  C
  C38      1.0000 0.07939  0.51356  0.50985  Biso   1.000  C
  H27      1.0000 0.08987  0.48743  0.49353  Biso   1.000  H
  C39      1.0000 0.13021  0.53224  0.36758  Biso   1.000  C
  H28      1.0000 0.09357  0.49743  0.36623  Biso   1.000  H
  H29      1.0000 0.15717  0.52473  0.39413  Biso   1.000  H
  C40      1.0000 0.15041  0.55249  0.28934  Biso   1.000  C
  H30      1.0000 0.12347  0.55983  0.26373  Biso   1.000  H
  H31      1.0000 0.15417  0.52393  0.26203  Biso   1.000  H
  H32      1.0000 0.18667  0.58693  0.29153  Biso   1.000  H
  O11      1.0000 0.95620  0.42386  0.82920  Biso   1.000  O
  O12      1.0000 0.93789  0.35163  0.90228  Biso   1.000  O
  O13      1.0000 0.93601  0.58019  0.92755  Biso   1.000  O
  O14      1.0000 0.95165  0.59562  0.04970  Biso   1.000  O
  O15      1.0000 0.89528  0.40109  0.14991  Biso   1.000  O
  O16      1.0000 0.99731  0.44171  0.67202  Biso   1.000  O
  O17      1.0000 0.03928  0.41467  0.58801  Biso   1.000  O
  O18      1.0000 0.99940  0.61843  0.63794  Biso   1.000  O
  O19      1.0000 0.05597  0.67842  0.55133  Biso   1.000  O
  O20      1.0000 0.12538  0.57580  0.40471  Biso   1.000  O
  Zn3      1.0000 0.99982  0.65588  0.73228  Biso   1.000  Zn
  Zn4      1.0000 0.97575  0.38728  0.75145  Biso   1.000  Zn
  C41      1.0000 0.60912  0.73200  0.22436  Biso   1.000  C
  C42      1.0000 0.59772  0.76038  0.28741  Biso   1.000  C
  C43      1.0000 0.60271  0.81245  0.27617  Biso   1.000  C
  H33      1.0000 0.60973  0.82847  0.22777  Biso   1.000  H
  C44      1.0000 0.59726  0.84065  0.33643  Biso   1.000  C
  C45      1.0000 0.60685  0.89849  0.32676  Biso   1.000  C
  C46      1.0000 0.58498  0.81679  0.40782  Biso   1.000  C
  H34      1.0000 0.58243  0.83677  0.44917  Biso   1.000  H
  C47      1.0000 0.57668  0.76334  0.41688  Biso   1.000  C
  C48      1.0000 0.58443  0.73564  0.35737  Biso   1.000  C
  H35      1.0000 0.58063  0.69987  0.36457  Biso   1.000  H
  C49      1.0000 0.55046  0.75975  0.54613  Biso   1.000  C
  H36      1.0000 0.52413  0.77257  0.53167  Biso   1.000  H
  H37      1.0000 0.58533  0.79227  0.56447  Biso   1.000  H
  C50      1.0000 0.52499  0.71526  0.60594  Biso   1.000  C
  H38      1.0000 0.48933  0.68447  0.58817  Biso   1.000  H
  H39      1.0000 0.51863  0.73127  0.65107  Biso   1.000  H
  H40      1.0000 0.55043  0.70127  0.61727  Biso   1.000  H
  C51      1.0000 0.69288  0.78221  0.94780  Biso   1.000  C
  C52      1.0000 0.71369  0.83649  0.90735  Biso   1.000  C
  C53      1.0000 0.69893  0.87461  0.93248  Biso   1.000  C
  H41      1.0000 0.67693  0.86717  0.97617  Biso   1.000  H
  C54      1.0000 0.71671  0.92398  0.89295  Biso   1.000  C
  C55      1.0000 0.70081  0.96569  0.91833  Biso   1.000  C
  C56      1.0000 0.74904  0.93498  0.82923  Biso   1.000  C
  H42      1.0000 0.76173  0.96907  0.80317  Biso   1.000  H
  C57      1.0000 0.76276  0.89575  0.80364  Biso   1.000  C
  C58      1.0000 0.74605  0.84690  0.84319  Biso   1.000  C
  H43      1.0000 0.75653  0.82077  0.82687  Biso   1.000  H
  C59      1.0000 0.79687  0.86558  0.70092  Biso   1.000  C
  H44      1.0000 0.76023  0.83077  0.69957  Biso   1.000  H
  H45      1.0000 0.82383  0.85807  0.72747  Biso   1.000  H
  C60      1.0000 0.81707  0.88583  0.62268  Biso   1.000  C
  H46      1.0000 0.79013  0.89317  0.59707  Biso   1.000  H
  H47      1.0000 0.82083  0.85727  0.59537  Biso   1.000  H
  H48      1.0000 0.85333  0.92027  0.62487  Biso   1.000  H
  O21      1.0000 0.62286  0.75720  0.16254  Biso   1.000  O
  O22      1.0000 0.60455  0.68497  0.23562  Biso   1.000  O
  O23      1.0000 0.60267  0.91353  0.26089  Biso   1.000  O
  O24      1.0000 0.61831  0.92896  0.38304  Biso   1.000  O
  O25      1.0000 0.56194  0.73443  0.48325  Biso   1.000  O
  O26      1.0000 0.66397  0.77505  0.00536  Biso   1.000  O
  O27      1.0000 0.70594  0.74801  0.92135  Biso   1.000  O
  O28      1.0000 0.66606  0.95177  0.97128  Biso   1.000  O
  O29      1.0000 0.72263  0.01176  0.88467  Biso   1.000  O
  O30      1.0000 0.79204  0.90914  0.73805  Biso   1.000  O
  Zn5      1.0000 0.66648  0.98922  0.06562  Biso   1.000  Zn
  Zn6      1.0000 0.64241  0.72062  0.08479  Biso   1.000  Zn
  C61      1.0000 0.93467  0.21046  0.55769  Biso   1.000  C
  C62      1.0000 0.90629  0.17068  0.62074  Biso   1.000  C
  C63      1.0000 0.85422  0.12360  0.60950  Biso   1.000  C
  H49      1.0000 0.83820  0.11460  0.56110  Biso   1.000  H
  C64      1.0000 0.82602  0.08995  0.66976  Biso   1.000  C
  C65      1.0000 0.76818  0.04170  0.66009  Biso   1.000  C
  C66      1.0000 0.84988  0.10153  0.74115  Biso   1.000  C
  H50      1.0000 0.82990  0.07900  0.78250  Biso   1.000  H
  C67      1.0000 0.90333  0.14668  0.75021  Biso   1.000  C
  C68      1.0000 0.93103  0.18213  0.69070  Biso   1.000  C
  H51      1.0000 0.96680  0.21410  0.69790  Biso   1.000  H
  C69      1.0000 0.90692  0.12405  0.87946  Biso   1.000  C
  H52      1.0000 0.89410  0.08490  0.86500  Biso   1.000  H
  H53      1.0000 0.87440  0.12640  0.89780  Biso   1.000  H
  C70      1.0000 0.95141  0.14307  0.93927  Biso   1.000  C
  H54      1.0000 0.98220  0.13820  0.92150  Biso   1.000  H
  H55      1.0000 0.93540  0.12070  0.98440  Biso   1.000  H
  H56      1.0000 0.96540  0.18250  0.95060  Biso   1.000  H
  C71      1.0000 0.88446  0.24401  0.28113  Biso   1.000  C
  C72      1.0000 0.83018  0.21054  0.24068  Biso   1.000  C
  C73      1.0000 0.79206  0.15766  0.26581  Biso   1.000  C
  H57      1.0000 0.79950  0.14310  0.30950  Biso   1.000  H
  C74      1.0000 0.74269  0.12607  0.22628  Biso   1.000  C
  C75      1.0000 0.70098  0.06846  0.25166  Biso   1.000  C
  C76      1.0000 0.73169  0.14740  0.16256  Biso   1.000  C
  H58      1.0000 0.69760  0.12600  0.13650  Biso   1.000  H
  C77      1.0000 0.77092  0.20035  0.13697  Biso   1.000  C
  C78      1.0000 0.81977  0.23249  0.17652  Biso   1.000  C
  H59      1.0000 0.84590  0.26910  0.16020  Biso   1.000  H
  C79      1.0000 0.80109  0.26463  0.03425  Biso   1.000  C
  H60      1.0000 0.83590  0.26280  0.03290  Biso   1.000  H
  H61      1.0000 0.80860  0.29910  0.06080  Biso   1.000  H
  C80      1.0000 0.78084  0.26458  0.95601  Biso   1.000  C
  H62      1.0000 0.77350  0.23030  0.93040  Biso   1.000  H
  H63      1.0000 0.80940  0.29690  0.92870  Biso   1.000  H
  H64      1.0000 0.74640  0.26640  0.95820  Biso   1.000  H
  O31      1.0000 0.90947  0.19900  0.49587  Biso   1.000  O
  O32      1.0000 0.98170  0.25292  0.56895  Biso   1.000  O
  O33      1.0000 0.75314  0.02248  0.59422  Biso   1.000  O
  O34      1.0000 0.73771  0.02269  0.71637  Biso   1.000  O
  O35      1.0000 0.93224  0.16085  0.81658  Biso   1.000  O
  O36      1.0000 0.89162  0.22226  0.33869  Biso   1.000  O
  O37      1.0000 0.91866  0.29127  0.25468  Biso   1.000  O
  O38      1.0000 0.71490  0.04763  0.30461  Biso   1.000  O
  O39      1.0000 0.65491  0.04421  0.21800  Biso   1.000  O
  O40      1.0000 0.75753  0.21624  0.07138  Biso   1.000  O
  Zn7      1.0000 0.67745  0.01060  0.39895  Biso   1.000  Zn
  Zn8      1.0000 0.94605  0.25513  0.41812  Biso   1.000  Zn
  C81      1.0000 0.60134  0.54379  0.89102  Biso   1.000  C
  C82      1.0000 0.57296  0.50401  0.95407  Biso   1.000  C
  C83      1.0000 0.52089  0.45693  0.94283  Biso   1.000  C
  H65      1.0000 0.50487  0.44793  0.89443  Biso   1.000  H
  C84      1.0000 0.49269  0.42328  0.00309  Biso   1.000  C
  C85      1.0000 0.43485  0.37503  0.99342  Biso   1.000  C
  C86      1.0000 0.51655  0.43486  0.07448  Biso   1.000  C
  H66      1.0000 0.49657  0.41233  0.11583  Biso   1.000  H
  C87      1.0000 0.57000  0.48001  0.08354  Biso   1.000  C
  C88      1.0000 0.59770  0.51546  0.02403  Biso   1.000  C
  H67      1.0000 0.63347  0.54743  0.03123  Biso   1.000  H
  C89      1.0000 0.57359  0.45738  0.21279  Biso   1.000  C
  H68      1.0000 0.56077  0.41823  0.19833  Biso   1.000  H
  H69      1.0000 0.54107  0.45973  0.23113  Biso   1.000  H
  C90      1.0000 0.61808  0.47640  0.27260  Biso   1.000  C
  H70      1.0000 0.64887  0.47153  0.25483  Biso   1.000  H
  H71      1.0000 0.60207  0.45403  0.31773  Biso   1.000  H
  H72      1.0000 0.63207  0.51583  0.28393  Biso   1.000  H
  C91      1.0000 0.55113  0.57734  0.61446  Biso   1.000  C
  C92      1.0000 0.49685  0.54387  0.57401  Biso   1.000  C
  C93      1.0000 0.45873  0.49099  0.59914  Biso   1.000  C
  H73      1.0000 0.46617  0.47643  0.64283  Biso   1.000  H
  C94      1.0000 0.40936  0.45940  0.55961  Biso   1.000  C
  C95      1.0000 0.36765  0.40179  0.58499  Biso   1.000  C
  C96      1.0000 0.39836  0.48073  0.49589  Biso   1.000  C
  H74      1.0000 0.36427  0.45933  0.46983  Biso   1.000  H
  C97      1.0000 0.43759  0.53368  0.47030  Biso   1.000  C
  C98      1.0000 0.48644  0.56582  0.50985  Biso   1.000  C
  H75      1.0000 0.51257  0.60243  0.49353  Biso   1.000  H
  C99      1.0000 0.46776  0.59796  0.36758  Biso   1.000  C
  H76      1.0000 0.50257  0.59613  0.36623  Biso   1.000  H
  H77      1.0000 0.47527  0.63243  0.39413  Biso   1.000  H
  C100     1.0000 0.44751  0.59791  0.28934  Biso   1.000  C
  H78      1.0000 0.44017  0.56363  0.26373  Biso   1.000  H
  H79      1.0000 0.47607  0.63023  0.26203  Biso   1.000  H
  H80      1.0000 0.41307  0.59973  0.29153  Biso   1.000  H
  O41      1.0000 0.57614  0.53233  0.82920  Biso   1.000  O
  O42      1.0000 0.64837  0.58625  0.90228  Biso   1.000  O
  O43      1.0000 0.41981  0.35581  0.92755  Biso   1.000  O
  O44      1.0000 0.40438  0.35602  0.04970  Biso   1.000  O
  O45      1.0000 0.59891  0.49418  0.14991  Biso   1.000  O
  O46      1.0000 0.55829  0.55559  0.67202  Biso   1.000  O
  O47      1.0000 0.58533  0.62460  0.58801  Biso   1.000  O
  O48      1.0000 0.38157  0.38096  0.63794  Biso   1.000  O
  O49      1.0000 0.32158  0.37754  0.55133  Biso   1.000  O
  O50      1.0000 0.42420  0.54957  0.40471  Biso   1.000  O
  Zn9      1.0000 0.34412  0.34393  0.73228  Biso   1.000  Zn
  Zn10     1.0000 0.61272  0.58846  0.75145  Biso   1.000  Zn
  C101     1.0000 0.26800  0.87713  0.22436  Biso   1.000  C
  C102     1.0000 0.23962  0.83735  0.28741  Biso   1.000  C
  C103     1.0000 0.18755  0.79027  0.27617  Biso   1.000  C
  H81      1.0000 0.17153  0.78127  0.22777  Biso   1.000  H
  C104     1.0000 0.15935  0.75662  0.33643  Biso   1.000  C
  C105     1.0000 0.10151  0.70837  0.32676  Biso   1.000  C
  C106     1.0000 0.18321  0.76820  0.40782  Biso   1.000  C
  H82      1.0000 0.16323  0.74567  0.44917  Biso   1.000  H
  C107     1.0000 0.23666  0.81335  0.41688  Biso   1.000  C
  C108     1.0000 0.26436  0.84880  0.35737  Biso   1.000  C
  H83      1.0000 0.30013  0.88077  0.36457  Biso   1.000  H
  C109     1.0000 0.24025  0.79072  0.54613  Biso   1.000  C
  H84      1.0000 0.22743  0.75157  0.53167  Biso   1.000  H
  H85      1.0000 0.20773  0.79307  0.56447  Biso   1.000  H
  C110     1.0000 0.28474  0.80974  0.60594  Biso   1.000  C
  H86      1.0000 0.31553  0.80487  0.58817  Biso   1.000  H
  H87      1.0000 0.26873  0.78737  0.65107  Biso   1.000  H
  H88      1.0000 0.29873  0.84917  0.61727  Biso   1.000  H
  C111     1.0000 0.21779  0.91068  0.94780  Biso   1.000  C
  C112     1.0000 0.16351  0.87721  0.90735  Biso   1.000  C
  C113     1.0000 0.12539  0.82433  0.93248  Biso   1.000  C
  H89      1.0000 0.13283  0.80977  0.97617  Biso   1.000  H
  C114     1.0000 0.07602  0.79274  0.89295  Biso   1.000  C
  C115     1.0000 0.03431  0.73513  0.91833  Biso   1.000  C
  C116     1.0000 0.06502  0.81407  0.82923  Biso   1.000  C
  H90      1.0000 0.03093  0.79267  0.80317  Biso   1.000  H
  C117     1.0000 0.10425  0.86702  0.80364  Biso   1.000  C
  C118     1.0000 0.15310  0.89916  0.84319  Biso   1.000  C
  H91      1.0000 0.17923  0.93577  0.82687  Biso   1.000  H
  C119     1.0000 0.13442  0.93130  0.70092  Biso   1.000  C
  H92      1.0000 0.16923  0.92947  0.69957  Biso   1.000  H
  H93      1.0000 0.14193  0.96577  0.72747  Biso   1.000  H
  C120     1.0000 0.11417  0.93125  0.62268  Biso   1.000  C
  H94      1.0000 0.10683  0.89697  0.59707  Biso   1.000  H
  H95      1.0000 0.14273  0.96357  0.59537  Biso   1.000  H
  H96      1.0000 0.07973  0.93307  0.62487  Biso   1.000  H
  O51      1.0000 0.24280  0.86567  0.16254  Biso   1.000  O
  O52      1.0000 0.31503  0.91959  0.23562  Biso   1.000  O
  O53      1.0000 0.08647  0.68915  0.26089  Biso   1.000  O
  O54      1.0000 0.07104  0.68936  0.38304  Biso   1.000  O
  O55      1.0000 0.26557  0.82752  0.48325  Biso   1.000  O
  O56      1.0000 0.22495  0.88893  0.00536  Biso   1.000  O
  O57      1.0000 0.25199  0.95794  0.92135  Biso   1.000  O
  O58      1.0000 0.04823  0.71430  0.97128  Biso   1.000  O
  O59      1.0000 0.98824  0.71088  0.88467  Biso   1.000  O
  O60      1.0000 0.09086  0.88291  0.73805  Biso   1.000  O
  Zn11     1.0000 0.01078  0.67727  0.06562  Biso   1.000  Zn
  Zn12     1.0000 0.27938  0.92180  0.08479  Biso   1.000  Zn
  C121     1.0000 0.78954  0.72421  0.55769  Biso   1.000  C
  C122     1.0000 0.82932  0.73561  0.62074  Biso   1.000  C
  C123     1.0000 0.87640  0.73062  0.60950  Biso   1.000  C
  H97      1.0000 0.88540  0.72360  0.56110  Biso   1.000  H
  C124     1.0000 0.91005  0.73607  0.66976  Biso   1.000  C
  C125     1.0000 0.95830  0.72648  0.66009  Biso   1.000  C
  C126     1.0000 0.89847  0.74835  0.74115  Biso   1.000  C
  H98      1.0000 0.92100  0.75090  0.78250  Biso   1.000  H
  C127     1.0000 0.85332  0.75665  0.75021  Biso   1.000  C
  C128     1.0000 0.81787  0.74890  0.69070  Biso   1.000  C
  H99      1.0000 0.78590  0.75270  0.69790  Biso   1.000  H
  C129     1.0000 0.87595  0.78287  0.87946  Biso   1.000  C
  H100     1.0000 0.91510  0.80920  0.86500  Biso   1.000  H
  H101     1.0000 0.87360  0.74800  0.89780  Biso   1.000  H
  C130     1.0000 0.85693  0.80834  0.93927  Biso   1.000  C
  H102     1.0000 0.86180  0.84400  0.92150  Biso   1.000  H
  H103     1.0000 0.87930  0.81470  0.98440  Biso   1.000  H
  H104     1.0000 0.81750  0.78290  0.95060  Biso   1.000  H
  C131     1.0000 0.75599  0.64045  0.28113  Biso   1.000  C
  C132     1.0000 0.78946  0.61964  0.24068  Biso   1.000  C
  C133     1.0000 0.84234  0.63440  0.26581  Biso   1.000  C
  H105     1.0000 0.85690  0.65640  0.30950  Biso   1.000  H
  C134     1.0000 0.87393  0.61662  0.22628  Biso   1.000  C
  C135     1.0000 0.93154  0.63252  0.25166  Biso   1.000  C
  C136     1.0000 0.85260  0.58429  0.16256  Biso   1.000  C
  H106     1.0000 0.87400  0.57160  0.13650  Biso   1.000  H
  C137     1.0000 0.79965  0.57057  0.13697  Biso   1.000  C
  C138     1.0000 0.76751  0.58728  0.17652  Biso   1.000  C
  H107     1.0000 0.73090  0.57680  0.16020  Biso   1.000  H
  C139     1.0000 0.73537  0.53646  0.03425  Biso   1.000  C
  H108     1.0000 0.73720  0.57310  0.03290  Biso   1.000  H
  H109     1.0000 0.70090  0.50950  0.06080  Biso   1.000  H
  C140     1.0000 0.73542  0.51626  0.95601  Biso   1.000  C
  H110     1.0000 0.76970  0.54320  0.93040  Biso   1.000  H
  H111     1.0000 0.70310  0.51250  0.92870  Biso   1.000  H
  H112     1.0000 0.73360  0.48000  0.95820  Biso   1.000  H
  O61      1.0000 0.80100  0.71047  0.49587  Biso   1.000  O
  O62      1.0000 0.74708  0.72878  0.56895  Biso   1.000  O
  O63      1.0000 0.97752  0.73066  0.59422  Biso   1.000  O
  O64      1.0000 0.97731  0.71502  0.71637  Biso   1.000  O
  O65      1.0000 0.83915  0.77139  0.81658  Biso   1.000  O
  O66      1.0000 0.77774  0.66936  0.33869  Biso   1.000  O
  O67      1.0000 0.70873  0.62739  0.25468  Biso   1.000  O
  O68      1.0000 0.95237  0.66727  0.30461  Biso   1.000  O
  O69      1.0000 0.95579  0.61070  0.21800  Biso   1.000  O
  O70      1.0000 0.78376  0.54129  0.07138  Biso   1.000  O
  Zn13     1.0000 0.98940  0.66685  0.39895  Biso   1.000  Zn
  Zn14     1.0000 0.74487  0.69092  0.41812  Biso   1.000  Zn
  C141     1.0000 0.45621  0.05754  0.89102  Biso   1.000  C
  C142     1.0000 0.49599  0.06894  0.95407  Biso   1.000  C
  C143     1.0000 0.54307  0.06395  0.94283  Biso   1.000  C
  H113     1.0000 0.55207  0.05693  0.89443  Biso   1.000  H
  C144     1.0000 0.57672  0.06940  0.00309  Biso   1.000  C
  C145     1.0000 0.62497  0.05981  0.99342  Biso   1.000  C
  C146     1.0000 0.56514  0.08168  0.07448  Biso   1.000  C
  H114     1.0000 0.58767  0.08423  0.11583  Biso   1.000  H
  C147     1.0000 0.51999  0.08998  0.08354  Biso   1.000  C
  C148     1.0000 0.48454  0.08223  0.02403  Biso   1.000  C
  H115     1.0000 0.45257  0.08603  0.03123  Biso   1.000  H
  C149     1.0000 0.54262  0.11620  0.21279  Biso   1.000  C
  H116     1.0000 0.58177  0.14253  0.19833  Biso   1.000  H
  H117     1.0000 0.54027  0.08133  0.23113  Biso   1.000  H
  C150     1.0000 0.52360  0.14167  0.27260  Biso   1.000  C
  H118     1.0000 0.52847  0.17733  0.25483  Biso   1.000  H
  H119     1.0000 0.54597  0.14803  0.31773  Biso   1.000  H
  H120     1.0000 0.48417  0.11623  0.28393  Biso   1.000  H
  C151     1.0000 0.42266  0.97378  0.61446  Biso   1.000  C
  C152     1.0000 0.45613  0.95297  0.57401  Biso   1.000  C
  C153     1.0000 0.50901  0.96773  0.59914  Biso   1.000  C
  H121     1.0000 0.52357  0.98973  0.64283  Biso   1.000  H
  C154     1.0000 0.54060  0.94995  0.55961  Biso   1.000  C
  C155     1.0000 0.59821  0.96585  0.58499  Biso   1.000  C
  C156     1.0000 0.51927  0.91762  0.49589  Biso   1.000  C
  H122     1.0000 0.54067  0.90493  0.46983  Biso   1.000  H
  C157     1.0000 0.46632  0.90390  0.47030  Biso   1.000  C
  C158     1.0000 0.43418  0.92061  0.50985  Biso   1.000  C
  H123     1.0000 0.39757  0.91013  0.49353  Biso   1.000  H
  C159     1.0000 0.40204  0.86979  0.36758  Biso   1.000  C
  H124     1.0000 0.40387  0.90643  0.36623  Biso   1.000  H
  H125     1.0000 0.36757  0.84283  0.39413  Biso   1.000  H
  C160     1.0000 0.40209  0.84959  0.28934  Biso   1.000  C
  H126     1.0000 0.43637  0.87653  0.26373  Biso   1.000  H
  H127     1.0000 0.36977  0.84583  0.26203  Biso   1.000  H
  H128     1.0000 0.40027  0.81333  0.29153  Biso   1.000  H
  O71      1.0000 0.46767  0.04380  0.82920  Biso   1.000  O
  O72      1.0000 0.41375  0.06211  0.90228  Biso   1.000  O
  O73      1.0000 0.64419  0.06399  0.92755  Biso   1.000  O
  O74      1.0000 0.64398  0.04835  0.04970  Biso   1.000  O
  O75      1.0000 0.50582  0.10472  0.14991  Biso   1.000  O
  O76      1.0000 0.44441  0.00269  0.67202  Biso   1.000  O
  O77      1.0000 0.37540  0.96072  0.58801  Biso   1.000  O
  O78      1.0000 0.61904  0.00060  0.63794  Biso   1.000  O
  O79      1.0000 0.62246  0.94403  0.55133  Biso   1.000  O
  O80      1.0000 0.45043  0.87462  0.40471  Biso   1.000  O
  Zn15     1.0000 0.65607  0.00018  0.73228  Biso   1.000  Zn
  Zn16     1.0000 0.41154  0.02425  0.75145  Biso   1.000  Zn
  C161     1.0000 0.12287  0.39088  0.22436  Biso   1.000  C
  C162     1.0000 0.16265  0.40228  0.28741  Biso   1.000  C
  C163     1.0000 0.20973  0.39729  0.27617  Biso   1.000  C
  H129     1.0000 0.21873  0.39027  0.22777  Biso   1.000  H
  C164     1.0000 0.24338  0.40274  0.33643  Biso   1.000  C
  C165     1.0000 0.29163  0.39315  0.32676  Biso   1.000  C
  C166     1.0000 0.23180  0.41502  0.40782  Biso   1.000  C
  H130     1.0000 0.25433  0.41757  0.44917  Biso   1.000  H
  C167     1.0000 0.18665  0.42332  0.41688  Biso   1.000  C
  C168     1.0000 0.15120  0.41557  0.35737  Biso   1.000  C
  H131     1.0000 0.11923  0.41937  0.36457  Biso   1.000  H
  C169     1.0000 0.20928  0.44954  0.54613  Biso   1.000  C
  H132     1.0000 0.24843  0.47587  0.53167  Biso   1.000  H
  H133     1.0000 0.20693  0.41467  0.56447  Biso   1.000  H
  C170     1.0000 0.19026  0.47501  0.60594  Biso   1.000  C
  H134     1.0000 0.19513  0.51067  0.58817  Biso   1.000  H
  H135     1.0000 0.21263  0.48137  0.65107  Biso   1.000  H
  H136     1.0000 0.15083  0.44957  0.61727  Biso   1.000  H
  C171     1.0000 0.08932  0.30712  0.94780  Biso   1.000  C
  C172     1.0000 0.12279  0.28631  0.90735  Biso   1.000  C
  C173     1.0000 0.17567  0.30107  0.93248  Biso   1.000  C
  H137     1.0000 0.19023  0.32307  0.97617  Biso   1.000  H
  C174     1.0000 0.20726  0.28329  0.89295  Biso   1.000  C
  C175     1.0000 0.26487  0.29919  0.91833  Biso   1.000  C
  C176     1.0000 0.18593  0.25096  0.82923  Biso   1.000  C
  H138     1.0000 0.20733  0.23827  0.80317  Biso   1.000  H
  C177     1.0000 0.13298  0.23724  0.80364  Biso   1.000  C
  C178     1.0000 0.10084  0.25395  0.84319  Biso   1.000  C
  H139     1.0000 0.06423  0.24347  0.82687  Biso   1.000  H
  C179     1.0000 0.06870  0.20313  0.70092  Biso   1.000  C
  H140     1.0000 0.07053  0.23977  0.69957  Biso   1.000  H
  H141     1.0000 0.03423  0.17617  0.72747  Biso   1.000  H
  C180     1.0000 0.06875  0.18293  0.62268  Biso   1.000  C
  H142     1.0000 0.10303  0.20987  0.59707  Biso   1.000  H
  H143     1.0000 0.03643  0.17917  0.59537  Biso   1.000  H
  H144     1.0000 0.06693  0.14667  0.62487  Biso   1.000  H
  O81      1.0000 0.13433  0.37714  0.16254  Biso   1.000  O
  O82      1.0000 0.08041  0.39545  0.23562  Biso   1.000  O
  O83      1.0000 0.31085  0.39733  0.26089  Biso   1.000  O
  O84      1.0000 0.31064  0.38169  0.38304  Biso   1.000  O
  O85      1.0000 0.17248  0.43806  0.48325  Biso   1.000  O
  O86      1.0000 0.11107  0.33603  0.00536  Biso   1.000  O
  O87      1.0000 0.04206  0.29406  0.92135  Biso   1.000  O
  O88      1.0000 0.28570  0.33394  0.97128  Biso   1.000  O
  O89      1.0000 0.28912  0.27737  0.88467  Biso   1.000  O
  O90      1.0000 0.11709  0.20796  0.73805  Biso   1.000  O
  Zn17     1.0000 0.32273  0.33352  0.06562  Biso   1.000  Zn
  Zn18     1.0000 0.07820  0.35759  0.08479  Biso   1.000  Zn
  C181     1.0000 0.72421  0.93467  0.44231  Biso   1.000  C
  C182     1.0000 0.73561  0.90629  0.37926  Biso   1.000  C
  C183     1.0000 0.73062  0.85422  0.39050  Biso   1.000  C
  H145     1.0000 0.72360  0.83820  0.43890  Biso   1.000  H
  C184     1.0000 0.73607  0.82602  0.33024  Biso   1.000  C
  C185     1.0000 0.72648  0.76818  0.33991  Biso   1.000  C
  C186     1.0000 0.74835  0.84988  0.25885  Biso   1.000  C
  H146     1.0000 0.75090  0.82990  0.21750  Biso   1.000  H
  C187     1.0000 0.75665  0.90333  0.24979  Biso   1.000  C
  C188     1.0000 0.74890  0.93103  0.30930  Biso   1.000  C
  H147     1.0000 0.75270  0.96680  0.30210  Biso   1.000  H
  C189     1.0000 0.78287  0.90692  0.12054  Biso   1.000  C
  H148     1.0000 0.80920  0.89410  0.13500  Biso   1.000  H
  H149     1.0000 0.74800  0.87440  0.10220  Biso   1.000  H
  C190     1.0000 0.80834  0.95141  0.06073  Biso   1.000  C
  H150     1.0000 0.84400  0.98220  0.07850  Biso   1.000  H
  H151     1.0000 0.81470  0.93540  0.01560  Biso   1.000  H
  H152     1.0000 0.78290  0.96540  0.04940  Biso   1.000  H
  C191     1.0000 0.64045  0.88446  0.71887  Biso   1.000  C
  C192     1.0000 0.61964  0.83018  0.75932  Biso   1.000  C
  C193     1.0000 0.63440  0.79206  0.73419  Biso   1.000  C
  H153     1.0000 0.65640  0.79950  0.69050  Biso   1.000  H
  C194     1.0000 0.61662  0.74269  0.77372  Biso   1.000  C
  C195     1.0000 0.63252  0.70098  0.74834  Biso   1.000  C
  C196     1.0000 0.58429  0.73169  0.83744  Biso   1.000  C
  H154     1.0000 0.57160  0.69760  0.86350  Biso   1.000  H
  C197     1.0000 0.57057  0.77092  0.86303  Biso   1.000  C
  C198     1.0000 0.58728  0.81977  0.82348  Biso   1.000  C
  H155     1.0000 0.57680  0.84590  0.83980  Biso   1.000  H
  C199     1.0000 0.53646  0.80109  0.96575  Biso   1.000  C
  H156     1.0000 0.57310  0.83590  0.96710  Biso   1.000  H
  H157     1.0000 0.50950  0.80860  0.93920  Biso   1.000  H
  C200     1.0000 0.51626  0.78084  0.04399  Biso   1.000  C
  H158     1.0000 0.54320  0.77350  0.06960  Biso   1.000  H
  H159     1.0000 0.51250  0.80940  0.07130  Biso   1.000  H
  H160     1.0000 0.48000  0.74640  0.04180  Biso   1.000  H
  O91      1.0000 0.71047  0.90947  0.50413  Biso   1.000  O
  O92      1.0000 0.72878  0.98170  0.43105  Biso   1.000  O
  O93      1.0000 0.73066  0.75314  0.40578  Biso   1.000  O
  O94      1.0000 0.71502  0.73771  0.28363  Biso   1.000  O
  O95      1.0000 0.77139  0.93224  0.18342  Biso   1.000  O
  O96      1.0000 0.66936  0.89162  0.66131  Biso   1.000  O
  O97      1.0000 0.62739  0.91866  0.74532  Biso   1.000  O
  O98      1.0000 0.66727  0.71490  0.69539  Biso   1.000  O
  O99      1.0000 0.61070  0.65491  0.78200  Biso   1.000  O
  O100     1.0000 0.54129  0.75753  0.92862  Biso   1.000  O
  Zn19     1.0000 0.66685  0.67745  0.60105  Biso   1.000  Zn
  Zn20     1.0000 0.69092  0.94605  0.58188  Biso   1.000  Zn
  C201     1.0000 0.39088  0.26800  0.77564  Biso   1.000  C
  C202     1.0000 0.40228  0.23962  0.71259  Biso   1.000  C
  C203     1.0000 0.39729  0.18755  0.72383  Biso   1.000  C
  H161     1.0000 0.39027  0.17153  0.77223  Biso   1.000  H
  C204     1.0000 0.40274  0.15935  0.66357  Biso   1.000  C
  C205     1.0000 0.39315  0.10151  0.67324  Biso   1.000  C
  C206     1.0000 0.41502  0.18321  0.59218  Biso   1.000  C
  H162     1.0000 0.41757  0.16323  0.55083  Biso   1.000  H
  C207     1.0000 0.42332  0.23666  0.58312  Biso   1.000  C
  C208     1.0000 0.41557  0.26436  0.64263  Biso   1.000  C
  H163     1.0000 0.41937  0.30013  0.63543  Biso   1.000  H
  C209     1.0000 0.44954  0.24025  0.45387  Biso   1.000  C
  H164     1.0000 0.47587  0.22743  0.46833  Biso   1.000  H
  H165     1.0000 0.41467  0.20773  0.43553  Biso   1.000  H
  C210     1.0000 0.47501  0.28474  0.39406  Biso   1.000  C
  H166     1.0000 0.51067  0.31553  0.41183  Biso   1.000  H
  H167     1.0000 0.48137  0.26873  0.34893  Biso   1.000  H
  H168     1.0000 0.44957  0.29873  0.38273  Biso   1.000  H
  C211     1.0000 0.30712  0.21779  0.05220  Biso   1.000  C
  C212     1.0000 0.28631  0.16351  0.09265  Biso   1.000  C
  C213     1.0000 0.30107  0.12539  0.06752  Biso   1.000  C
  H169     1.0000 0.32307  0.13283  0.02383  Biso   1.000  H
  C214     1.0000 0.28329  0.07602  0.10705  Biso   1.000  C
  C215     1.0000 0.29919  0.03431  0.08167  Biso   1.000  C
  C216     1.0000 0.25096  0.06502  0.17077  Biso   1.000  C
  H170     1.0000 0.23827  0.03093  0.19683  Biso   1.000  H
  C217     1.0000 0.23724  0.10425  0.19636  Biso   1.000  C
  C218     1.0000 0.25395  0.15310  0.15681  Biso   1.000  C
  H171     1.0000 0.24347  0.17923  0.17313  Biso   1.000  H
  C219     1.0000 0.20313  0.13442  0.29908  Biso   1.000  C
  H172     1.0000 0.23977  0.16923  0.30043  Biso   1.000  H
  H173     1.0000 0.17617  0.14193  0.27253  Biso   1.000  H
  C220     1.0000 0.18293  0.11417  0.37732  Biso   1.000  C
  H174     1.0000 0.20987  0.10683  0.40293  Biso   1.000  H
  H175     1.0000 0.17917  0.14273  0.40463  Biso   1.000  H
  H176     1.0000 0.14667  0.07973  0.37513  Biso   1.000  H
  O101     1.0000 0.37714  0.24280  0.83746  Biso   1.000  O
  O102     1.0000 0.39545  0.31503  0.76438  Biso   1.000  O
  O103     1.0000 0.39733  0.08647  0.73911  Biso   1.000  O
  O104     1.0000 0.38169  0.07104  0.61696  Biso   1.000  O
  O105     1.0000 0.43806  0.26557  0.51675  Biso   1.000  O
  O106     1.0000 0.33603  0.22495  0.99464  Biso   1.000  O
  O107     1.0000 0.29406  0.25199  0.07865  Biso   1.000  O
  O108     1.0000 0.33394  0.04823  0.02872  Biso   1.000  O
  O109     1.0000 0.27737  0.98824  0.11533  Biso   1.000  O
  O110     1.0000 0.20796  0.09086  0.26195  Biso   1.000  O
  Zn21     1.0000 0.33352  0.01078  0.93438  Biso   1.000  Zn
  Zn22     1.0000 0.35759  0.27938  0.91521  Biso   1.000  Zn
  C221     1.0000 0.05754  0.60134  0.10898  Biso   1.000  C
  C222     1.0000 0.06894  0.57296  0.04593  Biso   1.000  C
  C223     1.0000 0.06395  0.52089  0.05717  Biso   1.000  C
  H177     1.0000 0.05693  0.50487  0.10557  Biso   1.000  H
  C224     1.0000 0.06940  0.49269  0.99691  Biso   1.000  C
  C225     1.0000 0.05981  0.43485  0.00658  Biso   1.000  C
  C226     1.0000 0.08168  0.51655  0.92552  Biso   1.000  C
  H178     1.0000 0.08423  0.49657  0.88417  Biso   1.000  H
  C227     1.0000 0.08998  0.57000  0.91646  Biso   1.000  C
  C228     1.0000 0.08223  0.59770  0.97597  Biso   1.000  C
  H179     1.0000 0.08603  0.63347  0.96877  Biso   1.000  H
  C229     1.0000 0.11620  0.57359  0.78721  Biso   1.000  C
  H180     1.0000 0.14253  0.56077  0.80167  Biso   1.000  H
  H181     1.0000 0.08133  0.54107  0.76887  Biso   1.000  H
  C230     1.0000 0.14167  0.61808  0.72740  Biso   1.000  C
  H182     1.0000 0.17733  0.64887  0.74517  Biso   1.000  H
  H183     1.0000 0.14803  0.60207  0.68227  Biso   1.000  H
  H184     1.0000 0.11623  0.63207  0.71607  Biso   1.000  H
  C231     1.0000 0.97378  0.55113  0.38554  Biso   1.000  C
  C232     1.0000 0.95297  0.49685  0.42599  Biso   1.000  C
  C233     1.0000 0.96773  0.45873  0.40086  Biso   1.000  C
  H185     1.0000 0.98973  0.46617  0.35717  Biso   1.000  H
  C234     1.0000 0.94995  0.40936  0.44039  Biso   1.000  C
  C235     1.0000 0.96585  0.36765  0.41501  Biso   1.000  C
  C236     1.0000 0.91762  0.39836  0.50411  Biso   1.000  C
  H186     1.0000 0.90493  0.36427  0.53017  Biso   1.000  H
  C237     1.0000 0.90390  0.43759  0.52970  Biso   1.000  C
  C238     1.0000 0.92061  0.48644  0.49015  Biso   1.000  C
  H187     1.0000 0.91013  0.51257  0.50647  Biso   1.000  H
  C239     1.0000 0.86979  0.46776  0.63242  Biso   1.000  C
  H188     1.0000 0.90643  0.50257  0.63377  Biso   1.000  H
  H189     1.0000 0.84283  0.47527  0.60587  Biso   1.000  H
  C240     1.0000 0.84959  0.44751  0.71066  Biso   1.000  C
  H190     1.0000 0.87653  0.44017  0.73627  Biso   1.000  H
  H191     1.0000 0.84583  0.47607  0.73797  Biso   1.000  H
  H192     1.0000 0.81333  0.41307  0.70847  Biso   1.000  H
  O111     1.0000 0.04380  0.57614  0.17080  Biso   1.000  O
  O112     1.0000 0.06211  0.64837  0.09772  Biso   1.000  O
  O113     1.0000 0.06399  0.41981  0.07245  Biso   1.000  O
  O114     1.0000 0.04835  0.40438  0.95030  Biso   1.000  O
  O115     1.0000 0.10472  0.59891  0.85009  Biso   1.000  O
  O116     1.0000 0.00269  0.55829  0.32798  Biso   1.000  O
  O117     1.0000 0.96072  0.58533  0.41199  Biso   1.000  O
  O118     1.0000 0.00060  0.38157  0.36206  Biso   1.000  O
  O119     1.0000 0.94403  0.32158  0.44867  Biso   1.000  O
  O120     1.0000 0.87462  0.42420  0.59529  Biso   1.000  O
  Zn23     1.0000 0.00018  0.34412  0.26772  Biso   1.000  Zn
  Zn24     1.0000 0.02425  0.61272  0.24855  Biso   1.000  Zn
  C241     1.0000 0.06533  0.78954  0.44231  Biso   1.000  C
  C242     1.0000 0.09371  0.82932  0.37926  Biso   1.000  C
  C243     1.0000 0.14578  0.87640  0.39050  Biso   1.000  C
  H193     1.0000 0.16180  0.88540  0.43890  Biso   1.000  H
  C244     1.0000 0.17398  0.91005  0.33024  Biso   1.000  C
  C245     1.0000 0.23182  0.95830  0.33991  Biso   1.000  C
  C246     1.0000 0.15012  0.89847  0.25885  Biso   1.000  C
  H194     1.0000 0.17010  0.92100  0.21750  Biso   1.000  H
  C247     1.0000 0.09667  0.85332  0.24979  Biso   1.000  C
  C248     1.0000 0.06897  0.81787  0.30930  Biso   1.000  C
  H195     1.0000 0.03320  0.78590  0.30210  Biso   1.000  H
  C249     1.0000 0.09308  0.87595  0.12054  Biso   1.000  C
  H196     1.0000 0.10590  0.91510  0.13500  Biso   1.000  H
  H197     1.0000 0.12560  0.87360  0.10220  Biso   1.000  H
  C250     1.0000 0.04859  0.85693  0.06073  Biso   1.000  C
  H198     1.0000 0.01780  0.86180  0.07850  Biso   1.000  H
  H199     1.0000 0.06460  0.87930  0.01560  Biso   1.000  H
  H200     1.0000 0.03460  0.81750  0.04940  Biso   1.000  H
  C251     1.0000 0.11554  0.75599  0.71887  Biso   1.000  C
  C252     1.0000 0.16982  0.78946  0.75932  Biso   1.000  C
  C253     1.0000 0.20794  0.84234  0.73419  Biso   1.000  C
  H201     1.0000 0.20050  0.85690  0.69050  Biso   1.000  H
  C254     1.0000 0.25731  0.87393  0.77372  Biso   1.000  C
  C255     1.0000 0.29902  0.93154  0.74834  Biso   1.000  C
  C256     1.0000 0.26831  0.85260  0.83744  Biso   1.000  C
  H202     1.0000 0.30240  0.87400  0.86350  Biso   1.000  H
  C257     1.0000 0.22908  0.79965  0.86303  Biso   1.000  C
  C258     1.0000 0.18023  0.76751  0.82348  Biso   1.000  C
  H203     1.0000 0.15410  0.73090  0.83980  Biso   1.000  H
  C259     1.0000 0.19891  0.73537  0.96575  Biso   1.000  C
  H204     1.0000 0.16410  0.73720  0.96710  Biso   1.000  H
  H205     1.0000 0.19140  0.70090  0.93920  Biso   1.000  H
  C260     1.0000 0.21916  0.73542  0.04399  Biso   1.000  C
  H206     1.0000 0.22650  0.76970  0.06960  Biso   1.000  H
  H207     1.0000 0.19060  0.70310  0.07130  Biso   1.000  H
  H208     1.0000 0.25360  0.73360  0.04180  Biso   1.000  H
  O121     1.0000 0.09053  0.80100  0.50413  Biso   1.000  O
  O122     1.0000 0.01830  0.74708  0.43105  Biso   1.000  O
  O123     1.0000 0.24686  0.97752  0.40578  Biso   1.000  O
  O124     1.0000 0.26229  0.97731  0.28363  Biso   1.000  O
  O125     1.0000 0.06776  0.83915  0.18342  Biso   1.000  O
  O126     1.0000 0.10838  0.77774  0.66131  Biso   1.000  O
  O127     1.0000 0.08134  0.70873  0.74532  Biso   1.000  O
  O128     1.0000 0.28510  0.95237  0.69539  Biso   1.000  O
  O129     1.0000 0.34509  0.95579  0.78200  Biso   1.000  O
  O130     1.0000 0.24247  0.78376  0.92862  Biso   1.000  O
  Zn25     1.0000 0.32255  0.98940  0.60105  Biso   1.000  Zn
  Zn26     1.0000 0.05395  0.74487  0.58188  Biso   1.000  Zn
  C261     1.0000 0.73200  0.12287  0.77564  Biso   1.000  C
  C262     1.0000 0.76038  0.16265  0.71259  Biso   1.000  C
  C263     1.0000 0.81245  0.20973  0.72383  Biso   1.000  C
  H209     1.0000 0.82847  0.21873  0.77223  Biso   1.000  H
  C264     1.0000 0.84065  0.24338  0.66357  Biso   1.000  C
  C265     1.0000 0.89849  0.29163  0.67324  Biso   1.000  C
  C266     1.0000 0.81679  0.23180  0.59218  Biso   1.000  C
  H210     1.0000 0.83677  0.25433  0.55083  Biso   1.000  H
  C267     1.0000 0.76334  0.18665  0.58312  Biso   1.000  C
  C268     1.0000 0.73564  0.15120  0.64263  Biso   1.000  C
  H211     1.0000 0.69987  0.11923  0.63543  Biso   1.000  H
  C269     1.0000 0.75975  0.20928  0.45387  Biso   1.000  C
  H212     1.0000 0.77257  0.24843  0.46833  Biso   1.000  H
  H213     1.0000 0.79227  0.20693  0.43553  Biso   1.000  H
  C270     1.0000 0.71526  0.19026  0.39406  Biso   1.000  C
  H214     1.0000 0.68447  0.19513  0.41183  Biso   1.000  H
  H215     1.0000 0.73127  0.21263  0.34893  Biso   1.000  H
  H216     1.0000 0.70127  0.15083  0.38273  Biso   1.000  H
  C271     1.0000 0.78221  0.08932  0.05220  Biso   1.000  C
  C272     1.0000 0.83649  0.12279  0.09265  Biso   1.000  C
  C273     1.0000 0.87461  0.17567  0.06752  Biso   1.000  C
  H217     1.0000 0.86717  0.19023  0.02383  Biso   1.000  H
  C274     1.0000 0.92398  0.20726  0.10705  Biso   1.000  C
  C275     1.0000 0.96569  0.26487  0.08167  Biso   1.000  C
  C276     1.0000 0.93498  0.18593  0.17077  Biso   1.000  C
  H218     1.0000 0.96907  0.20733  0.19683  Biso   1.000  H
  C277     1.0000 0.89575  0.13298  0.19636  Biso   1.000  C
  C278     1.0000 0.84690  0.10084  0.15681  Biso   1.000  C
  H219     1.0000 0.82077  0.06423  0.17313  Biso   1.000  H
  C279     1.0000 0.86558  0.06870  0.29908  Biso   1.000  C
  H220     1.0000 0.83077  0.07053  0.30043  Biso   1.000  H
  H221     1.0000 0.85807  0.03423  0.27253  Biso   1.000  H
  C280     1.0000 0.88583  0.06875  0.37732  Biso   1.000  C
  H222     1.0000 0.89317  0.10303  0.40293  Biso   1.000  H
  H223     1.0000 0.85727  0.03643  0.40463  Biso   1.000  H
  H224     1.0000 0.92027  0.06693  0.37513  Biso   1.000  H
  O131     1.0000 0.75720  0.13433  0.83746  Biso   1.000  O
  O132     1.0000 0.68497  0.08041  0.76438  Biso   1.000  O
  O133     1.0000 0.91353  0.31085  0.73911  Biso   1.000  O
  O134     1.0000 0.92896  0.31064  0.61696  Biso   1.000  O
  O135     1.0000 0.73443  0.17248  0.51675  Biso   1.000  O
  O136     1.0000 0.77505  0.11107  0.99464  Biso   1.000  O
  O137     1.0000 0.74801  0.04206  0.07865  Biso   1.000  O
  O138     1.0000 0.95177  0.28570  0.02872  Biso   1.000  O
  O139     1.0000 0.01176  0.28912  0.11533  Biso   1.000  O
  O140     1.0000 0.90914  0.11709  0.26195  Biso   1.000  O
  Zn27     1.0000 0.98922  0.32273  0.93438  Biso   1.000  Zn
  Zn28     1.0000 0.72062  0.07820  0.91521  Biso   1.000  Zn
  C281     1.0000 0.39866  0.45621  0.10898  Biso   1.000  C
  C282     1.0000 0.42704  0.49599  0.04593  Biso   1.000  C
  C283     1.0000 0.47911  0.54307  0.05717  Biso   1.000  C
  H225     1.0000 0.49513  0.55207  0.10557  Biso   1.000  H
  C284     1.0000 0.50731  0.57672  0.99691  Biso   1.000  C
  C285     1.0000 0.56515  0.62497  0.00658  Biso   1.000  C
  C286     1.0000 0.48345  0.56514  0.92552  Biso   1.000  C
  H226     1.0000 0.50343  0.58767  0.88417  Biso   1.000  H
  C287     1.0000 0.43000  0.51999  0.91646  Biso   1.000  C
  C288     1.0000 0.40230  0.48454  0.97597  Biso   1.000  C
  H227     1.0000 0.36653  0.45257  0.96877  Biso   1.000  H
  C289     1.0000 0.42641  0.54262  0.78721  Biso   1.000  C
  H228     1.0000 0.43923  0.58177  0.80167  Biso   1.000  H
  H229     1.0000 0.45893  0.54027  0.76887  Biso   1.000  H
  C290     1.0000 0.38192  0.52360  0.72740  Biso   1.000  C
  H230     1.0000 0.35113  0.52847  0.74517  Biso   1.000  H
  H231     1.0000 0.39793  0.54597  0.68227  Biso   1.000  H
  H232     1.0000 0.36793  0.48417  0.71607  Biso   1.000  H
  C291     1.0000 0.44887  0.42266  0.38554  Biso   1.000  C
  C292     1.0000 0.50315  0.45613  0.42599  Biso   1.000  C
  C293     1.0000 0.54127  0.50901  0.40086  Biso   1.000  C
  H233     1.0000 0.53383  0.52357  0.35717  Biso   1.000  H
  C294     1.0000 0.59064  0.54060  0.44039  Biso   1.000  C
  C295     1.0000 0.63235  0.59821  0.41501  Biso   1.000  C
  C296     1.0000 0.60164  0.51927  0.50411  Biso   1.000  C
  H234     1.0000 0.63573  0.54067  0.53017  Biso   1.000  H
  C297     1.0000 0.56241  0.46632  0.52970  Biso   1.000  C
  C298     1.0000 0.51356  0.43418  0.49015  Biso   1.000  C
  H235     1.0000 0.48743  0.39757  0.50647  Biso   1.000  H
  C299     1.0000 0.53224  0.40204  0.63242  Biso   1.000  C
  H236     1.0000 0.49743  0.40387  0.63377  Biso   1.000  H
  H237     1.0000 0.52473  0.36757  0.60587  Biso   1.000  H
  C300     1.0000 0.55249  0.40209  0.71066  Biso   1.000  C
  H238     1.0000 0.55983  0.43637  0.73627  Biso   1.000  H
  H239     1.0000 0.52393  0.36977  0.73797  Biso   1.000  H
  H240     1.0000 0.58693  0.40027  0.70847  Biso   1.000  H
  O141     1.0000 0.42386  0.46767  0.17080  Biso   1.000  O
  O142     1.0000 0.35163  0.41375  0.09772  Biso   1.000  O
  O143     1.0000 0.58019  0.64419  0.07245  Biso   1.000  O
  O144     1.0000 0.59562  0.64398  0.95030  Biso   1.000  O
  O145     1.0000 0.40109  0.50582  0.85009  Biso   1.000  O
  O146     1.0000 0.44171  0.44441  0.32798  Biso   1.000  O
  O147     1.0000 0.41467  0.37540  0.41199  Biso   1.000  O
  O148     1.0000 0.61843  0.61904  0.36206  Biso   1.000  O
  O149     1.0000 0.67842  0.62246  0.44867  Biso   1.000  O
  O150     1.0000 0.57580  0.45043  0.59529  Biso   1.000  O
  Zn29     1.0000 0.65588  0.65607  0.26772  Biso   1.000  Zn
  Zn30     1.0000 0.38728  0.41154  0.24855  Biso   1.000  Zn
  C301     1.0000 0.21046  0.27579  0.44231  Biso   1.000  C
  C302     1.0000 0.17068  0.26439  0.37926  Biso   1.000  C
  C303     1.0000 0.12360  0.26938  0.39050  Biso   1.000  C
  H241     1.0000 0.11460  0.27640  0.43890  Biso   1.000  H
  C304     1.0000 0.08995  0.26393  0.33024  Biso   1.000  C
  C305     1.0000 0.04170  0.27352  0.33991  Biso   1.000  C
  C306     1.0000 0.10153  0.25165  0.25885  Biso   1.000  C
  H242     1.0000 0.07900  0.24910  0.21750  Biso   1.000  H
  C307     1.0000 0.14668  0.24335  0.24979  Biso   1.000  C
  C308     1.0000 0.18213  0.25110  0.30930  Biso   1.000  C
  H243     1.0000 0.21410  0.24730  0.30210  Biso   1.000  H
  C309     1.0000 0.12405  0.21713  0.12054  Biso   1.000  C
  H244     1.0000 0.08490  0.19080  0.13500  Biso   1.000  H
  H245     1.0000 0.12640  0.25200  0.10220  Biso   1.000  H
  C310     1.0000 0.14307  0.19166  0.06073  Biso   1.000  C
  H246     1.0000 0.13820  0.15600  0.07850  Biso   1.000  H
  H247     1.0000 0.12070  0.18530  0.01560  Biso   1.000  H
  H248     1.0000 0.18250  0.21710  0.04940  Biso   1.000  H
  C311     1.0000 0.24401  0.35955  0.71887  Biso   1.000  C
  C312     1.0000 0.21054  0.38036  0.75932  Biso   1.000  C
  C313     1.0000 0.15766  0.36560  0.73419  Biso   1.000  C
  H249     1.0000 0.14310  0.34360  0.69050  Biso   1.000  H
  C314     1.0000 0.12607  0.38338  0.77372  Biso   1.000  C
  C315     1.0000 0.06846  0.36748  0.74834  Biso   1.000  C
  C316     1.0000 0.14740  0.41571  0.83744  Biso   1.000  C
  H250     1.0000 0.12600  0.42840  0.86350  Biso   1.000  H
  C317     1.0000 0.20035  0.42943  0.86303  Biso   1.000  C
  C318     1.0000 0.23249  0.41272  0.82348  Biso   1.000  C
  H251     1.0000 0.26910  0.42320  0.83980  Biso   1.000  H
  C319     1.0000 0.26463  0.46354  0.96575  Biso   1.000  C
  H252     1.0000 0.26280  0.42690  0.96710  Biso   1.000  H
  H253     1.0000 0.29910  0.49050  0.93920  Biso   1.000  H
  C320     1.0000 0.26458  0.48374  0.04399  Biso   1.000  C
  H254     1.0000 0.23030  0.45680  0.06960  Biso   1.000  H
  H255     1.0000 0.29690  0.48750  0.07130  Biso   1.000  H
  H256     1.0000 0.26640  0.52000  0.04180  Biso   1.000  H
  O151     1.0000 0.19900  0.28953  0.50413  Biso   1.000  O
  O152     1.0000 0.25292  0.27122  0.43105  Biso   1.000  O
  O153     1.0000 0.02248  0.26934  0.40578  Biso   1.000  O
  O154     1.0000 0.02269  0.28498  0.28363  Biso   1.000  O
  O155     1.0000 0.16085  0.22861  0.18342  Biso   1.000  O
  O156     1.0000 0.22226  0.33064  0.66131  Biso   1.000  O
  O157     1.0000 0.29127  0.37261  0.74532  Biso   1.000  O
  O158     1.0000 0.04763  0.33273  0.69539  Biso   1.000  O
  O159     1.0000 0.04421  0.38930  0.78200  Biso   1.000  O
  O160     1.0000 0.21624  0.45871  0.92862  Biso   1.000  O
  Zn31     1.0000 0.01060  0.33315  0.60105  Biso   1.000  Zn
  Zn32     1.0000 0.25513  0.30908  0.58188  Biso   1.000  Zn
  C321     1.0000 0.87713  0.60912  0.77564  Biso   1.000  C
  C322     1.0000 0.83735  0.59772  0.71259  Biso   1.000  C
  C323     1.0000 0.79027  0.60271  0.72383  Biso   1.000  C
  H257     1.0000 0.78127  0.60973  0.77223  Biso   1.000  H
  C324     1.0000 0.75662  0.59726  0.66357  Biso   1.000  C
  C325     1.0000 0.70837  0.60685  0.67324  Biso   1.000  C
  C326     1.0000 0.76820  0.58498  0.59218  Biso   1.000  C
  H258     1.0000 0.74567  0.58243  0.55083  Biso   1.000  H
  C327     1.0000 0.81335  0.57668  0.58312  Biso   1.000  C
  C328     1.0000 0.84880  0.58443  0.64263  Biso   1.000  C
  H259     1.0000 0.88077  0.58063  0.63543  Biso   1.000  H
  C329     1.0000 0.79072  0.55046  0.45387  Biso   1.000  C
  H260     1.0000 0.75157  0.52413  0.46833  Biso   1.000  H
  H261     1.0000 0.79307  0.58533  0.43553  Biso   1.000  H
  C330     1.0000 0.80974  0.52499  0.39406  Biso   1.000  C
  H262     1.0000 0.80487  0.48933  0.41183  Biso   1.000  H
  H263     1.0000 0.78737  0.51863  0.34893  Biso   1.000  H
  H264     1.0000 0.84917  0.55043  0.38273  Biso   1.000  H
  C331     1.0000 0.91068  0.69288  0.05220  Biso   1.000  C
  C332     1.0000 0.87721  0.71369  0.09265  Biso   1.000  C
  C333     1.0000 0.82433  0.69893  0.06752  Biso   1.000  C
  H265     1.0000 0.80977  0.67693  0.02383  Biso   1.000  H
  C334     1.0000 0.79274  0.71671  0.10705  Biso   1.000  C
  C335     1.0000 0.73513  0.70081  0.08167  Biso   1.000  C
  C336     1.0000 0.81407  0.74904  0.17077  Biso   1.000  C
  H266     1.0000 0.79267  0.76173  0.19683  Biso   1.000  H
  C337     1.0000 0.86702  0.76276  0.19636  Biso   1.000  C
  C338     1.0000 0.89916  0.74605  0.15681  Biso   1.000  C
  H267     1.0000 0.93577  0.75653  0.17313  Biso   1.000  H
  C339     1.0000 0.93130  0.79687  0.29908  Biso   1.000  C
  H268     1.0000 0.92947  0.76023  0.30043  Biso   1.000  H
  H269     1.0000 0.96577  0.82383  0.27253  Biso   1.000  H
  C340     1.0000 0.93125  0.81707  0.37732  Biso   1.000  C
  H270     1.0000 0.89697  0.79013  0.40293  Biso   1.000  H
  H271     1.0000 0.96357  0.82083  0.40463  Biso   1.000  H
  H272     1.0000 0.93307  0.85333  0.37513  Biso   1.000  H
  O161     1.0000 0.86567  0.62286  0.83746  Biso   1.000  O
  O162     1.0000 0.91959  0.60455  0.76438  Biso   1.000  O
  O163     1.0000 0.68915  0.60267  0.73911  Biso   1.000  O
  O164     1.0000 0.68936  0.61831  0.61696  Biso   1.000  O
  O165     1.0000 0.82752  0.56194  0.51675  Biso   1.000  O
  O166     1.0000 0.88893  0.66397  0.99464  Biso   1.000  O
  O167     1.0000 0.95794  0.70594  0.07865  Biso   1.000  O
  O168     1.0000 0.71430  0.66606  0.02872  Biso   1.000  O
  O169     1.0000 0.71088  0.72263  0.11533  Biso   1.000  O
  O170     1.0000 0.88291  0.79204  0.26195  Biso   1.000  O
  Zn33     1.0000 0.67727  0.66648  0.93438  Biso   1.000  Zn
  Zn34     1.0000 0.92180  0.64241  0.91521  Biso   1.000  Zn
  C341     1.0000 0.54379  0.94246  0.10898  Biso   1.000  C
  C342     1.0000 0.50401  0.93106  0.04593  Biso   1.000  C
  C343     1.0000 0.45693  0.93605  0.05717  Biso   1.000  C
  H273     1.0000 0.44793  0.94307  0.10557  Biso   1.000  H
  C344     1.0000 0.42328  0.93060  0.99691  Biso   1.000  C
  C345     1.0000 0.37503  0.94019  0.00658  Biso   1.000  C
  C346     1.0000 0.43486  0.91832  0.92552  Biso   1.000  C
  H274     1.0000 0.41233  0.91577  0.88417  Biso   1.000  H
  C347     1.0000 0.48001  0.91002  0.91646  Biso   1.000  C
  C348     1.0000 0.51546  0.91777  0.97597  Biso   1.000  C
  H275     1.0000 0.54743  0.91397  0.96877  Biso   1.000  H
  C349     1.0000 0.45738  0.88380  0.78721  Biso   1.000  C
  H276     1.0000 0.41823  0.85747  0.80167  Biso   1.000  H
  H277     1.0000 0.45973  0.91867  0.76887  Biso   1.000  H
  C350     1.0000 0.47640  0.85833  0.72740  Biso   1.000  C
  H278     1.0000 0.47153  0.82267  0.74517  Biso   1.000  H
  H279     1.0000 0.45403  0.85197  0.68227  Biso   1.000  H
  H280     1.0000 0.51583  0.88377  0.71607  Biso   1.000  H
  C351     1.0000 0.57734  0.02622  0.38554  Biso   1.000  C
  C352     1.0000 0.54387  0.04703  0.42599  Biso   1.000  C
  C353     1.0000 0.49099  0.03227  0.40086  Biso   1.000  C
  H281     1.0000 0.47643  0.01027  0.35717  Biso   1.000  H
  C354     1.0000 0.45940  0.05005  0.44039  Biso   1.000  C
  C355     1.0000 0.40179  0.03415  0.41501  Biso   1.000  C
  C356     1.0000 0.48073  0.08238  0.50411  Biso   1.000  C
  H282     1.0000 0.45933  0.09507  0.53017  Biso   1.000  H
  C357     1.0000 0.53368  0.09610  0.52970  Biso   1.000  C
  C358     1.0000 0.56582  0.07939  0.49015  Biso   1.000  C
  H283     1.0000 0.60243  0.08987  0.50647  Biso   1.000  H
  C359     1.0000 0.59796  0.13021  0.63242  Biso   1.000  C
  H284     1.0000 0.59613  0.09357  0.63377  Biso   1.000  H
  H285     1.0000 0.63243  0.15717  0.60587  Biso   1.000  H
  C360     1.0000 0.59791  0.15041  0.71066  Biso   1.000  C
  H286     1.0000 0.56363  0.12347  0.73627  Biso   1.000  H
  H287     1.0000 0.63023  0.15417  0.73797  Biso   1.000  H
  H288     1.0000 0.59973  0.18667  0.70847  Biso   1.000  H
  O171     1.0000 0.53233  0.95620  0.17080  Biso   1.000  O
  O172     1.0000 0.58625  0.93789  0.09772  Biso   1.000  O
  O173     1.0000 0.35581  0.93601  0.07245  Biso   1.000  O
  O174     1.0000 0.35602  0.95165  0.95030  Biso   1.000  O
  O175     1.0000 0.49418  0.89528  0.85009  Biso   1.000  O
  O176     1.0000 0.55559  0.99731  0.32798  Biso   1.000  O
  O177     1.0000 0.62460  0.03928  0.41199  Biso   1.000  O
  O178     1.0000 0.38096  0.99940  0.36206  Biso   1.000  O
  O179     1.0000 0.37754  0.05597  0.44867  Biso   1.000  O
  O180     1.0000 0.54957  0.12538  0.59529  Biso   1.000  O
  Zn35     1.0000 0.34393  0.99982  0.26772  Biso   1.000  Zn
  Zn36     1.0000 0.58846  0.97575  0.24855  Biso   1.000  Zn
