data_image0
_cell_length_a       27.638
_cell_length_b       27.638
_cell_length_c       17.949
_cell_angle_alpha    90
_cell_angle_beta     90
_cell_angle_gamma    120

_symmetry_space_group_name_H-M    "P 1"
_symmetry_int_tables_number       1

loop_
  _symmetry_equiv_pos_as_xyz
  'x, y, z'

loop_
  _atom_site_label
  _atom_site_occupancy
  _atom_site_fract_x
  _atom_site_fract_y
  _atom_site_fract_z
  _atom_site_thermal_displace_type
  _atom_site_B_iso_or_equiv
  _atom_site_type_symbol
  C1       1.0000 0.40209  0.03425  0.91600  Biso   1.000  C
  C2       1.0000 0.45995  0.05029  0.94000  Biso   1.000  C
  C3       1.0000 0.48985  0.03021  0.90150  Biso   1.000  C
  H1       1.0000 0.47360  0.00590  0.86010  Biso   1.000  H
  C4       1.0000 0.54380  0.04614  0.92440  Biso   1.000  C
  C5       1.0000 0.57665  0.02488  0.88360  Biso   1.000  C
  C6       1.0000 0.56730  0.08120  0.98540  Biso   1.000  C
  H2       1.0000 0.60400  0.09150  0.00120  Biso   1.000  H
  C7       1.0000 0.53720  0.10120  0.02310  Biso   1.000  C
  C8       1.0000 0.48320  0.08560  0.00060  Biso   1.000  C
  H3       1.0000 0.46240  0.09910  0.02660  Biso   1.000  H
  C9       1.0000 0.53620  0.15100  0.13070  Biso   1.000  C
  C10      1.0000 0.57750  0.18350  0.20070  Biso   1.000  C
  C11      1.0000 0.58540  0.14270  0.23820  Biso   1.000  C
  C12      1.0000 0.27539  0.06464  0.05930  Biso   1.000  C
  C13      1.0000 0.26345  0.09287  0.12230  Biso   1.000  C
  C14      1.0000 0.26874  0.14524  0.11020  Biso   1.000  C
  H4       1.0000 0.27600  0.16100  0.06160  Biso   1.000  H
  C15      1.0000 0.26331  0.17394  0.16990  Biso   1.000  C
  C16      1.0000 0.27318  0.23155  0.15950  Biso   1.000  C
  C17      1.0000 0.25158  0.15052  0.24120  Biso   1.000  C
  H5       1.0000 0.24970  0.17110  0.28240  Biso   1.000  H
  C18      1.0000 0.24268  0.09691  0.25140  Biso   1.000  C
  C19      1.0000 0.25013  0.06868  0.19260  Biso   1.000  C
  H6       1.0000 0.24610  0.03290  0.20040  Biso   1.000  H
  C20      1.0000 0.21640  0.09380  0.38050  Biso   1.000  C
  H7       1.0000 0.19150  0.10810  0.36500  Biso   1.000  H
  H8       1.0000 0.25130  0.12530  0.40070  Biso   1.000  H
  C21      1.0000 0.18770  0.04810  0.43970  Biso   1.000  C
  C22      1.0000 0.12890  0.01400  0.42080  Biso   1.000  C
  O1       1.0000 0.37864  0.05721  0.94906  Biso   1.000  O
  O2       1.0000 0.37979  0.99833  0.86456  Biso   1.000  O
  O3       1.0000 0.55425  0.99485  0.82705  Biso   1.000  O
  O4       1.0000 0.62475  0.03921  0.90820  Biso   1.000  O
  O5       1.0000 0.56030  0.13550  0.08270  Biso   1.000  O
  O6       1.0000 0.27075  0.01763  0.07099  Biso   1.000  O
  O7       1.0000 0.28940  0.08993  0.99823  Biso   1.000  O
  O8       1.0000 0.26906  0.24640  0.09367  Biso   1.000  O
  O9       1.0000 0.28481  0.26257  0.21566  Biso   1.000  O
  O10      1.0000 0.22847  0.06878  0.31811  Biso   1.000  O
  Zn1      1.0000 0.30921  0.05349  0.91982  Biso   1.000  Zn
  Zn2      1.0000 0.34412  0.99975  0.76962  Biso   1.000  Zn
  C23      1.0000 0.60450  0.14130  0.12250  Biso   1.000  C
  C24      1.0000 0.61420  0.17730  0.19210  Biso   1.000  C
  C25      1.0000 0.16100  0.06050  0.49740  Biso   1.000  C
  C26      1.0000 0.06876  0.36758  0.24933  Biso   1.000  C
  C27      1.0000 0.12662  0.38362  0.27333  Biso   1.000  C
  C28      1.0000 0.15652  0.36354  0.23483  Biso   1.000  C
  H9       1.0000 0.14027  0.33923  0.19343  Biso   1.000  H
  C29      1.0000 0.21047  0.37947  0.25773  Biso   1.000  C
  C30      1.0000 0.24332  0.35821  0.21693  Biso   1.000  C
  C31      1.0000 0.23397  0.41453  0.31873  Biso   1.000  C
  H10      1.0000 0.27067  0.42483  0.33453  Biso   1.000  H
  C32      1.0000 0.20387  0.43453  0.35643  Biso   1.000  C
  C33      1.0000 0.14987  0.41893  0.33393  Biso   1.000  C
  H11      1.0000 0.12907  0.43243  0.35993  Biso   1.000  H
  C34      1.0000 0.20287  0.48433  0.46403  Biso   1.000  C
  C35      1.0000 0.24417  0.51683  0.53403  Biso   1.000  C
  C36      1.0000 0.25207  0.47603  0.57153  Biso   1.000  C
  C37      1.0000 0.94206  0.39797  0.39263  Biso   1.000  C
  C38      1.0000 0.93012  0.42620  0.45563  Biso   1.000  C
  C39      1.0000 0.93541  0.47857  0.44353  Biso   1.000  C
  H12      1.0000 0.94267  0.49433  0.39493  Biso   1.000  H
  C40      1.0000 0.92998  0.50727  0.50323  Biso   1.000  C
  C41      1.0000 0.93985  0.56488  0.49283  Biso   1.000  C
  C42      1.0000 0.91825  0.48385  0.57453  Biso   1.000  C
  H13      1.0000 0.91637  0.50443  0.61573  Biso   1.000  H
  C43      1.0000 0.90935  0.43024  0.58473  Biso   1.000  C
  C44      1.0000 0.91680  0.40201  0.52593  Biso   1.000  C
  H14      1.0000 0.91277  0.36623  0.53373  Biso   1.000  H
  C45      1.0000 0.88307  0.42713  0.71383  Biso   1.000  C
  H15      1.0000 0.85817  0.44143  0.69833  Biso   1.000  H
  H16      1.0000 0.91797  0.45863  0.73403  Biso   1.000  H
  C46      1.0000 0.85437  0.38143  0.77303  Biso   1.000  C
  C47      1.0000 0.79557  0.34733  0.75413  Biso   1.000  C
  O11      1.0000 0.04531  0.39054  0.28239  Biso   1.000  O
  O12      1.0000 0.04646  0.33166  0.19789  Biso   1.000  O
  O13      1.0000 0.22092  0.32818  0.16038  Biso   1.000  O
  O14      1.0000 0.29142  0.37254  0.24153  Biso   1.000  O
  O15      1.0000 0.22697  0.46883  0.41603  Biso   1.000  O
  O16      1.0000 0.93742  0.35096  0.40432  Biso   1.000  O
  O17      1.0000 0.95607  0.42326  0.33156  Biso   1.000  O
  O18      1.0000 0.93573  0.57973  0.42700  Biso   1.000  O
  O19      1.0000 0.95148  0.59590  0.54899  Biso   1.000  O
  O20      1.0000 0.89514  0.40211  0.65144  Biso   1.000  O
  Zn3      1.0000 0.97588  0.38682  0.25315  Biso   1.000  Zn
  Zn4      1.0000 0.01079  0.33308  0.10295  Biso   1.000  Zn
  C48      1.0000 0.27117  0.47463  0.45583  Biso   1.000  C
  C49      1.0000 0.28087  0.51063  0.52543  Biso   1.000  C
  C50      1.0000 0.82767  0.39383  0.83073  Biso   1.000  C
  C51      1.0000 0.73542  0.70092  0.58267  Biso   1.000  C
  C52      1.0000 0.79328  0.71696  0.60667  Biso   1.000  C
  C53      1.0000 0.82318  0.69688  0.56817  Biso   1.000  C
  H17      1.0000 0.80693  0.67257  0.52677  Biso   1.000  H
  C54      1.0000 0.87713  0.71281  0.59107  Biso   1.000  C
  C55      1.0000 0.90998  0.69155  0.55027  Biso   1.000  C
  C56      1.0000 0.90063  0.74787  0.65207  Biso   1.000  C
  H18      1.0000 0.93733  0.75817  0.66787  Biso   1.000  H
  C57      1.0000 0.87053  0.76787  0.68977  Biso   1.000  C
  C58      1.0000 0.81653  0.75227  0.66727  Biso   1.000  C
  H19      1.0000 0.79573  0.76577  0.69327  Biso   1.000  H
  C59      1.0000 0.86953  0.81767  0.79737  Biso   1.000  C
  C60      1.0000 0.91083  0.85017  0.86737  Biso   1.000  C
  C61      1.0000 0.91873  0.80937  0.90487  Biso   1.000  C
  C62      1.0000 0.60872  0.73131  0.72597  Biso   1.000  C
  C63      1.0000 0.59678  0.75954  0.78897  Biso   1.000  C
  C64      1.0000 0.60207  0.81191  0.77687  Biso   1.000  C
  H20      1.0000 0.60933  0.82767  0.72827  Biso   1.000  H
  C65      1.0000 0.59664  0.84061  0.83657  Biso   1.000  C
  C66      1.0000 0.60651  0.89822  0.82617  Biso   1.000  C
  C67      1.0000 0.58491  0.81719  0.90787  Biso   1.000  C
  H21      1.0000 0.58303  0.83777  0.94907  Biso   1.000  H
  C68      1.0000 0.57601  0.76358  0.91807  Biso   1.000  C
  C69      1.0000 0.58346  0.73535  0.85927  Biso   1.000  C
  H22      1.0000 0.57943  0.69957  0.86707  Biso   1.000  H
  C70      1.0000 0.54973  0.76047  0.04717  Biso   1.000  C
  H23      1.0000 0.52483  0.77477  0.03167  Biso   1.000  H
  H24      1.0000 0.58463  0.79197  0.06737  Biso   1.000  H
  C71      1.0000 0.52103  0.71477  0.10637  Biso   1.000  C
  C72      1.0000 0.46223  0.68067  0.08747  Biso   1.000  C
  O21      1.0000 0.71197  0.72388  0.61573  Biso   1.000  O
  O22      1.0000 0.71312  0.66500  0.53123  Biso   1.000  O
  O23      1.0000 0.88758  0.66152  0.49372  Biso   1.000  O
  O24      1.0000 0.95808  0.70588  0.57487  Biso   1.000  O
  O25      1.0000 0.89363  0.80217  0.74937  Biso   1.000  O
  O26      1.0000 0.60408  0.68430  0.73766  Biso   1.000  O
  O27      1.0000 0.62273  0.75660  0.66490  Biso   1.000  O
  O28      1.0000 0.60239  0.91307  0.76034  Biso   1.000  O
  O29      1.0000 0.61814  0.92924  0.88233  Biso   1.000  O
  O30      1.0000 0.56180  0.73545  0.98478  Biso   1.000  O
  Zn5      1.0000 0.64254  0.72016  0.58649  Biso   1.000  Zn
  Zn6      1.0000 0.67745  0.66642  0.43629  Biso   1.000  Zn
  C73      1.0000 0.93783  0.80797  0.78917  Biso   1.000  C
  C74      1.0000 0.94753  0.84397  0.85877  Biso   1.000  C
  C75      1.0000 0.49433  0.72717  0.16407  Biso   1.000  C
  C76      1.0000 0.96575  0.36784  0.91600  Biso   1.000  C
  C77      1.0000 0.94971  0.40966  0.94000  Biso   1.000  C
  C78      1.0000 0.96979  0.45964  0.90150  Biso   1.000  C
  H25      1.0000 0.99410  0.46770  0.86010  Biso   1.000  H
  C79      1.0000 0.95386  0.49766  0.92440  Biso   1.000  C
  C80      1.0000 0.97512  0.55177  0.88360  Biso   1.000  C
  C81      1.0000 0.91880  0.48610  0.98540  Biso   1.000  C
  H26      1.0000 0.90850  0.51250  0.00120  Biso   1.000  H
  C82      1.0000 0.89880  0.43600  0.02310  Biso   1.000  C
  C83      1.0000 0.91440  0.39760  0.00060  Biso   1.000  C
  H27      1.0000 0.90090  0.36330  0.02660  Biso   1.000  H
  C84      1.0000 0.84900  0.38520  0.13070  Biso   1.000  C
  C85      1.0000 0.81650  0.39400  0.20070  Biso   1.000  C
  C86      1.0000 0.85730  0.44270  0.23820  Biso   1.000  C
  C87      1.0000 0.93536  0.21075  0.05930  Biso   1.000  C
  C88      1.0000 0.90713  0.17058  0.12230  Biso   1.000  C
  C89      1.0000 0.85476  0.12350  0.11020  Biso   1.000  C
  H28      1.0000 0.83900  0.11500  0.06160  Biso   1.000  H
  C90      1.0000 0.82606  0.08937  0.16990  Biso   1.000  C
  C91      1.0000 0.76845  0.04163  0.15950  Biso   1.000  C
  C92      1.0000 0.84948  0.10106  0.24120  Biso   1.000  C
  H29      1.0000 0.82890  0.07860  0.28240  Biso   1.000  H
  C93      1.0000 0.90309  0.14577  0.25140  Biso   1.000  C
  C94      1.0000 0.93132  0.18145  0.19260  Biso   1.000  C
  H30      1.0000 0.96710  0.21320  0.20040  Biso   1.000  H
  C95      1.0000 0.90620  0.12260  0.38050  Biso   1.000  C
  H31      1.0000 0.89190  0.08340  0.36500  Biso   1.000  H
  H32      1.0000 0.87470  0.12600  0.40070  Biso   1.000  H
  C96      1.0000 0.95190  0.13960  0.43970  Biso   1.000  C
  C97      1.0000 0.98600  0.11490  0.42080  Biso   1.000  C
  O31      1.0000 0.94279  0.32143  0.94906  Biso   1.000  O
  O32      1.0000 0.00167  0.38146  0.86456  Biso   1.000  O
  O33      1.0000 0.00515  0.55940  0.82705  Biso   1.000  O
  O34      1.0000 0.96079  0.58554  0.90820  Biso   1.000  O
  O35      1.0000 0.86450  0.42480  0.08270  Biso   1.000  O
  O36      1.0000 0.98237  0.25312  0.07099  Biso   1.000  O
  O37      1.0000 0.91007  0.19947  0.99823  Biso   1.000  O
  O38      1.0000 0.75360  0.02266  0.09367  Biso   1.000  O
  O39      1.0000 0.73743  0.02224  0.21566  Biso   1.000  O
  O40      1.0000 0.93122  0.15969  0.31811  Biso   1.000  O
  Zn7      1.0000 0.94651  0.25572  0.91982  Biso   1.000  Zn
  Zn8      1.0000 0.00025  0.34437  0.76962  Biso   1.000  Zn
  C98      1.0000 0.85870  0.46320  0.12250  Biso   1.000  C
  C99      1.0000 0.82270  0.43690  0.19210  Biso   1.000  C
  C100     1.0000 0.93950  0.10050  0.49740  Biso   1.000  C
  C101     1.0000 0.63242  0.70117  0.24933  Biso   1.000  C
  C102     1.0000 0.61638  0.74299  0.27333  Biso   1.000  C
  C103     1.0000 0.63646  0.79297  0.23483  Biso   1.000  C
  H33      1.0000 0.66077  0.80103  0.19343  Biso   1.000  H
  C104     1.0000 0.62053  0.83099  0.25773  Biso   1.000  C
  C105     1.0000 0.64179  0.88510  0.21693  Biso   1.000  C
  C106     1.0000 0.58547  0.81943  0.31873  Biso   1.000  C
  H34      1.0000 0.57517  0.84583  0.33453  Biso   1.000  H
  C107     1.0000 0.56547  0.76933  0.35643  Biso   1.000  C
  C108     1.0000 0.58107  0.73093  0.33393  Biso   1.000  C
  H35      1.0000 0.56757  0.69663  0.35993  Biso   1.000  H
  C109     1.0000 0.51567  0.71853  0.46403  Biso   1.000  C
  C110     1.0000 0.48317  0.72733  0.53403  Biso   1.000  C
  C111     1.0000 0.52397  0.77603  0.57153  Biso   1.000  C
  C112     1.0000 0.60203  0.54408  0.39263  Biso   1.000  C
  C113     1.0000 0.57380  0.50391  0.45563  Biso   1.000  C
  C114     1.0000 0.52143  0.45683  0.44353  Biso   1.000  C
  H36      1.0000 0.50567  0.44833  0.39493  Biso   1.000  H
  C115     1.0000 0.49273  0.42270  0.50323  Biso   1.000  C
  C116     1.0000 0.43512  0.37496  0.49283  Biso   1.000  C
  C117     1.0000 0.51615  0.43439  0.57453  Biso   1.000  C
  H37      1.0000 0.49557  0.41193  0.61573  Biso   1.000  H
  C118     1.0000 0.56976  0.47910  0.58473  Biso   1.000  C
  C119     1.0000 0.59799  0.51478  0.52593  Biso   1.000  C
  H38      1.0000 0.63377  0.54653  0.53373  Biso   1.000  H
  C120     1.0000 0.57287  0.45593  0.71383  Biso   1.000  C
  H39      1.0000 0.55857  0.41673  0.69833  Biso   1.000  H
  H40      1.0000 0.54137  0.45933  0.73403  Biso   1.000  H
  C121     1.0000 0.61857  0.47293  0.77303  Biso   1.000  C
  C122     1.0000 0.65267  0.44823  0.75413  Biso   1.000  C
  O41      1.0000 0.60946  0.65476  0.28239  Biso   1.000  O
  O42      1.0000 0.66834  0.71479  0.19789  Biso   1.000  O
  O43      1.0000 0.67182  0.89273  0.16038  Biso   1.000  O
  O44      1.0000 0.62746  0.91887  0.24153  Biso   1.000  O
  O45      1.0000 0.53117  0.75813  0.41603  Biso   1.000  O
  O46      1.0000 0.64904  0.58645  0.40432  Biso   1.000  O
  O47      1.0000 0.57674  0.53280  0.33156  Biso   1.000  O
  O48      1.0000 0.42027  0.35599  0.42700  Biso   1.000  O
  O49      1.0000 0.40410  0.35557  0.54899  Biso   1.000  O
  O50      1.0000 0.59789  0.49302  0.65144  Biso   1.000  O
  Zn9      1.0000 0.61318  0.58905  0.25315  Biso   1.000  Zn
  Zn10     1.0000 0.66692  0.67770  0.10295  Biso   1.000  Zn
  C123     1.0000 0.52537  0.79653  0.45583  Biso   1.000  C
  C124     1.0000 0.48937  0.77023  0.52543  Biso   1.000  C
  C125     1.0000 0.60617  0.43383  0.83073  Biso   1.000  C
  C126     1.0000 0.29908  0.03451  0.58267  Biso   1.000  C
  C127     1.0000 0.28304  0.07633  0.60667  Biso   1.000  C
  C128     1.0000 0.30312  0.12631  0.56817  Biso   1.000  C
  H41      1.0000 0.32743  0.13437  0.52677  Biso   1.000  H
  C129     1.0000 0.28719  0.16433  0.59107  Biso   1.000  C
  C130     1.0000 0.30845  0.21844  0.55027  Biso   1.000  C
  C131     1.0000 0.25213  0.15277  0.65207  Biso   1.000  C
  H42      1.0000 0.24183  0.17917  0.66787  Biso   1.000  H
  C132     1.0000 0.23213  0.10267  0.68977  Biso   1.000  C
  C133     1.0000 0.24773  0.06427  0.66727  Biso   1.000  C
  H43      1.0000 0.23423  0.02997  0.69327  Biso   1.000  H
  C134     1.0000 0.18233  0.05187  0.79737  Biso   1.000  C
  C135     1.0000 0.14983  0.06067  0.86737  Biso   1.000  C
  C136     1.0000 0.19063  0.10937  0.90487  Biso   1.000  C
  C137     1.0000 0.26869  0.87742  0.72597  Biso   1.000  C
  C138     1.0000 0.24046  0.83725  0.78897  Biso   1.000  C
  C139     1.0000 0.18809  0.79017  0.77687  Biso   1.000  C
  H44      1.0000 0.17233  0.78167  0.72827  Biso   1.000  H
  C140     1.0000 0.15939  0.75604  0.83657  Biso   1.000  C
  C141     1.0000 0.10178  0.70830  0.82617  Biso   1.000  C
  C142     1.0000 0.18281  0.76773  0.90787  Biso   1.000  C
  H45      1.0000 0.16223  0.74527  0.94907  Biso   1.000  H
  C143     1.0000 0.23642  0.81244  0.91807  Biso   1.000  C
  C144     1.0000 0.26465  0.84812  0.85927  Biso   1.000  C
  H46      1.0000 0.30043  0.87987  0.86707  Biso   1.000  H
  C145     1.0000 0.23953  0.78927  0.04717  Biso   1.000  C
  H47      1.0000 0.22523  0.75007  0.03167  Biso   1.000  H
  H48      1.0000 0.20803  0.79267  0.06737  Biso   1.000  H
  C146     1.0000 0.28523  0.80627  0.10637  Biso   1.000  C
  C147     1.0000 0.31933  0.78157  0.08747  Biso   1.000  C
  O51      1.0000 0.27612  0.98810  0.61573  Biso   1.000  O
  O52      1.0000 0.33500  0.04813  0.53123  Biso   1.000  O
  O53      1.0000 0.33848  0.22607  0.49372  Biso   1.000  O
  O54      1.0000 0.29412  0.25221  0.57487  Biso   1.000  O
  O55      1.0000 0.19783  0.09147  0.74937  Biso   1.000  O
  O56      1.0000 0.31570  0.91979  0.73766  Biso   1.000  O
  O57      1.0000 0.24340  0.86614  0.66490  Biso   1.000  O
  O58      1.0000 0.08693  0.68933  0.76034  Biso   1.000  O
  O59      1.0000 0.07076  0.68891  0.88233  Biso   1.000  O
  O60      1.0000 0.26455  0.82636  0.98478  Biso   1.000  O
  Zn11     1.0000 0.27984  0.92239  0.58649  Biso   1.000  Zn
  Zn12     1.0000 0.33358  0.01104  0.43629  Biso   1.000  Zn
  C148     1.0000 0.19203  0.12987  0.78917  Biso   1.000  C
  C149     1.0000 0.15603  0.10357  0.85877  Biso   1.000  C
  C150     1.0000 0.27283  0.76717  0.16407  Biso   1.000  C
  C151     1.0000 0.63216  0.59791  0.91600  Biso   1.000  C
  C152     1.0000 0.59034  0.54005  0.94000  Biso   1.000  C
  C153     1.0000 0.54036  0.51015  0.90150  Biso   1.000  C
  H49      1.0000 0.53230  0.52640  0.86010  Biso   1.000  H
  C154     1.0000 0.50234  0.45620  0.92440  Biso   1.000  C
  C155     1.0000 0.44823  0.42335  0.88360  Biso   1.000  C
  C156     1.0000 0.51390  0.43270  0.98540  Biso   1.000  C
  H50      1.0000 0.48750  0.39600  0.00120  Biso   1.000  H
  C157     1.0000 0.56400  0.46280  0.02310  Biso   1.000  C
  C158     1.0000 0.60240  0.51680  0.00060  Biso   1.000  C
  H51      1.0000 0.63670  0.53760  0.02660  Biso   1.000  H
  C159     1.0000 0.61480  0.46380  0.13070  Biso   1.000  C
  C160     1.0000 0.60600  0.42250  0.20070  Biso   1.000  C
  C161     1.0000 0.55730  0.41460  0.23820  Biso   1.000  C
  C162     1.0000 0.78925  0.72461  0.05930  Biso   1.000  C
  C163     1.0000 0.82942  0.73655  0.12230  Biso   1.000  C
  C164     1.0000 0.87650  0.73126  0.11020  Biso   1.000  C
  H52      1.0000 0.88500  0.72400  0.06160  Biso   1.000  H
  C165     1.0000 0.91063  0.73669  0.16990  Biso   1.000  C
  C166     1.0000 0.95837  0.72682  0.15950  Biso   1.000  C
  C167     1.0000 0.89894  0.74842  0.24120  Biso   1.000  C
  H53      1.0000 0.92140  0.75030  0.28240  Biso   1.000  H
  C168     1.0000 0.85423  0.75732  0.25140  Biso   1.000  C
  C169     1.0000 0.81855  0.74987  0.19260  Biso   1.000  C
  H54      1.0000 0.78680  0.75390  0.20040  Biso   1.000  H
  C170     1.0000 0.87740  0.78360  0.38050  Biso   1.000  C
  H55      1.0000 0.91660  0.80850  0.36500  Biso   1.000  H
  H56      1.0000 0.87400  0.74870  0.40070  Biso   1.000  H
  C171     1.0000 0.86040  0.81230  0.43970  Biso   1.000  C
  C172     1.0000 0.88510  0.87110  0.42080  Biso   1.000  C
  O61      1.0000 0.67857  0.62136  0.94906  Biso   1.000  O
  O62      1.0000 0.61854  0.62021  0.86456  Biso   1.000  O
  O63      1.0000 0.44060  0.44575  0.82705  Biso   1.000  O
  O64      1.0000 0.41446  0.37525  0.90820  Biso   1.000  O
  O65      1.0000 0.57520  0.43970  0.08270  Biso   1.000  O
  O66      1.0000 0.74688  0.72925  0.07099  Biso   1.000  O
  O67      1.0000 0.80053  0.71060  0.99823  Biso   1.000  O
  O68      1.0000 0.97734  0.73094  0.09367  Biso   1.000  O
  O69      1.0000 0.97776  0.71519  0.21566  Biso   1.000  O
  O70      1.0000 0.84031  0.77153  0.31811  Biso   1.000  O
  Zn13     1.0000 0.74428  0.69079  0.91982  Biso   1.000  Zn
  Zn14     1.0000 0.65563  0.65588  0.76962  Biso   1.000  Zn
  C173     1.0000 0.53680  0.39550  0.12250  Biso   1.000  C
  C174     1.0000 0.56310  0.38580  0.19210  Biso   1.000  C
  C175     1.0000 0.89950  0.83900  0.49740  Biso   1.000  C
  C176     1.0000 0.29883  0.93124  0.24933  Biso   1.000  C
  C177     1.0000 0.25701  0.87338  0.27333  Biso   1.000  C
  C178     1.0000 0.20703  0.84348  0.23483  Biso   1.000  C
  H57      1.0000 0.19897  0.85973  0.19343  Biso   1.000  H
  C179     1.0000 0.16901  0.78953  0.25773  Biso   1.000  C
  C180     1.0000 0.11490  0.75668  0.21693  Biso   1.000  C
  C181     1.0000 0.18057  0.76603  0.31873  Biso   1.000  C
  H58      1.0000 0.15417  0.72933  0.33453  Biso   1.000  H
  C182     1.0000 0.23067  0.79613  0.35643  Biso   1.000  C
  C183     1.0000 0.26907  0.85013  0.33393  Biso   1.000  C
  H59      1.0000 0.30337  0.87093  0.35993  Biso   1.000  H
  C184     1.0000 0.28147  0.79713  0.46403  Biso   1.000  C
  C185     1.0000 0.27267  0.75583  0.53403  Biso   1.000  C
  C186     1.0000 0.22397  0.74793  0.57153  Biso   1.000  C
  C187     1.0000 0.45592  0.05794  0.39263  Biso   1.000  C
  C188     1.0000 0.49609  0.06988  0.45563  Biso   1.000  C
  C189     1.0000 0.54317  0.06459  0.44353  Biso   1.000  C
  H60      1.0000 0.55167  0.05733  0.39493  Biso   1.000  H
  C190     1.0000 0.57730  0.07002  0.50323  Biso   1.000  C
  C191     1.0000 0.62504  0.06015  0.49283  Biso   1.000  C
  C192     1.0000 0.56561  0.08175  0.57453  Biso   1.000  C
  H61      1.0000 0.58807  0.08363  0.61573  Biso   1.000  H
  C193     1.0000 0.52090  0.09065  0.58473  Biso   1.000  C
  C194     1.0000 0.48522  0.08320  0.52593  Biso   1.000  C
  H62      1.0000 0.45347  0.08723  0.53373  Biso   1.000  H
  C195     1.0000 0.54407  0.11693  0.71383  Biso   1.000  C
  H63      1.0000 0.58327  0.14183  0.69833  Biso   1.000  H
  H64      1.0000 0.54067  0.08203  0.73403  Biso   1.000  H
  C196     1.0000 0.52707  0.14563  0.77303  Biso   1.000  C
  C197     1.0000 0.55177  0.20443  0.75413  Biso   1.000  C
  O71      1.0000 0.34524  0.95469  0.28239  Biso   1.000  O
  O72      1.0000 0.28521  0.95354  0.19789  Biso   1.000  O
  O73      1.0000 0.10727  0.77908  0.16038  Biso   1.000  O
  O74      1.0000 0.08113  0.70858  0.24153  Biso   1.000  O
  O75      1.0000 0.24187  0.77303  0.41603  Biso   1.000  O
  O76      1.0000 0.41355  0.06258  0.40432  Biso   1.000  O
  O77      1.0000 0.46720  0.04393  0.33156  Biso   1.000  O
  O78      1.0000 0.64401  0.06427  0.42700  Biso   1.000  O
  O79      1.0000 0.64443  0.04852  0.54899  Biso   1.000  O
  O80      1.0000 0.50698  0.10486  0.65144  Biso   1.000  O
  Zn15     1.0000 0.41095  0.02412  0.25315  Biso   1.000  Zn
  Zn16     1.0000 0.32230  0.98921  0.10295  Biso   1.000  Zn
  C198     1.0000 0.20347  0.72883  0.45583  Biso   1.000  C
  C199     1.0000 0.22977  0.71913  0.52543  Biso   1.000  C
  C200     1.0000 0.56617  0.17233  0.83073  Biso   1.000  C
  C201     1.0000 0.96549  0.26458  0.58267  Biso   1.000  C
  C202     1.0000 0.92367  0.20672  0.60667  Biso   1.000  C
  C203     1.0000 0.87369  0.17682  0.56817  Biso   1.000  C
  H65      1.0000 0.86563  0.19307  0.52677  Biso   1.000  H
  C204     1.0000 0.83567  0.12287  0.59107  Biso   1.000  C
  C205     1.0000 0.78156  0.09002  0.55027  Biso   1.000  C
  C206     1.0000 0.84723  0.09937  0.65207  Biso   1.000  C
  H66      1.0000 0.82083  0.06267  0.66787  Biso   1.000  H
  C207     1.0000 0.89733  0.12947  0.68977  Biso   1.000  C
  C208     1.0000 0.93573  0.18347  0.66727  Biso   1.000  C
  H67      1.0000 0.97003  0.20427  0.69327  Biso   1.000  H
  C209     1.0000 0.94813  0.13047  0.79737  Biso   1.000  C
  C210     1.0000 0.93933  0.08917  0.86737  Biso   1.000  C
  C211     1.0000 0.89063  0.08127  0.90487  Biso   1.000  C
  C212     1.0000 0.12258  0.39128  0.72597  Biso   1.000  C
  C213     1.0000 0.16275  0.40322  0.78897  Biso   1.000  C
  C214     1.0000 0.20983  0.39793  0.77687  Biso   1.000  C
  H68      1.0000 0.21833  0.39067  0.72827  Biso   1.000  H
  C215     1.0000 0.24396  0.40336  0.83657  Biso   1.000  C
  C216     1.0000 0.29170  0.39349  0.82617  Biso   1.000  C
  C217     1.0000 0.23227  0.41509  0.90787  Biso   1.000  C
  H69      1.0000 0.25473  0.41697  0.94907  Biso   1.000  H
  C218     1.0000 0.18756  0.42399  0.91807  Biso   1.000  C
  C219     1.0000 0.15188  0.41654  0.85927  Biso   1.000  C
  H70      1.0000 0.12013  0.42057  0.86707  Biso   1.000  H
  C220     1.0000 0.21073  0.45027  0.04717  Biso   1.000  C
  H71      1.0000 0.24993  0.47517  0.03167  Biso   1.000  H
  H72      1.0000 0.20733  0.41537  0.06737  Biso   1.000  H
  C221     1.0000 0.19373  0.47897  0.10637  Biso   1.000  C
  C222     1.0000 0.21843  0.53777  0.08747  Biso   1.000  C
  O81      1.0000 0.01190  0.28803  0.61573  Biso   1.000  O
  O82      1.0000 0.95187  0.28688  0.53123  Biso   1.000  O
  O83      1.0000 0.77393  0.11242  0.49372  Biso   1.000  O
  O84      1.0000 0.74779  0.04192  0.57487  Biso   1.000  O
  O85      1.0000 0.90853  0.10637  0.74937  Biso   1.000  O
  O86      1.0000 0.08021  0.39592  0.73766  Biso   1.000  O
  O87      1.0000 0.13386  0.37727  0.66490  Biso   1.000  O
  O88      1.0000 0.31067  0.39761  0.76034  Biso   1.000  O
  O89      1.0000 0.31109  0.38186  0.88233  Biso   1.000  O
  O90      1.0000 0.17364  0.43820  0.98478  Biso   1.000  O
  Zn17     1.0000 0.07761  0.35746  0.58649  Biso   1.000  Zn
  Zn18     1.0000 0.98896  0.32255  0.43629  Biso   1.000  Zn
  C223     1.0000 0.87013  0.06217  0.78917  Biso   1.000  C
  C224     1.0000 0.89643  0.05247  0.85877  Biso   1.000  C
  C225     1.0000 0.23283  0.50567  0.16407  Biso   1.000  C
  C226     1.0000 0.59791  0.96575  0.08400  Biso   1.000  C
  C227     1.0000 0.54005  0.94971  0.06000  Biso   1.000  C
  C228     1.0000 0.51015  0.96979  0.09850  Biso   1.000  C
  H73      1.0000 0.52640  0.99410  0.13990  Biso   1.000  H
  C229     1.0000 0.45620  0.95386  0.07560  Biso   1.000  C
  C230     1.0000 0.42335  0.97512  0.11640  Biso   1.000  C
  C231     1.0000 0.43270  0.91880  0.01460  Biso   1.000  C
  H74      1.0000 0.39600  0.90850  0.99880  Biso   1.000  H
  C232     1.0000 0.46280  0.89880  0.97690  Biso   1.000  C
  C233     1.0000 0.51680  0.91440  0.99940  Biso   1.000  C
  H75      1.0000 0.53760  0.90090  0.97340  Biso   1.000  H
  C234     1.0000 0.46380  0.84900  0.86930  Biso   1.000  C
  C235     1.0000 0.42250  0.81650  0.79930  Biso   1.000  C
  C236     1.0000 0.41460  0.85730  0.76180  Biso   1.000  C
  C237     1.0000 0.72461  0.93536  0.94070  Biso   1.000  C
  C238     1.0000 0.73655  0.90713  0.87770  Biso   1.000  C
  C239     1.0000 0.73126  0.85476  0.88980  Biso   1.000  C
  H76      1.0000 0.72400  0.83900  0.93840  Biso   1.000  H
  C240     1.0000 0.73669  0.82606  0.83010  Biso   1.000  C
  C241     1.0000 0.72682  0.76845  0.84050  Biso   1.000  C
  C242     1.0000 0.74842  0.84948  0.75880  Biso   1.000  C
  H77      1.0000 0.75030  0.82890  0.71760  Biso   1.000  H
  C243     1.0000 0.75732  0.90309  0.74860  Biso   1.000  C
  C244     1.0000 0.74987  0.93132  0.80740  Biso   1.000  C
  H78      1.0000 0.75390  0.96710  0.79960  Biso   1.000  H
  C245     1.0000 0.78360  0.90620  0.61950  Biso   1.000  C
  H79      1.0000 0.80850  0.89190  0.63500  Biso   1.000  H
  H80      1.0000 0.74870  0.87470  0.59930  Biso   1.000  H
  C246     1.0000 0.81230  0.95190  0.56030  Biso   1.000  C
  C247     1.0000 0.87110  0.98600  0.57920  Biso   1.000  C
  O91      1.0000 0.62136  0.94279  0.05094  Biso   1.000  O
  O92      1.0000 0.62021  0.00167  0.13544  Biso   1.000  O
  O93      1.0000 0.44575  0.00515  0.17295  Biso   1.000  O
  O94      1.0000 0.37525  0.96079  0.09180  Biso   1.000  O
  O95      1.0000 0.43970  0.86450  0.91730  Biso   1.000  O
  O96      1.0000 0.72925  0.98237  0.92901  Biso   1.000  O
  O97      1.0000 0.71060  0.91007  0.00177  Biso   1.000  O
  O98      1.0000 0.73094  0.75360  0.90633  Biso   1.000  O
  O99      1.0000 0.71519  0.73743  0.78434  Biso   1.000  O
  O100     1.0000 0.77153  0.93122  0.68189  Biso   1.000  O
  Zn19     1.0000 0.69079  0.94651  0.08018  Biso   1.000  Zn
  Zn20     1.0000 0.65588  0.00025  0.23038  Biso   1.000  Zn
  C248     1.0000 0.39550  0.85870  0.87750  Biso   1.000  C
  C249     1.0000 0.38580  0.82270  0.80790  Biso   1.000  C
  C250     1.0000 0.83900  0.93950  0.50260  Biso   1.000  C
  C251     1.0000 0.26458  0.29908  0.41733  Biso   1.000  C
  C252     1.0000 0.20672  0.28304  0.39333  Biso   1.000  C
  C253     1.0000 0.17682  0.30312  0.43183  Biso   1.000  C
  H81      1.0000 0.19307  0.32743  0.47323  Biso   1.000  H
  C254     1.0000 0.12287  0.28719  0.40893  Biso   1.000  C
  C255     1.0000 0.09002  0.30845  0.44973  Biso   1.000  C
  C256     1.0000 0.09937  0.25213  0.34793  Biso   1.000  C
  H82      1.0000 0.06267  0.24183  0.33213  Biso   1.000  H
  C257     1.0000 0.12947  0.23213  0.31023  Biso   1.000  C
  C258     1.0000 0.18347  0.24773  0.33273  Biso   1.000  C
  H83      1.0000 0.20427  0.23423  0.30673  Biso   1.000  H
  C259     1.0000 0.13047  0.18233  0.20263  Biso   1.000  C
  C260     1.0000 0.08917  0.14983  0.13263  Biso   1.000  C
  C261     1.0000 0.08127  0.19063  0.09513  Biso   1.000  C
  C262     1.0000 0.39128  0.26869  0.27403  Biso   1.000  C
  C263     1.0000 0.40322  0.24046  0.21103  Biso   1.000  C
  C264     1.0000 0.39793  0.18809  0.22313  Biso   1.000  C
  H84      1.0000 0.39067  0.17233  0.27173  Biso   1.000  H
  C265     1.0000 0.40336  0.15939  0.16343  Biso   1.000  C
  C266     1.0000 0.39349  0.10178  0.17383  Biso   1.000  C
  C267     1.0000 0.41509  0.18281  0.09213  Biso   1.000  C
  H85      1.0000 0.41697  0.16223  0.05093  Biso   1.000  H
  C268     1.0000 0.42399  0.23642  0.08193  Biso   1.000  C
  C269     1.0000 0.41654  0.26465  0.14073  Biso   1.000  C
  H86      1.0000 0.42057  0.30043  0.13293  Biso   1.000  H
  C270     1.0000 0.45027  0.23953  0.95283  Biso   1.000  C
  H87      1.0000 0.47517  0.22523  0.96833  Biso   1.000  H
  H88      1.0000 0.41537  0.20803  0.93263  Biso   1.000  H
  C271     1.0000 0.47897  0.28523  0.89363  Biso   1.000  C
  C272     1.0000 0.53777  0.31933  0.91253  Biso   1.000  C
  O101     1.0000 0.28803  0.27612  0.38427  Biso   1.000  O
  O102     1.0000 0.28688  0.33500  0.46877  Biso   1.000  O
  O103     1.0000 0.11242  0.33848  0.50628  Biso   1.000  O
  O104     1.0000 0.04192  0.29412  0.42513  Biso   1.000  O
  O105     1.0000 0.10637  0.19783  0.25063  Biso   1.000  O
  O106     1.0000 0.39592  0.31570  0.26234  Biso   1.000  O
  O107     1.0000 0.37727  0.24340  0.33510  Biso   1.000  O
  O108     1.0000 0.39761  0.08693  0.23966  Biso   1.000  O
  O109     1.0000 0.38186  0.07076  0.11767  Biso   1.000  O
  O110     1.0000 0.43820  0.26455  0.01522  Biso   1.000  O
  Zn21     1.0000 0.35746  0.27984  0.41351  Biso   1.000  Zn
  Zn22     1.0000 0.32255  0.33358  0.56371  Biso   1.000  Zn
  C273     1.0000 0.06217  0.19203  0.21083  Biso   1.000  C
  C274     1.0000 0.05247  0.15603  0.14123  Biso   1.000  C
  C275     1.0000 0.50567  0.27283  0.83593  Biso   1.000  C
  C276     1.0000 0.93124  0.63242  0.75067  Biso   1.000  C
  C277     1.0000 0.87338  0.61638  0.72667  Biso   1.000  C
  C278     1.0000 0.84348  0.63646  0.76517  Biso   1.000  C
  H89      1.0000 0.85973  0.66077  0.80657  Biso   1.000  H
  C279     1.0000 0.78953  0.62053  0.74227  Biso   1.000  C
  C280     1.0000 0.75668  0.64179  0.78307  Biso   1.000  C
  C281     1.0000 0.76603  0.58547  0.68127  Biso   1.000  C
  H90      1.0000 0.72933  0.57517  0.66547  Biso   1.000  H
  C282     1.0000 0.79613  0.56547  0.64357  Biso   1.000  C
  C283     1.0000 0.85013  0.58107  0.66607  Biso   1.000  C
  H91      1.0000 0.87093  0.56757  0.64007  Biso   1.000  H
  C284     1.0000 0.79713  0.51567  0.53597  Biso   1.000  C
  C285     1.0000 0.75583  0.48317  0.46597  Biso   1.000  C
  C286     1.0000 0.74793  0.52397  0.42847  Biso   1.000  C
  C287     1.0000 0.05794  0.60203  0.60737  Biso   1.000  C
  C288     1.0000 0.06988  0.57380  0.54437  Biso   1.000  C
  C289     1.0000 0.06459  0.52143  0.55647  Biso   1.000  C
  H92      1.0000 0.05733  0.50567  0.60507  Biso   1.000  H
  C290     1.0000 0.07002  0.49273  0.49677  Biso   1.000  C
  C291     1.0000 0.06015  0.43512  0.50717  Biso   1.000  C
  C292     1.0000 0.08175  0.51615  0.42547  Biso   1.000  C
  H93      1.0000 0.08363  0.49557  0.38427  Biso   1.000  H
  C293     1.0000 0.09065  0.56976  0.41527  Biso   1.000  C
  C294     1.0000 0.08320  0.59799  0.47407  Biso   1.000  C
  H94      1.0000 0.08723  0.63377  0.46627  Biso   1.000  H
  C295     1.0000 0.11693  0.57287  0.28617  Biso   1.000  C
  H95      1.0000 0.14183  0.55857  0.30167  Biso   1.000  H
  H96      1.0000 0.08203  0.54137  0.26597  Biso   1.000  H
  C296     1.0000 0.14563  0.61857  0.22697  Biso   1.000  C
  C297     1.0000 0.20443  0.65267  0.24587  Biso   1.000  C
  O111     1.0000 0.95469  0.60946  0.71761  Biso   1.000  O
  O112     1.0000 0.95354  0.66834  0.80211  Biso   1.000  O
  O113     1.0000 0.77908  0.67182  0.83962  Biso   1.000  O
  O114     1.0000 0.70858  0.62746  0.75847  Biso   1.000  O
  O115     1.0000 0.77303  0.53117  0.58397  Biso   1.000  O
  O116     1.0000 0.06258  0.64904  0.59568  Biso   1.000  O
  O117     1.0000 0.04393  0.57674  0.66844  Biso   1.000  O
  O118     1.0000 0.06427  0.42027  0.57300  Biso   1.000  O
  O119     1.0000 0.04852  0.40410  0.45101  Biso   1.000  O
  O120     1.0000 0.10486  0.59789  0.34856  Biso   1.000  O
  Zn23     1.0000 0.02412  0.61318  0.74685  Biso   1.000  Zn
  Zn24     1.0000 0.98921  0.66692  0.89705  Biso   1.000  Zn
  C298     1.0000 0.72883  0.52537  0.54417  Biso   1.000  C
  C299     1.0000 0.71913  0.48937  0.47457  Biso   1.000  C
  C300     1.0000 0.17233  0.60617  0.16927  Biso   1.000  C
  C301     1.0000 0.03425  0.63216  0.08400  Biso   1.000  C
  C302     1.0000 0.05029  0.59034  0.06000  Biso   1.000  C
  C303     1.0000 0.03021  0.54036  0.09850  Biso   1.000  C
  H97      1.0000 0.00590  0.53230  0.13990  Biso   1.000  H
  C304     1.0000 0.04614  0.50234  0.07560  Biso   1.000  C
  C305     1.0000 0.02488  0.44823  0.11640  Biso   1.000  C
  C306     1.0000 0.08120  0.51390  0.01460  Biso   1.000  C
  H98      1.0000 0.09150  0.48750  0.99880  Biso   1.000  H
  C307     1.0000 0.10120  0.56400  0.97690  Biso   1.000  C
  C308     1.0000 0.08560  0.60240  0.99940  Biso   1.000  C
  H99      1.0000 0.09910  0.63670  0.97340  Biso   1.000  H
  C309     1.0000 0.15100  0.61480  0.86930  Biso   1.000  C
  C310     1.0000 0.18350  0.60600  0.79930  Biso   1.000  C
  C311     1.0000 0.14270  0.55730  0.76180  Biso   1.000  C
  C312     1.0000 0.06464  0.78925  0.94070  Biso   1.000  C
  C313     1.0000 0.09287  0.82942  0.87770  Biso   1.000  C
  C314     1.0000 0.14524  0.87650  0.88980  Biso   1.000  C
  H100     1.0000 0.16100  0.88500  0.93840  Biso   1.000  H
  C315     1.0000 0.17394  0.91063  0.83010  Biso   1.000  C
  C316     1.0000 0.23155  0.95837  0.84050  Biso   1.000  C
  C317     1.0000 0.15052  0.89894  0.75880  Biso   1.000  C
  H101     1.0000 0.17110  0.92140  0.71760  Biso   1.000  H
  C318     1.0000 0.09691  0.85423  0.74860  Biso   1.000  C
  C319     1.0000 0.06868  0.81855  0.80740  Biso   1.000  C
  H102     1.0000 0.03290  0.78680  0.79960  Biso   1.000  H
  C320     1.0000 0.09380  0.87740  0.61950  Biso   1.000  C
  H103     1.0000 0.10810  0.91660  0.63500  Biso   1.000  H
  H104     1.0000 0.12530  0.87400  0.59930  Biso   1.000  H
  C321     1.0000 0.04810  0.86040  0.56030  Biso   1.000  C
  C322     1.0000 0.01400  0.88510  0.57920  Biso   1.000  C
  O121     1.0000 0.05721  0.67857  0.05094  Biso   1.000  O
  O122     1.0000 0.99833  0.61854  0.13544  Biso   1.000  O
  O123     1.0000 0.99485  0.44060  0.17295  Biso   1.000  O
  O124     1.0000 0.03921  0.41446  0.09180  Biso   1.000  O
  O125     1.0000 0.13550  0.57520  0.91730  Biso   1.000  O
  O126     1.0000 0.01763  0.74688  0.92901  Biso   1.000  O
  O127     1.0000 0.08993  0.80053  0.00177  Biso   1.000  O
  O128     1.0000 0.24640  0.97734  0.90633  Biso   1.000  O
  O129     1.0000 0.26257  0.97776  0.78434  Biso   1.000  O
  O130     1.0000 0.06878  0.84031  0.68189  Biso   1.000  O
  Zn25     1.0000 0.05349  0.74428  0.08018  Biso   1.000  Zn
  Zn26     1.0000 0.99975  0.65563  0.23038  Biso   1.000  Zn
  C323     1.0000 0.14130  0.53680  0.87750  Biso   1.000  C
  C324     1.0000 0.17730  0.56310  0.80790  Biso   1.000  C
  C325     1.0000 0.06050  0.89950  0.50260  Biso   1.000  C
  C326     1.0000 0.70092  0.96549  0.41733  Biso   1.000  C
  C327     1.0000 0.71696  0.92367  0.39333  Biso   1.000  C
  C328     1.0000 0.69688  0.87369  0.43183  Biso   1.000  C
  H105     1.0000 0.67257  0.86563  0.47323  Biso   1.000  H
  C329     1.0000 0.71281  0.83567  0.40893  Biso   1.000  C
  C330     1.0000 0.69155  0.78156  0.44973  Biso   1.000  C
  C331     1.0000 0.74787  0.84723  0.34793  Biso   1.000  C
  H106     1.0000 0.75817  0.82083  0.33213  Biso   1.000  H
  C332     1.0000 0.76787  0.89733  0.31023  Biso   1.000  C
  C333     1.0000 0.75227  0.93573  0.33273  Biso   1.000  C
  H107     1.0000 0.76577  0.97003  0.30673  Biso   1.000  H
  C334     1.0000 0.81767  0.94813  0.20263  Biso   1.000  C
  C335     1.0000 0.85017  0.93933  0.13263  Biso   1.000  C
  C336     1.0000 0.80937  0.89063  0.09513  Biso   1.000  C
  C337     1.0000 0.73131  0.12258  0.27403  Biso   1.000  C
  C338     1.0000 0.75954  0.16275  0.21103  Biso   1.000  C
  C339     1.0000 0.81191  0.20983  0.22313  Biso   1.000  C
  H108     1.0000 0.82767  0.21833  0.27173  Biso   1.000  H
  C340     1.0000 0.84061  0.24396  0.16343  Biso   1.000  C
  C341     1.0000 0.89822  0.29170  0.17383  Biso   1.000  C
  C342     1.0000 0.81719  0.23227  0.09213  Biso   1.000  C
  H109     1.0000 0.83777  0.25473  0.05093  Biso   1.000  H
  C343     1.0000 0.76358  0.18756  0.08193  Biso   1.000  C
  C344     1.0000 0.73535  0.15188  0.14073  Biso   1.000  C
  H110     1.0000 0.69957  0.12013  0.13293  Biso   1.000  H
  C345     1.0000 0.76047  0.21073  0.95283  Biso   1.000  C
  H111     1.0000 0.77477  0.24993  0.96833  Biso   1.000  H
  H112     1.0000 0.79197  0.20733  0.93263  Biso   1.000  H
  C346     1.0000 0.71477  0.19373  0.89363  Biso   1.000  C
  C347     1.0000 0.68067  0.21843  0.91253  Biso   1.000  C
  O131     1.0000 0.72388  0.01190  0.38427  Biso   1.000  O
  O132     1.0000 0.66500  0.95187  0.46877  Biso   1.000  O
  O133     1.0000 0.66152  0.77393  0.50628  Biso   1.000  O
  O134     1.0000 0.70588  0.74779  0.42513  Biso   1.000  O
  O135     1.0000 0.80217  0.90853  0.25063  Biso   1.000  O
  O136     1.0000 0.68430  0.08021  0.26234  Biso   1.000  O
  O137     1.0000 0.75660  0.13386  0.33510  Biso   1.000  O
  O138     1.0000 0.91307  0.31067  0.23966  Biso   1.000  O
  O139     1.0000 0.92924  0.31109  0.11767  Biso   1.000  O
  O140     1.0000 0.73545  0.17364  0.01522  Biso   1.000  O
  Zn27     1.0000 0.72016  0.07761  0.41351  Biso   1.000  Zn
  Zn28     1.0000 0.66642  0.98896  0.56371  Biso   1.000  Zn
  C348     1.0000 0.80797  0.87013  0.21083  Biso   1.000  C
  C349     1.0000 0.84397  0.89643  0.14123  Biso   1.000  C
  C350     1.0000 0.72717  0.23283  0.83593  Biso   1.000  C
  C351     1.0000 0.36758  0.29883  0.75067  Biso   1.000  C
  C352     1.0000 0.38362  0.25701  0.72667  Biso   1.000  C
  C353     1.0000 0.36354  0.20703  0.76517  Biso   1.000  C
  H113     1.0000 0.33923  0.19897  0.80657  Biso   1.000  H
  C354     1.0000 0.37947  0.16901  0.74227  Biso   1.000  C
  C355     1.0000 0.35821  0.11490  0.78307  Biso   1.000  C
  C356     1.0000 0.41453  0.18057  0.68127  Biso   1.000  C
  H114     1.0000 0.42483  0.15417  0.66547  Biso   1.000  H
  C357     1.0000 0.43453  0.23067  0.64357  Biso   1.000  C
  C358     1.0000 0.41893  0.26907  0.66607  Biso   1.000  C
  H115     1.0000 0.43243  0.30337  0.64007  Biso   1.000  H
  C359     1.0000 0.48433  0.28147  0.53597  Biso   1.000  C
  C360     1.0000 0.51683  0.27267  0.46597  Biso   1.000  C
  C361     1.0000 0.47603  0.22397  0.42847  Biso   1.000  C
  C362     1.0000 0.39797  0.45592  0.60737  Biso   1.000  C
  C363     1.0000 0.42620  0.49609  0.54437  Biso   1.000  C
  C364     1.0000 0.47857  0.54317  0.55647  Biso   1.000  C
  H116     1.0000 0.49433  0.55167  0.60507  Biso   1.000  H
  C365     1.0000 0.50727  0.57730  0.49677  Biso   1.000  C
  C366     1.0000 0.56488  0.62504  0.50717  Biso   1.000  C
  C367     1.0000 0.48385  0.56561  0.42547  Biso   1.000  C
  H117     1.0000 0.50443  0.58807  0.38427  Biso   1.000  H
  C368     1.0000 0.43024  0.52090  0.41527  Biso   1.000  C
  C369     1.0000 0.40201  0.48522  0.47407  Biso   1.000  C
  H118     1.0000 0.36623  0.45347  0.46627  Biso   1.000  H
  C370     1.0000 0.42713  0.54407  0.28617  Biso   1.000  C
  H119     1.0000 0.44143  0.58327  0.30167  Biso   1.000  H
  H120     1.0000 0.45863  0.54067  0.26597  Biso   1.000  H
  C371     1.0000 0.38143  0.52707  0.22697  Biso   1.000  C
  C372     1.0000 0.34733  0.55177  0.24587  Biso   1.000  C
  O141     1.0000 0.39054  0.34524  0.71761  Biso   1.000  O
  O142     1.0000 0.33166  0.28521  0.80211  Biso   1.000  O
  O143     1.0000 0.32818  0.10727  0.83962  Biso   1.000  O
  O144     1.0000 0.37254  0.08113  0.75847  Biso   1.000  O
  O145     1.0000 0.46883  0.24187  0.58397  Biso   1.000  O
  O146     1.0000 0.35096  0.41355  0.59568  Biso   1.000  O
  O147     1.0000 0.42326  0.46720  0.66844  Biso   1.000  O
  O148     1.0000 0.57973  0.64401  0.57300  Biso   1.000  O
  O149     1.0000 0.59590  0.64443  0.45101  Biso   1.000  O
  O150     1.0000 0.40211  0.50698  0.34856  Biso   1.000  O
  Zn29     1.0000 0.38682  0.41095  0.74685  Biso   1.000  Zn
  Zn30     1.0000 0.33308  0.32230  0.89705  Biso   1.000  Zn
  C373     1.0000 0.47463  0.20347  0.54417  Biso   1.000  C
  C374     1.0000 0.51063  0.22977  0.47457  Biso   1.000  C
  C375     1.0000 0.39383  0.56617  0.16927  Biso   1.000  C
  C376     1.0000 0.36784  0.40209  0.08400  Biso   1.000  C
  C377     1.0000 0.40966  0.45995  0.06000  Biso   1.000  C
  C378     1.0000 0.45964  0.48985  0.09850  Biso   1.000  C
  H121     1.0000 0.46770  0.47360  0.13990  Biso   1.000  H
  C379     1.0000 0.49766  0.54380  0.07560  Biso   1.000  C
  C380     1.0000 0.55177  0.57665  0.11640  Biso   1.000  C
  C381     1.0000 0.48610  0.56730  0.01460  Biso   1.000  C
  H122     1.0000 0.51250  0.60400  0.99880  Biso   1.000  H
  C382     1.0000 0.43600  0.53720  0.97690  Biso   1.000  C
  C383     1.0000 0.39760  0.48320  0.99940  Biso   1.000  C
  H123     1.0000 0.36330  0.46240  0.97340  Biso   1.000  H
  C384     1.0000 0.38520  0.53620  0.86930  Biso   1.000  C
  C385     1.0000 0.39400  0.57750  0.79930  Biso   1.000  C
  C386     1.0000 0.44270  0.58540  0.76180  Biso   1.000  C
  C387     1.0000 0.21075  0.27539  0.94070  Biso   1.000  C
  C388     1.0000 0.17058  0.26345  0.87770  Biso   1.000  C
  C389     1.0000 0.12350  0.26874  0.88980  Biso   1.000  C
  H124     1.0000 0.11500  0.27600  0.93840  Biso   1.000  H
  C390     1.0000 0.08937  0.26331  0.83010  Biso   1.000  C
  C391     1.0000 0.04163  0.27318  0.84050  Biso   1.000  C
  C392     1.0000 0.10106  0.25158  0.75880  Biso   1.000  C
  H125     1.0000 0.07860  0.24970  0.71760  Biso   1.000  H
  C393     1.0000 0.14577  0.24268  0.74860  Biso   1.000  C
  C394     1.0000 0.18145  0.25013  0.80740  Biso   1.000  C
  H126     1.0000 0.21320  0.24610  0.79960  Biso   1.000  H
  C395     1.0000 0.12260  0.21640  0.61950  Biso   1.000  C
  H127     1.0000 0.08340  0.19150  0.63500  Biso   1.000  H
  H128     1.0000 0.12600  0.25130  0.59930  Biso   1.000  H
  C396     1.0000 0.13960  0.18770  0.56030  Biso   1.000  C
  C397     1.0000 0.11490  0.12890  0.57920  Biso   1.000  C
  O151     1.0000 0.32143  0.37864  0.05094  Biso   1.000  O
  O152     1.0000 0.38146  0.37979  0.13544  Biso   1.000  O
  O153     1.0000 0.55940  0.55425  0.17295  Biso   1.000  O
  O154     1.0000 0.58554  0.62475  0.09180  Biso   1.000  O
  O155     1.0000 0.42480  0.56030  0.91730  Biso   1.000  O
  O156     1.0000 0.25312  0.27075  0.92901  Biso   1.000  O
  O157     1.0000 0.19947  0.28940  0.00177  Biso   1.000  O
  O158     1.0000 0.02266  0.26906  0.90633  Biso   1.000  O
  O159     1.0000 0.02224  0.28481  0.78434  Biso   1.000  O
  O160     1.0000 0.15969  0.22847  0.68189  Biso   1.000  O
  Zn31     1.0000 0.25572  0.30921  0.08018  Biso   1.000  Zn
  Zn32     1.0000 0.34437  0.34412  0.23038  Biso   1.000  Zn
  C398     1.0000 0.46320  0.60450  0.87750  Biso   1.000  C
  C399     1.0000 0.43690  0.61420  0.80790  Biso   1.000  C
  C400     1.0000 0.10050  0.16100  0.50260  Biso   1.000  C
  C401     1.0000 0.03451  0.73542  0.41733  Biso   1.000  C
  C402     1.0000 0.07633  0.79328  0.39333  Biso   1.000  C
  C403     1.0000 0.12631  0.82318  0.43183  Biso   1.000  C
  H129     1.0000 0.13437  0.80693  0.47323  Biso   1.000  H
  C404     1.0000 0.16433  0.87713  0.40893  Biso   1.000  C
  C405     1.0000 0.21844  0.90998  0.44973  Biso   1.000  C
  C406     1.0000 0.15277  0.90063  0.34793  Biso   1.000  C
  H130     1.0000 0.17917  0.93733  0.33213  Biso   1.000  H
  C407     1.0000 0.10267  0.87053  0.31023  Biso   1.000  C
  C408     1.0000 0.06427  0.81653  0.33273  Biso   1.000  C
  H131     1.0000 0.02997  0.79573  0.30673  Biso   1.000  H
  C409     1.0000 0.05187  0.86953  0.20263  Biso   1.000  C
  C410     1.0000 0.06067  0.91083  0.13263  Biso   1.000  C
  C411     1.0000 0.10937  0.91873  0.09513  Biso   1.000  C
  C412     1.0000 0.87742  0.60872  0.27403  Biso   1.000  C
  C413     1.0000 0.83725  0.59678  0.21103  Biso   1.000  C
  C414     1.0000 0.79017  0.60207  0.22313  Biso   1.000  C
  H132     1.0000 0.78167  0.60933  0.27173  Biso   1.000  H
  C415     1.0000 0.75604  0.59664  0.16343  Biso   1.000  C
  C416     1.0000 0.70830  0.60651  0.17383  Biso   1.000  C
  C417     1.0000 0.76773  0.58491  0.09213  Biso   1.000  C
  H133     1.0000 0.74527  0.58303  0.05093  Biso   1.000  H
  C418     1.0000 0.81244  0.57601  0.08193  Biso   1.000  C
  C419     1.0000 0.84812  0.58346  0.14073  Biso   1.000  C
  H134     1.0000 0.87987  0.57943  0.13293  Biso   1.000  H
  C420     1.0000 0.78927  0.54973  0.95283  Biso   1.000  C
  H135     1.0000 0.75007  0.52483  0.96833  Biso   1.000  H
  H136     1.0000 0.79267  0.58463  0.93263  Biso   1.000  H
  C421     1.0000 0.80627  0.52103  0.89363  Biso   1.000  C
  C422     1.0000 0.78157  0.46223  0.91253  Biso   1.000  C
  O161     1.0000 0.98810  0.71197  0.38427  Biso   1.000  O
  O162     1.0000 0.04813  0.71312  0.46877  Biso   1.000  O
  O163     1.0000 0.22607  0.88758  0.50628  Biso   1.000  O
  O164     1.0000 0.25221  0.95808  0.42513  Biso   1.000  O
  O165     1.0000 0.09147  0.89363  0.25063  Biso   1.000  O
  O166     1.0000 0.91979  0.60408  0.26234  Biso   1.000  O
  O167     1.0000 0.86614  0.62273  0.33510  Biso   1.000  O
  O168     1.0000 0.68933  0.60239  0.23966  Biso   1.000  O
  O169     1.0000 0.68891  0.61814  0.11767  Biso   1.000  O
  O170     1.0000 0.82636  0.56180  0.01522  Biso   1.000  O
  Zn33     1.0000 0.92239  0.64254  0.41351  Biso   1.000  Zn
  Zn34     1.0000 0.01104  0.67745  0.56371  Biso   1.000  Zn
  C423     1.0000 0.12987  0.93783  0.21083  Biso   1.000  C
  C424     1.0000 0.10357  0.94753  0.14123  Biso   1.000  C
  C425     1.0000 0.76717  0.49433  0.83593  Biso   1.000  C
  C426     1.0000 0.70117  0.06876  0.75067  Biso   1.000  C
  C427     1.0000 0.74299  0.12662  0.72667  Biso   1.000  C
  C428     1.0000 0.79297  0.15652  0.76517  Biso   1.000  C
  H137     1.0000 0.80103  0.14027  0.80657  Biso   1.000  H
  C429     1.0000 0.83099  0.21047  0.74227  Biso   1.000  C
  C430     1.0000 0.88510  0.24332  0.78307  Biso   1.000  C
  C431     1.0000 0.81943  0.23397  0.68127  Biso   1.000  C
  H138     1.0000 0.84583  0.27067  0.66547  Biso   1.000  H
  C432     1.0000 0.76933  0.20387  0.64357  Biso   1.000  C
  C433     1.0000 0.73093  0.14987  0.66607  Biso   1.000  C
  H139     1.0000 0.69663  0.12907  0.64007  Biso   1.000  H
  C434     1.0000 0.71853  0.20287  0.53597  Biso   1.000  C
  C435     1.0000 0.72733  0.24417  0.46597  Biso   1.000  C
  C436     1.0000 0.77603  0.25207  0.42847  Biso   1.000  C
  C437     1.0000 0.54408  0.94206  0.60737  Biso   1.000  C
  C438     1.0000 0.50391  0.93012  0.54437  Biso   1.000  C
  C439     1.0000 0.45683  0.93541  0.55647  Biso   1.000  C
  H140     1.0000 0.44833  0.94267  0.60507  Biso   1.000  H
  C440     1.0000 0.42270  0.92998  0.49677  Biso   1.000  C
  C441     1.0000 0.37496  0.93985  0.50717  Biso   1.000  C
  C442     1.0000 0.43439  0.91825  0.42547  Biso   1.000  C
  H141     1.0000 0.41193  0.91637  0.38427  Biso   1.000  H
  C443     1.0000 0.47910  0.90935  0.41527  Biso   1.000  C
  C444     1.0000 0.51478  0.91680  0.47407  Biso   1.000  C
  H142     1.0000 0.54653  0.91277  0.46627  Biso   1.000  H
  C445     1.0000 0.45593  0.88307  0.28617  Biso   1.000  C
  H143     1.0000 0.41673  0.85817  0.30167  Biso   1.000  H
  H144     1.0000 0.45933  0.91797  0.26597  Biso   1.000  H
  C446     1.0000 0.47293  0.85437  0.22697  Biso   1.000  C
  C447     1.0000 0.44823  0.79557  0.24587  Biso   1.000  C
  O171     1.0000 0.65476  0.04531  0.71761  Biso   1.000  O
  O172     1.0000 0.71479  0.04646  0.80211  Biso   1.000  O
  O173     1.0000 0.89273  0.22092  0.83962  Biso   1.000  O
  O174     1.0000 0.91887  0.29142  0.75847  Biso   1.000  O
  O175     1.0000 0.75813  0.22697  0.58397  Biso   1.000  O
  O176     1.0000 0.58645  0.93742  0.59568  Biso   1.000  O
  O177     1.0000 0.53280  0.95607  0.66844  Biso   1.000  O
  O178     1.0000 0.35599  0.93573  0.57300  Biso   1.000  O
  O179     1.0000 0.35557  0.95148  0.45101  Biso   1.000  O
  O180     1.0000 0.49302  0.89514  0.34856  Biso   1.000  O
  Zn35     1.0000 0.58905  0.97588  0.74685  Biso   1.000  Zn
  Zn36     1.0000 0.67770  0.01079  0.89705  Biso   1.000  Zn
  C448     1.0000 0.79653  0.27117  0.54417  Biso   1.000  C
  C449     1.0000 0.77023  0.28087  0.47457  Biso   1.000  C
  C450     1.0000 0.43383  0.82767  0.16927  Biso   1.000  C
