data_image0
_cell_length_a       29.0302
_cell_length_b       29.0302
_cell_length_c       29.0302
_cell_angle_alpha    90
_cell_angle_beta     90
_cell_angle_gamma    90

_symmetry_space_group_name_H-M    "P 1"
_symmetry_int_tables_number       1

loop_
  _symmetry_equiv_pos_as_xyz
  'x, y, z'

loop_
  _atom_site_label
  _atom_site_occupancy
  _atom_site_fract_x
  _atom_site_fract_y
  _atom_site_fract_z
  _atom_site_thermal_displace_type
  _atom_site_B_iso_or_equiv
  _atom_site_type_symbol
  C1       1.0000 0.60560  0.97400  0.17990  Biso   1.000  C
  H1       1.0000 0.60530  0.95460  0.15450  Biso   1.000  H
  C2       1.0000 0.65950  0.87430  0.16020  Biso   1.000  C
  H2       1.0000 0.67600  0.90170  0.15930  Biso   1.000  H
  N1       1.0000 0.60600  0.96240  0.22250  Biso   1.000  N
  N2       1.0000 0.63160  0.86060  0.19460  Biso   1.000  N
  O1       1.0000 0.60520  0.96350  0.31740  Biso   1.000  O
  O2       1.0000 0.57410  0.75380  0.19350  Biso   1.000  O
  C3       1.0000 0.10560  0.47400  0.67990  Biso   1.000  C
  H3       1.0000 0.10530  0.45460  0.65450  Biso   1.000  H
  C4       1.0000 0.15950  0.37430  0.66020  Biso   1.000  C
  H4       1.0000 0.17600  0.40170  0.65930  Biso   1.000  H
  N3       1.0000 0.10600  0.46240  0.72250  Biso   1.000  N
  N4       1.0000 0.13160  0.36060  0.69460  Biso   1.000  N
  O3       1.0000 0.10520  0.46350  0.81740  Biso   1.000  O
  O4       1.0000 0.07410  0.25380  0.69350  Biso   1.000  O
  C5       1.0000 0.39440  0.02600  0.17990  Biso   1.000  C
  H5       1.0000 0.39470  0.04540  0.15450  Biso   1.000  H
  C6       1.0000 0.34050  0.12570  0.16020  Biso   1.000  C
  H6       1.0000 0.32400  0.09830  0.15930  Biso   1.000  H
  N5       1.0000 0.39400  0.03760  0.22250  Biso   1.000  N
  N6       1.0000 0.36840  0.13940  0.19460  Biso   1.000  N
  O5       1.0000 0.39480  0.03650  0.31740  Biso   1.000  O
  O6       1.0000 0.42590  0.24620  0.19350  Biso   1.000  O
  C7       1.0000 0.89440  0.52600  0.67990  Biso   1.000  C
  H7       1.0000 0.89470  0.54540  0.65450  Biso   1.000  H
  C8       1.0000 0.84050  0.62570  0.66020  Biso   1.000  C
  H8       1.0000 0.82400  0.59830  0.65930  Biso   1.000  H
  N7       1.0000 0.89400  0.53760  0.72250  Biso   1.000  N
  N8       1.0000 0.86840  0.63940  0.69460  Biso   1.000  N
  O7       1.0000 0.89480  0.53650  0.81740  Biso   1.000  O
  O8       1.0000 0.92590  0.74620  0.69350  Biso   1.000  O
  C9       1.0000 0.39440  0.97400  0.82010  Biso   1.000  C
  H9       1.0000 0.39470  0.95460  0.84550  Biso   1.000  H
  C10      1.0000 0.34050  0.87430  0.83980  Biso   1.000  C
  H10      1.0000 0.32400  0.90170  0.84070  Biso   1.000  H
  N9       1.0000 0.39400  0.96240  0.77750  Biso   1.000  N
  N10      1.0000 0.36840  0.86060  0.80540  Biso   1.000  N
  O9       1.0000 0.39480  0.96350  0.68260  Biso   1.000  O
  O10      1.0000 0.42590  0.75380  0.80650  Biso   1.000  O
  C11      1.0000 0.89440  0.47400  0.32010  Biso   1.000  C
  H11      1.0000 0.89470  0.45460  0.34550  Biso   1.000  H
  C12      1.0000 0.84050  0.37430  0.33980  Biso   1.000  C
  H12      1.0000 0.82400  0.40170  0.34070  Biso   1.000  H
  N11      1.0000 0.89400  0.46240  0.27750  Biso   1.000  N
  N12      1.0000 0.86840  0.36060  0.30540  Biso   1.000  N
  O11      1.0000 0.89480  0.46350  0.18260  Biso   1.000  O
  O12      1.0000 0.92590  0.25380  0.30650  Biso   1.000  O
  C13      1.0000 0.60560  0.02600  0.82010  Biso   1.000  C
  H13      1.0000 0.60530  0.04540  0.84550  Biso   1.000  H
  C14      1.0000 0.65950  0.12570  0.83980  Biso   1.000  C
  H14      1.0000 0.67600  0.09830  0.84070  Biso   1.000  H
  N13      1.0000 0.60600  0.03760  0.77750  Biso   1.000  N
  N14      1.0000 0.63160  0.13940  0.80540  Biso   1.000  N
  O13      1.0000 0.60520  0.03650  0.68260  Biso   1.000  O
  O14      1.0000 0.57410  0.24620  0.80650  Biso   1.000  O
  C15      1.0000 0.10560  0.52600  0.32010  Biso   1.000  C
  H15      1.0000 0.10530  0.54540  0.34550  Biso   1.000  H
  C16      1.0000 0.15950  0.62570  0.33980  Biso   1.000  C
  H16      1.0000 0.17600  0.59830  0.34070  Biso   1.000  H
  N15      1.0000 0.10600  0.53760  0.27750  Biso   1.000  N
  N16      1.0000 0.13160  0.63940  0.30540  Biso   1.000  N
  O15      1.0000 0.10520  0.53650  0.18260  Biso   1.000  O
  O16      1.0000 0.07410  0.74620  0.30650  Biso   1.000  O
  C17      1.0000 0.17990  0.60560  0.97400  Biso   1.000  C
  H17      1.0000 0.15450  0.60530  0.95460  Biso   1.000  H
  C18      1.0000 0.16020  0.65950  0.87430  Biso   1.000  C
  H18      1.0000 0.15930  0.67600  0.90170  Biso   1.000  H
  N17      1.0000 0.22250  0.60600  0.96240  Biso   1.000  N
  N18      1.0000 0.19460  0.63160  0.86060  Biso   1.000  N
  O17      1.0000 0.31740  0.60520  0.96350  Biso   1.000  O
  O18      1.0000 0.19350  0.57410  0.75380  Biso   1.000  O
  C19      1.0000 0.67990  0.10560  0.47400  Biso   1.000  C
  H19      1.0000 0.65450  0.10530  0.45460  Biso   1.000  H
  C20      1.0000 0.66020  0.15950  0.37430  Biso   1.000  C
  H20      1.0000 0.65930  0.17600  0.40170  Biso   1.000  H
  N19      1.0000 0.72250  0.10600  0.46240  Biso   1.000  N
  N20      1.0000 0.69460  0.13160  0.36060  Biso   1.000  N
  O19      1.0000 0.81740  0.10520  0.46350  Biso   1.000  O
  O20      1.0000 0.69350  0.07410  0.25380  Biso   1.000  O
  C21      1.0000 0.17990  0.39440  0.02600  Biso   1.000  C
  H21      1.0000 0.15450  0.39470  0.04540  Biso   1.000  H
  C22      1.0000 0.16020  0.34050  0.12570  Biso   1.000  C
  H22      1.0000 0.15930  0.32400  0.09830  Biso   1.000  H
  N21      1.0000 0.22250  0.39400  0.03760  Biso   1.000  N
  N22      1.0000 0.19460  0.36840  0.13940  Biso   1.000  N
  O21      1.0000 0.31740  0.39480  0.03650  Biso   1.000  O
  O22      1.0000 0.19350  0.42590  0.24620  Biso   1.000  O
  C23      1.0000 0.67990  0.89440  0.52600  Biso   1.000  C
  H23      1.0000 0.65450  0.89470  0.54540  Biso   1.000  H
  C24      1.0000 0.66020  0.84050  0.62570  Biso   1.000  C
  H24      1.0000 0.65930  0.82400  0.59830  Biso   1.000  H
  N23      1.0000 0.72250  0.89400  0.53760  Biso   1.000  N
  N24      1.0000 0.69460  0.86840  0.63940  Biso   1.000  N
  O23      1.0000 0.81740  0.89480  0.53650  Biso   1.000  O
  O24      1.0000 0.69350  0.92590  0.74620  Biso   1.000  O
  C25      1.0000 0.82010  0.39440  0.97400  Biso   1.000  C
  H25      1.0000 0.84550  0.39470  0.95460  Biso   1.000  H
  C26      1.0000 0.83980  0.34050  0.87430  Biso   1.000  C
  H26      1.0000 0.84070  0.32400  0.90170  Biso   1.000  H
  N25      1.0000 0.77750  0.39400  0.96240  Biso   1.000  N
  N26      1.0000 0.80540  0.36840  0.86060  Biso   1.000  N
  O25      1.0000 0.68260  0.39480  0.96350  Biso   1.000  O
  O26      1.0000 0.80650  0.42590  0.75380  Biso   1.000  O
  C27      1.0000 0.32010  0.89440  0.47400  Biso   1.000  C
  H27      1.0000 0.34550  0.89470  0.45460  Biso   1.000  H
  C28      1.0000 0.33980  0.84050  0.37430  Biso   1.000  C
  H28      1.0000 0.34070  0.82400  0.40170  Biso   1.000  H
  N27      1.0000 0.27750  0.89400  0.46240  Biso   1.000  N
  N28      1.0000 0.30540  0.86840  0.36060  Biso   1.000  N
  O27      1.0000 0.18260  0.89480  0.46350  Biso   1.000  O
  O28      1.0000 0.30650  0.92590  0.25380  Biso   1.000  O
  C29      1.0000 0.82010  0.60560  0.02600  Biso   1.000  C
  H29      1.0000 0.84550  0.60530  0.04540  Biso   1.000  H
  C30      1.0000 0.83980  0.65950  0.12570  Biso   1.000  C
  H30      1.0000 0.84070  0.67600  0.09830  Biso   1.000  H
  N29      1.0000 0.77750  0.60600  0.03760  Biso   1.000  N
  N30      1.0000 0.80540  0.63160  0.13940  Biso   1.000  N
  O29      1.0000 0.68260  0.60520  0.03650  Biso   1.000  O
  O30      1.0000 0.80650  0.57410  0.24620  Biso   1.000  O
  C31      1.0000 0.32010  0.10560  0.52600  Biso   1.000  C
  H31      1.0000 0.34550  0.10530  0.54540  Biso   1.000  H
  C32      1.0000 0.33980  0.15950  0.62570  Biso   1.000  C
  H32      1.0000 0.34070  0.17600  0.59830  Biso   1.000  H
  N31      1.0000 0.27750  0.10600  0.53760  Biso   1.000  N
  N32      1.0000 0.30540  0.13160  0.63940  Biso   1.000  N
  O31      1.0000 0.18260  0.10520  0.53650  Biso   1.000  O
  O32      1.0000 0.30650  0.07410  0.74620  Biso   1.000  O
  C33      1.0000 0.97400  0.17990  0.60560  Biso   1.000  C
  H33      1.0000 0.95460  0.15450  0.60530  Biso   1.000  H
  C34      1.0000 0.87430  0.16020  0.65950  Biso   1.000  C
  H34      1.0000 0.90170  0.15930  0.67600  Biso   1.000  H
  N33      1.0000 0.96240  0.22250  0.60600  Biso   1.000  N
  N34      1.0000 0.86060  0.19460  0.63160  Biso   1.000  N
  O33      1.0000 0.96350  0.31740  0.60520  Biso   1.000  O
  O34      1.0000 0.75380  0.19350  0.57410  Biso   1.000  O
  C35      1.0000 0.47400  0.67990  0.10560  Biso   1.000  C
  H35      1.0000 0.45460  0.65450  0.10530  Biso   1.000  H
  C36      1.0000 0.37430  0.66020  0.15950  Biso   1.000  C
  H36      1.0000 0.40170  0.65930  0.17600  Biso   1.000  H
  N35      1.0000 0.46240  0.72250  0.10600  Biso   1.000  N
  N36      1.0000 0.36060  0.69460  0.13160  Biso   1.000  N
  O35      1.0000 0.46350  0.81740  0.10520  Biso   1.000  O
  O36      1.0000 0.25380  0.69350  0.07410  Biso   1.000  O
  C37      1.0000 0.02600  0.17990  0.39440  Biso   1.000  C
  H37      1.0000 0.04540  0.15450  0.39470  Biso   1.000  H
  C38      1.0000 0.12570  0.16020  0.34050  Biso   1.000  C
  H38      1.0000 0.09830  0.15930  0.32400  Biso   1.000  H
  N37      1.0000 0.03760  0.22250  0.39400  Biso   1.000  N
  N38      1.0000 0.13940  0.19460  0.36840  Biso   1.000  N
  O37      1.0000 0.03650  0.31740  0.39480  Biso   1.000  O
  O38      1.0000 0.24620  0.19350  0.42590  Biso   1.000  O
  C39      1.0000 0.52600  0.67990  0.89440  Biso   1.000  C
  H39      1.0000 0.54540  0.65450  0.89470  Biso   1.000  H
  C40      1.0000 0.62570  0.66020  0.84050  Biso   1.000  C
  H40      1.0000 0.59830  0.65930  0.82400  Biso   1.000  H
  N39      1.0000 0.53760  0.72250  0.89400  Biso   1.000  N
  N40      1.0000 0.63940  0.69460  0.86840  Biso   1.000  N
  O39      1.0000 0.53650  0.81740  0.89480  Biso   1.000  O
  O40      1.0000 0.74620  0.69350  0.92590  Biso   1.000  O
  C41      1.0000 0.97400  0.82010  0.39440  Biso   1.000  C
  H41      1.0000 0.95460  0.84550  0.39470  Biso   1.000  H
  C42      1.0000 0.87430  0.83980  0.34050  Biso   1.000  C
  H42      1.0000 0.90170  0.84070  0.32400  Biso   1.000  H
  N41      1.0000 0.96240  0.77750  0.39400  Biso   1.000  N
  N42      1.0000 0.86060  0.80540  0.36840  Biso   1.000  N
  O41      1.0000 0.96350  0.68260  0.39480  Biso   1.000  O
  O42      1.0000 0.75380  0.80650  0.42590  Biso   1.000  O
  C43      1.0000 0.47400  0.32010  0.89440  Biso   1.000  C
  H43      1.0000 0.45460  0.34550  0.89470  Biso   1.000  H
  C44      1.0000 0.37430  0.33980  0.84050  Biso   1.000  C
  H44      1.0000 0.40170  0.34070  0.82400  Biso   1.000  H
  N43      1.0000 0.46240  0.27750  0.89400  Biso   1.000  N
  N44      1.0000 0.36060  0.30540  0.86840  Biso   1.000  N
  O43      1.0000 0.46350  0.18260  0.89480  Biso   1.000  O
  O44      1.0000 0.25380  0.30650  0.92590  Biso   1.000  O
  C45      1.0000 0.02600  0.82010  0.60560  Biso   1.000  C
  H45      1.0000 0.04540  0.84550  0.60530  Biso   1.000  H
  C46      1.0000 0.12570  0.83980  0.65950  Biso   1.000  C
  H46      1.0000 0.09830  0.84070  0.67600  Biso   1.000  H
  N45      1.0000 0.03760  0.77750  0.60600  Biso   1.000  N
  N46      1.0000 0.13940  0.80540  0.63160  Biso   1.000  N
  O45      1.0000 0.03650  0.68260  0.60520  Biso   1.000  O
  O46      1.0000 0.24620  0.80650  0.57410  Biso   1.000  O
  C47      1.0000 0.52600  0.32010  0.10560  Biso   1.000  C
  H47      1.0000 0.54540  0.34550  0.10530  Biso   1.000  H
  C48      1.0000 0.62570  0.33980  0.15950  Biso   1.000  C
  H48      1.0000 0.59830  0.34070  0.17600  Biso   1.000  H
  N47      1.0000 0.53760  0.27750  0.10600  Biso   1.000  N
  N48      1.0000 0.63940  0.30540  0.13160  Biso   1.000  N
  O47      1.0000 0.53650  0.18260  0.10520  Biso   1.000  O
  O48      1.0000 0.74620  0.30650  0.07410  Biso   1.000  O
  C49      1.0000 0.97400  0.60560  0.82010  Biso   1.000  C
  H49      1.0000 0.95460  0.60530  0.84550  Biso   1.000  H
  C50      1.0000 0.87430  0.65950  0.83980  Biso   1.000  C
  H50      1.0000 0.90170  0.67600  0.84070  Biso   1.000  H
  N49      1.0000 0.96240  0.60600  0.77750  Biso   1.000  N
  N50      1.0000 0.86060  0.63160  0.80540  Biso   1.000  N
  O49      1.0000 0.96350  0.60520  0.68260  Biso   1.000  O
  O50      1.0000 0.75380  0.57410  0.80650  Biso   1.000  O
  C51      1.0000 0.47400  0.10560  0.32010  Biso   1.000  C
  H51      1.0000 0.45460  0.10530  0.34550  Biso   1.000  H
  C52      1.0000 0.37430  0.15950  0.33980  Biso   1.000  C
  H52      1.0000 0.40170  0.17600  0.34070  Biso   1.000  H
  N51      1.0000 0.46240  0.10600  0.27750  Biso   1.000  N
  N52      1.0000 0.36060  0.13160  0.30540  Biso   1.000  N
  O51      1.0000 0.46350  0.10520  0.18260  Biso   1.000  O
  O52      1.0000 0.25380  0.07410  0.30650  Biso   1.000  O
  C53      1.0000 0.02600  0.39440  0.82010  Biso   1.000  C
  H53      1.0000 0.04540  0.39470  0.84550  Biso   1.000  H
  C54      1.0000 0.12570  0.34050  0.83980  Biso   1.000  C
  H54      1.0000 0.09830  0.32400  0.84070  Biso   1.000  H
  N53      1.0000 0.03760  0.39400  0.77750  Biso   1.000  N
  N54      1.0000 0.13940  0.36840  0.80540  Biso   1.000  N
  O53      1.0000 0.03650  0.39480  0.68260  Biso   1.000  O
  O54      1.0000 0.24620  0.42590  0.80650  Biso   1.000  O
  C55      1.0000 0.52600  0.89440  0.32010  Biso   1.000  C
  H55      1.0000 0.54540  0.89470  0.34550  Biso   1.000  H
  C56      1.0000 0.62570  0.84050  0.33980  Biso   1.000  C
  H56      1.0000 0.59830  0.82400  0.34070  Biso   1.000  H
  N55      1.0000 0.53760  0.89400  0.27750  Biso   1.000  N
  N56      1.0000 0.63940  0.86840  0.30540  Biso   1.000  N
  O55      1.0000 0.53650  0.89480  0.18260  Biso   1.000  O
  O56      1.0000 0.74620  0.92590  0.30650  Biso   1.000  O
  C57      1.0000 0.97400  0.39440  0.17990  Biso   1.000  C
  H57      1.0000 0.95460  0.39470  0.15450  Biso   1.000  H
  C58      1.0000 0.87430  0.34050  0.16020  Biso   1.000  C
  H58      1.0000 0.90170  0.32400  0.15930  Biso   1.000  H
  N57      1.0000 0.96240  0.39400  0.22250  Biso   1.000  N
  N58      1.0000 0.86060  0.36840  0.19460  Biso   1.000  N
  O57      1.0000 0.96350  0.39480  0.31740  Biso   1.000  O
  O58      1.0000 0.75380  0.42590  0.19350  Biso   1.000  O
  C59      1.0000 0.47400  0.89440  0.67990  Biso   1.000  C
  H59      1.0000 0.45460  0.89470  0.65450  Biso   1.000  H
  C60      1.0000 0.37430  0.84050  0.66020  Biso   1.000  C
  H60      1.0000 0.40170  0.82400  0.65930  Biso   1.000  H
  N59      1.0000 0.46240  0.89400  0.72250  Biso   1.000  N
  N60      1.0000 0.36060  0.86840  0.69460  Biso   1.000  N
  O59      1.0000 0.46350  0.89480  0.81740  Biso   1.000  O
  O60      1.0000 0.25380  0.92590  0.69350  Biso   1.000  O
  C61      1.0000 0.02600  0.60560  0.17990  Biso   1.000  C
  H61      1.0000 0.04540  0.60530  0.15450  Biso   1.000  H
  C62      1.0000 0.12570  0.65950  0.16020  Biso   1.000  C
  H62      1.0000 0.09830  0.67600  0.15930  Biso   1.000  H
  N61      1.0000 0.03760  0.60600  0.22250  Biso   1.000  N
  N62      1.0000 0.13940  0.63160  0.19460  Biso   1.000  N
  O61      1.0000 0.03650  0.60520  0.31740  Biso   1.000  O
  O62      1.0000 0.24620  0.57410  0.19350  Biso   1.000  O
  C63      1.0000 0.52600  0.10560  0.67990  Biso   1.000  C
  H63      1.0000 0.54540  0.10530  0.65450  Biso   1.000  H
  C64      1.0000 0.62570  0.15950  0.66020  Biso   1.000  C
  H64      1.0000 0.59830  0.17600  0.65930  Biso   1.000  H
  N63      1.0000 0.53760  0.10600  0.72250  Biso   1.000  N
  N64      1.0000 0.63940  0.13160  0.69460  Biso   1.000  N
  O63      1.0000 0.53650  0.10520  0.81740  Biso   1.000  O
  O64      1.0000 0.74620  0.07410  0.69350  Biso   1.000  O
  C65      1.0000 0.60560  0.17990  0.02600  Biso   1.000  C
  H65      1.0000 0.60530  0.15450  0.04540  Biso   1.000  H
  C66      1.0000 0.65950  0.16020  0.12570  Biso   1.000  C
  H66      1.0000 0.67600  0.15930  0.09830  Biso   1.000  H
  N65      1.0000 0.60600  0.22250  0.03760  Biso   1.000  N
  N66      1.0000 0.63160  0.19460  0.13940  Biso   1.000  N
  O65      1.0000 0.60520  0.31740  0.03650  Biso   1.000  O
  O66      1.0000 0.57410  0.19350  0.24620  Biso   1.000  O
  C67      1.0000 0.10560  0.67990  0.52600  Biso   1.000  C
  H67      1.0000 0.10530  0.65450  0.54540  Biso   1.000  H
  C68      1.0000 0.15950  0.66020  0.62570  Biso   1.000  C
  H68      1.0000 0.17600  0.65930  0.59830  Biso   1.000  H
  N67      1.0000 0.10600  0.72250  0.53760  Biso   1.000  N
  N68      1.0000 0.13160  0.69460  0.63940  Biso   1.000  N
  O67      1.0000 0.10520  0.81740  0.53650  Biso   1.000  O
  O68      1.0000 0.07410  0.69350  0.74620  Biso   1.000  O
  C69      1.0000 0.39440  0.17990  0.97400  Biso   1.000  C
  H69      1.0000 0.39470  0.15450  0.95460  Biso   1.000  H
  C70      1.0000 0.34050  0.16020  0.87430  Biso   1.000  C
  H70      1.0000 0.32400  0.15930  0.90170  Biso   1.000  H
  N69      1.0000 0.39400  0.22250  0.96240  Biso   1.000  N
  N70      1.0000 0.36840  0.19460  0.86060  Biso   1.000  N
  O69      1.0000 0.39480  0.31740  0.96350  Biso   1.000  O
  O70      1.0000 0.42590  0.19350  0.75380  Biso   1.000  O
  C71      1.0000 0.89440  0.67990  0.47400  Biso   1.000  C
  H71      1.0000 0.89470  0.65450  0.45460  Biso   1.000  H
  C72      1.0000 0.84050  0.66020  0.37430  Biso   1.000  C
  H72      1.0000 0.82400  0.65930  0.40170  Biso   1.000  H
  N71      1.0000 0.89400  0.72250  0.46240  Biso   1.000  N
  N72      1.0000 0.86840  0.69460  0.36060  Biso   1.000  N
  O71      1.0000 0.89480  0.81740  0.46350  Biso   1.000  O
  O72      1.0000 0.92590  0.69350  0.25380  Biso   1.000  O
  C73      1.0000 0.39440  0.82010  0.02600  Biso   1.000  C
  H73      1.0000 0.39470  0.84550  0.04540  Biso   1.000  H
  C74      1.0000 0.34050  0.83980  0.12570  Biso   1.000  C
  H74      1.0000 0.32400  0.84070  0.09830  Biso   1.000  H
  N73      1.0000 0.39400  0.77750  0.03760  Biso   1.000  N
  N74      1.0000 0.36840  0.80540  0.13940  Biso   1.000  N
  O73      1.0000 0.39480  0.68260  0.03650  Biso   1.000  O
  O74      1.0000 0.42590  0.80650  0.24620  Biso   1.000  O
  C75      1.0000 0.89440  0.32010  0.52600  Biso   1.000  C
  H75      1.0000 0.89470  0.34550  0.54540  Biso   1.000  H
  C76      1.0000 0.84050  0.33980  0.62570  Biso   1.000  C
  H76      1.0000 0.82400  0.34070  0.59830  Biso   1.000  H
  N75      1.0000 0.89400  0.27750  0.53760  Biso   1.000  N
  N76      1.0000 0.86840  0.30540  0.63940  Biso   1.000  N
  O75      1.0000 0.89480  0.18260  0.53650  Biso   1.000  O
  O76      1.0000 0.92590  0.30650  0.74620  Biso   1.000  O
  C77      1.0000 0.60560  0.82010  0.97400  Biso   1.000  C
  H77      1.0000 0.60530  0.84550  0.95460  Biso   1.000  H
  C78      1.0000 0.65950  0.83980  0.87430  Biso   1.000  C
  H78      1.0000 0.67600  0.84070  0.90170  Biso   1.000  H
  N77      1.0000 0.60600  0.77750  0.96240  Biso   1.000  N
  N78      1.0000 0.63160  0.80540  0.86060  Biso   1.000  N
  O77      1.0000 0.60520  0.68260  0.96350  Biso   1.000  O
  O78      1.0000 0.57410  0.80650  0.75380  Biso   1.000  O
  C79      1.0000 0.10560  0.32010  0.47400  Biso   1.000  C
  H79      1.0000 0.10530  0.34550  0.45460  Biso   1.000  H
  C80      1.0000 0.15950  0.33980  0.37430  Biso   1.000  C
  H80      1.0000 0.17600  0.34070  0.40170  Biso   1.000  H
  N79      1.0000 0.10600  0.27750  0.46240  Biso   1.000  N
  N80      1.0000 0.13160  0.30540  0.36060  Biso   1.000  N
  O79      1.0000 0.10520  0.18260  0.46350  Biso   1.000  O
  O80      1.0000 0.07410  0.30650  0.25380  Biso   1.000  O
  C81      1.0000 0.17990  0.97400  0.39440  Biso   1.000  C
  H81      1.0000 0.15450  0.95460  0.39470  Biso   1.000  H
  C82      1.0000 0.16020  0.87430  0.34050  Biso   1.000  C
  H82      1.0000 0.15930  0.90170  0.32400  Biso   1.000  H
  N81      1.0000 0.22250  0.96240  0.39400  Biso   1.000  N
  N82      1.0000 0.19460  0.86060  0.36840  Biso   1.000  N
  O81      1.0000 0.31740  0.96350  0.39480  Biso   1.000  O
  O82      1.0000 0.19350  0.75380  0.42590  Biso   1.000  O
  C83      1.0000 0.67990  0.47400  0.89440  Biso   1.000  C
  H83      1.0000 0.65450  0.45460  0.89470  Biso   1.000  H
  C84      1.0000 0.66020  0.37430  0.84050  Biso   1.000  C
  H84      1.0000 0.65930  0.40170  0.82400  Biso   1.000  H
  N83      1.0000 0.72250  0.46240  0.89400  Biso   1.000  N
  N84      1.0000 0.69460  0.36060  0.86840  Biso   1.000  N
  O83      1.0000 0.81740  0.46350  0.89480  Biso   1.000  O
  O84      1.0000 0.69350  0.25380  0.92590  Biso   1.000  O
  C85      1.0000 0.17990  0.02600  0.60560  Biso   1.000  C
  H85      1.0000 0.15450  0.04540  0.60530  Biso   1.000  H
  C86      1.0000 0.16020  0.12570  0.65950  Biso   1.000  C
  H86      1.0000 0.15930  0.09830  0.67600  Biso   1.000  H
  N85      1.0000 0.22250  0.03760  0.60600  Biso   1.000  N
  N86      1.0000 0.19460  0.13940  0.63160  Biso   1.000  N
  O85      1.0000 0.31740  0.03650  0.60520  Biso   1.000  O
  O86      1.0000 0.19350  0.24620  0.57410  Biso   1.000  O
  C87      1.0000 0.67990  0.52600  0.10560  Biso   1.000  C
  H87      1.0000 0.65450  0.54540  0.10530  Biso   1.000  H
  C88      1.0000 0.66020  0.62570  0.15950  Biso   1.000  C
  H88      1.0000 0.65930  0.59830  0.17600  Biso   1.000  H
  N87      1.0000 0.72250  0.53760  0.10600  Biso   1.000  N
  N88      1.0000 0.69460  0.63940  0.13160  Biso   1.000  N
  O87      1.0000 0.81740  0.53650  0.10520  Biso   1.000  O
  O88      1.0000 0.69350  0.74620  0.07410  Biso   1.000  O
  C89      1.0000 0.82010  0.97400  0.60560  Biso   1.000  C
  H89      1.0000 0.84550  0.95460  0.60530  Biso   1.000  H
  C90      1.0000 0.83980  0.87430  0.65950  Biso   1.000  C
  H90      1.0000 0.84070  0.90170  0.67600  Biso   1.000  H
  N89      1.0000 0.77750  0.96240  0.60600  Biso   1.000  N
  N90      1.0000 0.80540  0.86060  0.63160  Biso   1.000  N
  O89      1.0000 0.68260  0.96350  0.60520  Biso   1.000  O
  O90      1.0000 0.80650  0.75380  0.57410  Biso   1.000  O
  C91      1.0000 0.32010  0.47400  0.10560  Biso   1.000  C
  H91      1.0000 0.34550  0.45460  0.10530  Biso   1.000  H
  C92      1.0000 0.33980  0.37430  0.15950  Biso   1.000  C
  H92      1.0000 0.34070  0.40170  0.17600  Biso   1.000  H
  N91      1.0000 0.27750  0.46240  0.10600  Biso   1.000  N
  N92      1.0000 0.30540  0.36060  0.13160  Biso   1.000  N
  O91      1.0000 0.18260  0.46350  0.10520  Biso   1.000  O
  O92      1.0000 0.30650  0.25380  0.07410  Biso   1.000  O
  C93      1.0000 0.82010  0.02600  0.39440  Biso   1.000  C
  H93      1.0000 0.84550  0.04540  0.39470  Biso   1.000  H
  C94      1.0000 0.83980  0.12570  0.34050  Biso   1.000  C
  H94      1.0000 0.84070  0.09830  0.32400  Biso   1.000  H
  N93      1.0000 0.77750  0.03760  0.39400  Biso   1.000  N
  N94      1.0000 0.80540  0.13940  0.36840  Biso   1.000  N
  O93      1.0000 0.68260  0.03650  0.39480  Biso   1.000  O
  O94      1.0000 0.80650  0.24620  0.42590  Biso   1.000  O
  C95      1.0000 0.32010  0.52600  0.89440  Biso   1.000  C
  H95      1.0000 0.34550  0.54540  0.89470  Biso   1.000  H
  C96      1.0000 0.33980  0.62570  0.84050  Biso   1.000  C
  H96      1.0000 0.34070  0.59830  0.82400  Biso   1.000  H
  N95      1.0000 0.27750  0.53760  0.89400  Biso   1.000  N
  N96      1.0000 0.30540  0.63940  0.86840  Biso   1.000  N
  O95      1.0000 0.18260  0.53650  0.89480  Biso   1.000  O
  O96      1.0000 0.30650  0.74620  0.92590  Biso   1.000  O
  C97      1.0000 0.39440  0.02600  0.82010  Biso   1.000  C
  H97      1.0000 0.39470  0.04540  0.84550  Biso   1.000  H
  C98      1.0000 0.34050  0.12570  0.83980  Biso   1.000  C
  H98      1.0000 0.32400  0.09830  0.84070  Biso   1.000  H
  N97      1.0000 0.39400  0.03760  0.77750  Biso   1.000  N
  N98      1.0000 0.36840  0.13940  0.80540  Biso   1.000  N
  O97      1.0000 0.39480  0.03650  0.68260  Biso   1.000  O
  O98      1.0000 0.42590  0.24620  0.80650  Biso   1.000  O
  C99      1.0000 0.89440  0.52600  0.32010  Biso   1.000  C
  H99      1.0000 0.89470  0.54540  0.34550  Biso   1.000  H
  C100     1.0000 0.84050  0.62570  0.33980  Biso   1.000  C
  H100     1.0000 0.82400  0.59830  0.34070  Biso   1.000  H
  N99      1.0000 0.89400  0.53760  0.27750  Biso   1.000  N
  N100     1.0000 0.86840  0.63940  0.30540  Biso   1.000  N
  O99      1.0000 0.89480  0.53650  0.18260  Biso   1.000  O
  O100     1.0000 0.92590  0.74620  0.30650  Biso   1.000  O
  C101     1.0000 0.60560  0.97400  0.82010  Biso   1.000  C
  H101     1.0000 0.60530  0.95460  0.84550  Biso   1.000  H
  C102     1.0000 0.65950  0.87430  0.83980  Biso   1.000  C
  H102     1.0000 0.67600  0.90170  0.84070  Biso   1.000  H
  N101     1.0000 0.60600  0.96240  0.77750  Biso   1.000  N
  N102     1.0000 0.63160  0.86060  0.80540  Biso   1.000  N
  O101     1.0000 0.60520  0.96350  0.68260  Biso   1.000  O
  O102     1.0000 0.57410  0.75380  0.80650  Biso   1.000  O
  C103     1.0000 0.10560  0.47400  0.32010  Biso   1.000  C
  H103     1.0000 0.10530  0.45460  0.34550  Biso   1.000  H
  C104     1.0000 0.15950  0.37430  0.33980  Biso   1.000  C
  H104     1.0000 0.17600  0.40170  0.34070  Biso   1.000  H
  N103     1.0000 0.10600  0.46240  0.27750  Biso   1.000  N
  N104     1.0000 0.13160  0.36060  0.30540  Biso   1.000  N
  O103     1.0000 0.10520  0.46350  0.18260  Biso   1.000  O
  O104     1.0000 0.07410  0.25380  0.30650  Biso   1.000  O
  C105     1.0000 0.60560  0.02600  0.17990  Biso   1.000  C
  H105     1.0000 0.60530  0.04540  0.15450  Biso   1.000  H
  C106     1.0000 0.65950  0.12570  0.16020  Biso   1.000  C
  H106     1.0000 0.67600  0.09830  0.15930  Biso   1.000  H
  N105     1.0000 0.60600  0.03760  0.22250  Biso   1.000  N
  N106     1.0000 0.63160  0.13940  0.19460  Biso   1.000  N
  O105     1.0000 0.60520  0.03650  0.31740  Biso   1.000  O
  O106     1.0000 0.57410  0.24620  0.19350  Biso   1.000  O
  C107     1.0000 0.10560  0.52600  0.67990  Biso   1.000  C
  H107     1.0000 0.10530  0.54540  0.65450  Biso   1.000  H
  C108     1.0000 0.15950  0.62570  0.66020  Biso   1.000  C
  H108     1.0000 0.17600  0.59830  0.65930  Biso   1.000  H
  N107     1.0000 0.10600  0.53760  0.72250  Biso   1.000  N
  N108     1.0000 0.13160  0.63940  0.69460  Biso   1.000  N
  O107     1.0000 0.10520  0.53650  0.81740  Biso   1.000  O
  O108     1.0000 0.07410  0.74620  0.69350  Biso   1.000  O
  C109     1.0000 0.39440  0.97400  0.17990  Biso   1.000  C
  H109     1.0000 0.39470  0.95460  0.15450  Biso   1.000  H
  C110     1.0000 0.34050  0.87430  0.16020  Biso   1.000  C
  H110     1.0000 0.32400  0.90170  0.15930  Biso   1.000  H
  N109     1.0000 0.39400  0.96240  0.22250  Biso   1.000  N
  N110     1.0000 0.36840  0.86060  0.19460  Biso   1.000  N
  O109     1.0000 0.39480  0.96350  0.31740  Biso   1.000  O
  O110     1.0000 0.42590  0.75380  0.19350  Biso   1.000  O
  C111     1.0000 0.89440  0.47400  0.67990  Biso   1.000  C
  H111     1.0000 0.89470  0.45460  0.65450  Biso   1.000  H
  C112     1.0000 0.84050  0.37430  0.66020  Biso   1.000  C
  H112     1.0000 0.82400  0.40170  0.65930  Biso   1.000  H
  N111     1.0000 0.89400  0.46240  0.72250  Biso   1.000  N
  N112     1.0000 0.86840  0.36060  0.69460  Biso   1.000  N
  O111     1.0000 0.89480  0.46350  0.81740  Biso   1.000  O
  O112     1.0000 0.92590  0.25380  0.69350  Biso   1.000  O
  C113     1.0000 0.82010  0.39440  0.02600  Biso   1.000  C
  H113     1.0000 0.84550  0.39470  0.04540  Biso   1.000  H
  C114     1.0000 0.83980  0.34050  0.12570  Biso   1.000  C
  H114     1.0000 0.84070  0.32400  0.09830  Biso   1.000  H
  N113     1.0000 0.77750  0.39400  0.03760  Biso   1.000  N
  N114     1.0000 0.80540  0.36840  0.13940  Biso   1.000  N
  O113     1.0000 0.68260  0.39480  0.03650  Biso   1.000  O
  O114     1.0000 0.80650  0.42590  0.24620  Biso   1.000  O
  C115     1.0000 0.32010  0.89440  0.52600  Biso   1.000  C
  H115     1.0000 0.34550  0.89470  0.54540  Biso   1.000  H
  C116     1.0000 0.33980  0.84050  0.62570  Biso   1.000  C
  H116     1.0000 0.34070  0.82400  0.59830  Biso   1.000  H
  N115     1.0000 0.27750  0.89400  0.53760  Biso   1.000  N
  N116     1.0000 0.30540  0.86840  0.63940  Biso   1.000  N
  O115     1.0000 0.18260  0.89480  0.53650  Biso   1.000  O
  O116     1.0000 0.30650  0.92590  0.74620  Biso   1.000  O
  C117     1.0000 0.82010  0.60560  0.97400  Biso   1.000  C
  H117     1.0000 0.84550  0.60530  0.95460  Biso   1.000  H
  C118     1.0000 0.83980  0.65950  0.87430  Biso   1.000  C
  H118     1.0000 0.84070  0.67600  0.90170  Biso   1.000  H
  N117     1.0000 0.77750  0.60600  0.96240  Biso   1.000  N
  N118     1.0000 0.80540  0.63160  0.86060  Biso   1.000  N
  O117     1.0000 0.68260  0.60520  0.96350  Biso   1.000  O
  O118     1.0000 0.80650  0.57410  0.75380  Biso   1.000  O
  C119     1.0000 0.32010  0.10560  0.47400  Biso   1.000  C
  H119     1.0000 0.34550  0.10530  0.45460  Biso   1.000  H
  C120     1.0000 0.33980  0.15950  0.37430  Biso   1.000  C
  H120     1.0000 0.34070  0.17600  0.40170  Biso   1.000  H
  N119     1.0000 0.27750  0.10600  0.46240  Biso   1.000  N
  N120     1.0000 0.30540  0.13160  0.36060  Biso   1.000  N
  O119     1.0000 0.18260  0.10520  0.46350  Biso   1.000  O
  O120     1.0000 0.30650  0.07410  0.25380  Biso   1.000  O
  C121     1.0000 0.17990  0.60560  0.02600  Biso   1.000  C
  H121     1.0000 0.15450  0.60530  0.04540  Biso   1.000  H
  C122     1.0000 0.16020  0.65950  0.12570  Biso   1.000  C
  H122     1.0000 0.15930  0.67600  0.09830  Biso   1.000  H
  N121     1.0000 0.22250  0.60600  0.03760  Biso   1.000  N
  N122     1.0000 0.19460  0.63160  0.13940  Biso   1.000  N
  O121     1.0000 0.31740  0.60520  0.03650  Biso   1.000  O
  O122     1.0000 0.19350  0.57410  0.24620  Biso   1.000  O
  C123     1.0000 0.67990  0.10560  0.52600  Biso   1.000  C
  H123     1.0000 0.65450  0.10530  0.54540  Biso   1.000  H
  C124     1.0000 0.66020  0.15950  0.62570  Biso   1.000  C
  H124     1.0000 0.65930  0.17600  0.59830  Biso   1.000  H
  N123     1.0000 0.72250  0.10600  0.53760  Biso   1.000  N
  N124     1.0000 0.69460  0.13160  0.63940  Biso   1.000  N
  O123     1.0000 0.81740  0.10520  0.53650  Biso   1.000  O
  O124     1.0000 0.69350  0.07410  0.74620  Biso   1.000  O
  C125     1.0000 0.17990  0.39440  0.97400  Biso   1.000  C
  H125     1.0000 0.15450  0.39470  0.95460  Biso   1.000  H
  C126     1.0000 0.16020  0.34050  0.87430  Biso   1.000  C
  H126     1.0000 0.15930  0.32400  0.90170  Biso   1.000  H
  N125     1.0000 0.22250  0.39400  0.96240  Biso   1.000  N
  N126     1.0000 0.19460  0.36840  0.86060  Biso   1.000  N
  O125     1.0000 0.31740  0.39480  0.96350  Biso   1.000  O
  O126     1.0000 0.19350  0.42590  0.75380  Biso   1.000  O
  C127     1.0000 0.67990  0.89440  0.47400  Biso   1.000  C
  H127     1.0000 0.65450  0.89470  0.45460  Biso   1.000  H
  C128     1.0000 0.66020  0.84050  0.37430  Biso   1.000  C
  H128     1.0000 0.65930  0.82400  0.40170  Biso   1.000  H
  N127     1.0000 0.72250  0.89400  0.46240  Biso   1.000  N
  N128     1.0000 0.69460  0.86840  0.36060  Biso   1.000  N
  O127     1.0000 0.81740  0.89480  0.46350  Biso   1.000  O
  O128     1.0000 0.69350  0.92590  0.25380  Biso   1.000  O
  C129     1.0000 0.02600  0.82010  0.39440  Biso   1.000  C
  H129     1.0000 0.04540  0.84550  0.39470  Biso   1.000  H
  C130     1.0000 0.12570  0.83980  0.34050  Biso   1.000  C
  H130     1.0000 0.09830  0.84070  0.32400  Biso   1.000  H
  N129     1.0000 0.03760  0.77750  0.39400  Biso   1.000  N
  N130     1.0000 0.13940  0.80540  0.36840  Biso   1.000  N
  O129     1.0000 0.03650  0.68260  0.39480  Biso   1.000  O
  O130     1.0000 0.24620  0.80650  0.42590  Biso   1.000  O
  C131     1.0000 0.52600  0.32010  0.89440  Biso   1.000  C
  H131     1.0000 0.54540  0.34550  0.89470  Biso   1.000  H
  C132     1.0000 0.62570  0.33980  0.84050  Biso   1.000  C
  H132     1.0000 0.59830  0.34070  0.82400  Biso   1.000  H
  N131     1.0000 0.53760  0.27750  0.89400  Biso   1.000  N
  N132     1.0000 0.63940  0.30540  0.86840  Biso   1.000  N
  O131     1.0000 0.53650  0.18260  0.89480  Biso   1.000  O
  O132     1.0000 0.74620  0.30650  0.92590  Biso   1.000  O
  C133     1.0000 0.97400  0.82010  0.60560  Biso   1.000  C
  H133     1.0000 0.95460  0.84550  0.60530  Biso   1.000  H
  C134     1.0000 0.87430  0.83980  0.65950  Biso   1.000  C
  H134     1.0000 0.90170  0.84070  0.67600  Biso   1.000  H
  N133     1.0000 0.96240  0.77750  0.60600  Biso   1.000  N
  N134     1.0000 0.86060  0.80540  0.63160  Biso   1.000  N
  O133     1.0000 0.96350  0.68260  0.60520  Biso   1.000  O
  O134     1.0000 0.75380  0.80650  0.57410  Biso   1.000  O
  C135     1.0000 0.47400  0.32010  0.10560  Biso   1.000  C
  H135     1.0000 0.45460  0.34550  0.10530  Biso   1.000  H
  C136     1.0000 0.37430  0.33980  0.15950  Biso   1.000  C
  H136     1.0000 0.40170  0.34070  0.17600  Biso   1.000  H
  N135     1.0000 0.46240  0.27750  0.10600  Biso   1.000  N
  N136     1.0000 0.36060  0.30540  0.13160  Biso   1.000  N
  O135     1.0000 0.46350  0.18260  0.10520  Biso   1.000  O
  O136     1.0000 0.25380  0.30650  0.07410  Biso   1.000  O
  C137     1.0000 0.02600  0.17990  0.60560  Biso   1.000  C
  H137     1.0000 0.04540  0.15450  0.60530  Biso   1.000  H
  C138     1.0000 0.12570  0.16020  0.65950  Biso   1.000  C
  H138     1.0000 0.09830  0.15930  0.67600  Biso   1.000  H
  N137     1.0000 0.03760  0.22250  0.60600  Biso   1.000  N
  N138     1.0000 0.13940  0.19460  0.63160  Biso   1.000  N
  O137     1.0000 0.03650  0.31740  0.60520  Biso   1.000  O
  O138     1.0000 0.24620  0.19350  0.57410  Biso   1.000  O
  C139     1.0000 0.52600  0.67990  0.10560  Biso   1.000  C
  H139     1.0000 0.54540  0.65450  0.10530  Biso   1.000  H
  C140     1.0000 0.62570  0.66020  0.15950  Biso   1.000  C
  H140     1.0000 0.59830  0.65930  0.17600  Biso   1.000  H
  N139     1.0000 0.53760  0.72250  0.10600  Biso   1.000  N
  N140     1.0000 0.63940  0.69460  0.13160  Biso   1.000  N
  O139     1.0000 0.53650  0.81740  0.10520  Biso   1.000  O
  O140     1.0000 0.74620  0.69350  0.07410  Biso   1.000  O
  C141     1.0000 0.97400  0.17990  0.39440  Biso   1.000  C
  H141     1.0000 0.95460  0.15450  0.39470  Biso   1.000  H
  C142     1.0000 0.87430  0.16020  0.34050  Biso   1.000  C
  H142     1.0000 0.90170  0.15930  0.32400  Biso   1.000  H
  N141     1.0000 0.96240  0.22250  0.39400  Biso   1.000  N
  N142     1.0000 0.86060  0.19460  0.36840  Biso   1.000  N
  O141     1.0000 0.96350  0.31740  0.39480  Biso   1.000  O
  O142     1.0000 0.75380  0.19350  0.42590  Biso   1.000  O
  C143     1.0000 0.47400  0.67990  0.89440  Biso   1.000  C
  H143     1.0000 0.45460  0.65450  0.89470  Biso   1.000  H
  C144     1.0000 0.37430  0.66020  0.84050  Biso   1.000  C
  H144     1.0000 0.40170  0.65930  0.82400  Biso   1.000  H
  N143     1.0000 0.46240  0.72250  0.89400  Biso   1.000  N
  N144     1.0000 0.36060  0.69460  0.86840  Biso   1.000  N
  O143     1.0000 0.46350  0.81740  0.89480  Biso   1.000  O
  O144     1.0000 0.25380  0.69350  0.92590  Biso   1.000  O
  C145     1.0000 0.02600  0.39440  0.17990  Biso   1.000  C
  H145     1.0000 0.04540  0.39470  0.15450  Biso   1.000  H
  C146     1.0000 0.12570  0.34050  0.16020  Biso   1.000  C
  H146     1.0000 0.09830  0.32400  0.15930  Biso   1.000  H
  N145     1.0000 0.03760  0.39400  0.22250  Biso   1.000  N
  N146     1.0000 0.13940  0.36840  0.19460  Biso   1.000  N
  O145     1.0000 0.03650  0.39480  0.31740  Biso   1.000  O
  O146     1.0000 0.24620  0.42590  0.19350  Biso   1.000  O
  C147     1.0000 0.52600  0.89440  0.67990  Biso   1.000  C
  H147     1.0000 0.54540  0.89470  0.65450  Biso   1.000  H
  C148     1.0000 0.62570  0.84050  0.66020  Biso   1.000  C
  H148     1.0000 0.59830  0.82400  0.65930  Biso   1.000  H
  N147     1.0000 0.53760  0.89400  0.72250  Biso   1.000  N
  N148     1.0000 0.63940  0.86840  0.69460  Biso   1.000  N
  O147     1.0000 0.53650  0.89480  0.81740  Biso   1.000  O
  O148     1.0000 0.74620  0.92590  0.69350  Biso   1.000  O
  C149     1.0000 0.97400  0.60560  0.17990  Biso   1.000  C
  H149     1.0000 0.95460  0.60530  0.15450  Biso   1.000  H
  C150     1.0000 0.87430  0.65950  0.16020  Biso   1.000  C
  H150     1.0000 0.90170  0.67600  0.15930  Biso   1.000  H
  N149     1.0000 0.96240  0.60600  0.22250  Biso   1.000  N
  N150     1.0000 0.86060  0.63160  0.19460  Biso   1.000  N
  O149     1.0000 0.96350  0.60520  0.31740  Biso   1.000  O
  O150     1.0000 0.75380  0.57410  0.19350  Biso   1.000  O
  C151     1.0000 0.47400  0.10560  0.67990  Biso   1.000  C
  H151     1.0000 0.45460  0.10530  0.65450  Biso   1.000  H
  C152     1.0000 0.37430  0.15950  0.66020  Biso   1.000  C
  H152     1.0000 0.40170  0.17600  0.65930  Biso   1.000  H
  N151     1.0000 0.46240  0.10600  0.72250  Biso   1.000  N
  N152     1.0000 0.36060  0.13160  0.69460  Biso   1.000  N
  O151     1.0000 0.46350  0.10520  0.81740  Biso   1.000  O
  O152     1.0000 0.25380  0.07410  0.69350  Biso   1.000  O
  C153     1.0000 0.02600  0.60560  0.82010  Biso   1.000  C
  H153     1.0000 0.04540  0.60530  0.84550  Biso   1.000  H
  C154     1.0000 0.12570  0.65950  0.83980  Biso   1.000  C
  H154     1.0000 0.09830  0.67600  0.84070  Biso   1.000  H
  N153     1.0000 0.03760  0.60600  0.77750  Biso   1.000  N
  N154     1.0000 0.13940  0.63160  0.80540  Biso   1.000  N
  O153     1.0000 0.03650  0.60520  0.68260  Biso   1.000  O
  O154     1.0000 0.24620  0.57410  0.80650  Biso   1.000  O
  C155     1.0000 0.52600  0.10560  0.32010  Biso   1.000  C
  H155     1.0000 0.54540  0.10530  0.34550  Biso   1.000  H
  C156     1.0000 0.62570  0.15950  0.33980  Biso   1.000  C
  H156     1.0000 0.59830  0.17600  0.34070  Biso   1.000  H
  N155     1.0000 0.53760  0.10600  0.27750  Biso   1.000  N
  N156     1.0000 0.63940  0.13160  0.30540  Biso   1.000  N
  O155     1.0000 0.53650  0.10520  0.18260  Biso   1.000  O
  O156     1.0000 0.74620  0.07410  0.30650  Biso   1.000  O
  C157     1.0000 0.97400  0.39440  0.82010  Biso   1.000  C
  H157     1.0000 0.95460  0.39470  0.84550  Biso   1.000  H
  C158     1.0000 0.87430  0.34050  0.83980  Biso   1.000  C
  H158     1.0000 0.90170  0.32400  0.84070  Biso   1.000  H
  N157     1.0000 0.96240  0.39400  0.77750  Biso   1.000  N
  N158     1.0000 0.86060  0.36840  0.80540  Biso   1.000  N
  O157     1.0000 0.96350  0.39480  0.68260  Biso   1.000  O
  O158     1.0000 0.75380  0.42590  0.80650  Biso   1.000  O
  C159     1.0000 0.47400  0.89440  0.32010  Biso   1.000  C
  H159     1.0000 0.45460  0.89470  0.34550  Biso   1.000  H
  C160     1.0000 0.37430  0.84050  0.33980  Biso   1.000  C
  H160     1.0000 0.40170  0.82400  0.34070  Biso   1.000  H
  N159     1.0000 0.46240  0.89400  0.27750  Biso   1.000  N
  N160     1.0000 0.36060  0.86840  0.30540  Biso   1.000  N
  O159     1.0000 0.46350  0.89480  0.18260  Biso   1.000  O
  O160     1.0000 0.25380  0.92590  0.30650  Biso   1.000  O
  C161     1.0000 0.39440  0.82010  0.97400  Biso   1.000  C
  H161     1.0000 0.39470  0.84550  0.95460  Biso   1.000  H
  C162     1.0000 0.34050  0.83980  0.87430  Biso   1.000  C
  H162     1.0000 0.32400  0.84070  0.90170  Biso   1.000  H
  N161     1.0000 0.39400  0.77750  0.96240  Biso   1.000  N
  N162     1.0000 0.36840  0.80540  0.86060  Biso   1.000  N
  O161     1.0000 0.39480  0.68260  0.96350  Biso   1.000  O
  O162     1.0000 0.42590  0.80650  0.75380  Biso   1.000  O
  C163     1.0000 0.89440  0.32010  0.47400  Biso   1.000  C
  H163     1.0000 0.89470  0.34550  0.45460  Biso   1.000  H
  C164     1.0000 0.84050  0.33980  0.37430  Biso   1.000  C
  H164     1.0000 0.82400  0.34070  0.40170  Biso   1.000  H
  N163     1.0000 0.89400  0.27750  0.46240  Biso   1.000  N
  N164     1.0000 0.86840  0.30540  0.36060  Biso   1.000  N
  O163     1.0000 0.89480  0.18260  0.46350  Biso   1.000  O
  O164     1.0000 0.92590  0.30650  0.25380  Biso   1.000  O
  C165     1.0000 0.60560  0.82010  0.02600  Biso   1.000  C
  H165     1.0000 0.60530  0.84550  0.04540  Biso   1.000  H
  C166     1.0000 0.65950  0.83980  0.12570  Biso   1.000  C
  H166     1.0000 0.67600  0.84070  0.09830  Biso   1.000  H
  N165     1.0000 0.60600  0.77750  0.03760  Biso   1.000  N
  N166     1.0000 0.63160  0.80540  0.13940  Biso   1.000  N
  O165     1.0000 0.60520  0.68260  0.03650  Biso   1.000  O
  O166     1.0000 0.57410  0.80650  0.24620  Biso   1.000  O
  C167     1.0000 0.10560  0.32010  0.52600  Biso   1.000  C
  H167     1.0000 0.10530  0.34550  0.54540  Biso   1.000  H
  C168     1.0000 0.15950  0.33980  0.62570  Biso   1.000  C
  H168     1.0000 0.17600  0.34070  0.59830  Biso   1.000  H
  N167     1.0000 0.10600  0.27750  0.53760  Biso   1.000  N
  N168     1.0000 0.13160  0.30540  0.63940  Biso   1.000  N
  O167     1.0000 0.10520  0.18260  0.53650  Biso   1.000  O
  O168     1.0000 0.07410  0.30650  0.74620  Biso   1.000  O
  C169     1.0000 0.60560  0.17990  0.97400  Biso   1.000  C
  H169     1.0000 0.60530  0.15450  0.95460  Biso   1.000  H
  C170     1.0000 0.65950  0.16020  0.87430  Biso   1.000  C
  H170     1.0000 0.67600  0.15930  0.90170  Biso   1.000  H
  N169     1.0000 0.60600  0.22250  0.96240  Biso   1.000  N
  N170     1.0000 0.63160  0.19460  0.86060  Biso   1.000  N
  O169     1.0000 0.60520  0.31740  0.96350  Biso   1.000  O
  O170     1.0000 0.57410  0.19350  0.75380  Biso   1.000  O
  C171     1.0000 0.10560  0.67990  0.47400  Biso   1.000  C
  H171     1.0000 0.10530  0.65450  0.45460  Biso   1.000  H
  C172     1.0000 0.15950  0.66020  0.37430  Biso   1.000  C
  H172     1.0000 0.17600  0.65930  0.40170  Biso   1.000  H
  N171     1.0000 0.10600  0.72250  0.46240  Biso   1.000  N
  N172     1.0000 0.13160  0.69460  0.36060  Biso   1.000  N
  O171     1.0000 0.10520  0.81740  0.46350  Biso   1.000  O
  O172     1.0000 0.07410  0.69350  0.25380  Biso   1.000  O
  C173     1.0000 0.39440  0.17990  0.02600  Biso   1.000  C
  H173     1.0000 0.39470  0.15450  0.04540  Biso   1.000  H
  C174     1.0000 0.34050  0.16020  0.12570  Biso   1.000  C
  H174     1.0000 0.32400  0.15930  0.09830  Biso   1.000  H
  N173     1.0000 0.39400  0.22250  0.03760  Biso   1.000  N
  N174     1.0000 0.36840  0.19460  0.13940  Biso   1.000  N
  O173     1.0000 0.39480  0.31740  0.03650  Biso   1.000  O
  O174     1.0000 0.42590  0.19350  0.24620  Biso   1.000  O
  C175     1.0000 0.89440  0.67990  0.52600  Biso   1.000  C
  H175     1.0000 0.89470  0.65450  0.54540  Biso   1.000  H
  C176     1.0000 0.84050  0.66020  0.62570  Biso   1.000  C
  H176     1.0000 0.82400  0.65930  0.59830  Biso   1.000  H
  N175     1.0000 0.89400  0.72250  0.53760  Biso   1.000  N
  N176     1.0000 0.86840  0.69460  0.63940  Biso   1.000  N
  O175     1.0000 0.89480  0.81740  0.53650  Biso   1.000  O
  O176     1.0000 0.92590  0.69350  0.74620  Biso   1.000  O
  C177     1.0000 0.82010  0.02600  0.60560  Biso   1.000  C
  H177     1.0000 0.84550  0.04540  0.60530  Biso   1.000  H
  C178     1.0000 0.83980  0.12570  0.65950  Biso   1.000  C
  H178     1.0000 0.84070  0.09830  0.67600  Biso   1.000  H
  N177     1.0000 0.77750  0.03760  0.60600  Biso   1.000  N
  N178     1.0000 0.80540  0.13940  0.63160  Biso   1.000  N
  O177     1.0000 0.68260  0.03650  0.60520  Biso   1.000  O
  O178     1.0000 0.80650  0.24620  0.57410  Biso   1.000  O
  C179     1.0000 0.32010  0.52600  0.10560  Biso   1.000  C
  H179     1.0000 0.34550  0.54540  0.10530  Biso   1.000  H
  C180     1.0000 0.33980  0.62570  0.15950  Biso   1.000  C
  H180     1.0000 0.34070  0.59830  0.17600  Biso   1.000  H
  N179     1.0000 0.27750  0.53760  0.10600  Biso   1.000  N
  N180     1.0000 0.30540  0.63940  0.13160  Biso   1.000  N
  O179     1.0000 0.18260  0.53650  0.10520  Biso   1.000  O
  O180     1.0000 0.30650  0.74620  0.07410  Biso   1.000  O
  C181     1.0000 0.82010  0.97400  0.39440  Biso   1.000  C
  H181     1.0000 0.84550  0.95460  0.39470  Biso   1.000  H
  C182     1.0000 0.83980  0.87430  0.34050  Biso   1.000  C
  H182     1.0000 0.84070  0.90170  0.32400  Biso   1.000  H
  N181     1.0000 0.77750  0.96240  0.39400  Biso   1.000  N
  N182     1.0000 0.80540  0.86060  0.36840  Biso   1.000  N
  O181     1.0000 0.68260  0.96350  0.39480  Biso   1.000  O
  O182     1.0000 0.80650  0.75380  0.42590  Biso   1.000  O
  C183     1.0000 0.32010  0.47400  0.89440  Biso   1.000  C
  H183     1.0000 0.34550  0.45460  0.89470  Biso   1.000  H
  C184     1.0000 0.33980  0.37430  0.84050  Biso   1.000  C
  H184     1.0000 0.34070  0.40170  0.82400  Biso   1.000  H
  N183     1.0000 0.27750  0.46240  0.89400  Biso   1.000  N
  N184     1.0000 0.30540  0.36060  0.86840  Biso   1.000  N
  O183     1.0000 0.18260  0.46350  0.89480  Biso   1.000  O
  O184     1.0000 0.30650  0.25380  0.92590  Biso   1.000  O
  C185     1.0000 0.17990  0.02600  0.39440  Biso   1.000  C
  H185     1.0000 0.15450  0.04540  0.39470  Biso   1.000  H
  C186     1.0000 0.16020  0.12570  0.34050  Biso   1.000  C
  H186     1.0000 0.15930  0.09830  0.32400  Biso   1.000  H
  N185     1.0000 0.22250  0.03760  0.39400  Biso   1.000  N
  N186     1.0000 0.19460  0.13940  0.36840  Biso   1.000  N
  O185     1.0000 0.31740  0.03650  0.39480  Biso   1.000  O
  O186     1.0000 0.19350  0.24620  0.42590  Biso   1.000  O
  C187     1.0000 0.67990  0.52600  0.89440  Biso   1.000  C
  H187     1.0000 0.65450  0.54540  0.89470  Biso   1.000  H
  C188     1.0000 0.66020  0.62570  0.84050  Biso   1.000  C
  H188     1.0000 0.65930  0.59830  0.82400  Biso   1.000  H
  N187     1.0000 0.72250  0.53760  0.89400  Biso   1.000  N
  N188     1.0000 0.69460  0.63940  0.86840  Biso   1.000  N
  O187     1.0000 0.81740  0.53650  0.89480  Biso   1.000  O
  O188     1.0000 0.69350  0.74620  0.92590  Biso   1.000  O
  C189     1.0000 0.17990  0.97400  0.60560  Biso   1.000  C
  H189     1.0000 0.15450  0.95460  0.60530  Biso   1.000  H
  C190     1.0000 0.16020  0.87430  0.65950  Biso   1.000  C
  H190     1.0000 0.15930  0.90170  0.67600  Biso   1.000  H
  N189     1.0000 0.22250  0.96240  0.60600  Biso   1.000  N
  N190     1.0000 0.19460  0.86060  0.63160  Biso   1.000  N
  O189     1.0000 0.31740  0.96350  0.60520  Biso   1.000  O
  O190     1.0000 0.19350  0.75380  0.57410  Biso   1.000  O
  C191     1.0000 0.67990  0.47400  0.10560  Biso   1.000  C
  H191     1.0000 0.65450  0.45460  0.10530  Biso   1.000  H
  C192     1.0000 0.66020  0.37430  0.15950  Biso   1.000  C
  H192     1.0000 0.65930  0.40170  0.17600  Biso   1.000  H
  N191     1.0000 0.72250  0.46240  0.10600  Biso   1.000  N
  N192     1.0000 0.69460  0.36060  0.13160  Biso   1.000  N
  O191     1.0000 0.81740  0.46350  0.10520  Biso   1.000  O
  O192     1.0000 0.69350  0.25380  0.07410  Biso   1.000  O
  C193     1.0000 0.61560  0.81870  0.18130  Biso   1.000  C
  N193     1.0000 0.58650  0.79100  0.20900  Biso   1.000  N
  C194     1.0000 0.11560  0.31870  0.68130  Biso   1.000  C
  N194     1.0000 0.08650  0.29100  0.70900  Biso   1.000  N
  C195     1.0000 0.38440  0.18130  0.18130  Biso   1.000  C
  N195     1.0000 0.41350  0.20900  0.20900  Biso   1.000  N
  C196     1.0000 0.88440  0.68130  0.68130  Biso   1.000  C
  N196     1.0000 0.91350  0.70900  0.70900  Biso   1.000  N
  C197     1.0000 0.38440  0.81870  0.81870  Biso   1.000  C
  N197     1.0000 0.41350  0.79100  0.79100  Biso   1.000  N
  C198     1.0000 0.88440  0.31870  0.31870  Biso   1.000  C
  N198     1.0000 0.91350  0.29100  0.29100  Biso   1.000  N
  C199     1.0000 0.61560  0.18130  0.81870  Biso   1.000  C
  N199     1.0000 0.58650  0.20900  0.79100  Biso   1.000  N
  C200     1.0000 0.11560  0.68130  0.31870  Biso   1.000  C
  N200     1.0000 0.08650  0.70900  0.29100  Biso   1.000  N
  C201     1.0000 0.18130  0.61560  0.81870  Biso   1.000  C
  N201     1.0000 0.20900  0.58650  0.79100  Biso   1.000  N
  C202     1.0000 0.68130  0.11560  0.31870  Biso   1.000  C
  N202     1.0000 0.70900  0.08650  0.29100  Biso   1.000  N
  C203     1.0000 0.18130  0.38440  0.18130  Biso   1.000  C
  N203     1.0000 0.20900  0.41350  0.20900  Biso   1.000  N
  C204     1.0000 0.68130  0.88440  0.68130  Biso   1.000  C
  N204     1.0000 0.70900  0.91350  0.70900  Biso   1.000  N
  C205     1.0000 0.81870  0.38440  0.81870  Biso   1.000  C
  N205     1.0000 0.79100  0.41350  0.79100  Biso   1.000  N
  C206     1.0000 0.31870  0.88440  0.31870  Biso   1.000  C
  N206     1.0000 0.29100  0.91350  0.29100  Biso   1.000  N
  C207     1.0000 0.81870  0.61560  0.18130  Biso   1.000  C
  N207     1.0000 0.79100  0.58650  0.20900  Biso   1.000  N
  C208     1.0000 0.31870  0.11560  0.68130  Biso   1.000  C
  N208     1.0000 0.29100  0.08650  0.70900  Biso   1.000  N
  C209     1.0000 0.81870  0.18130  0.61560  Biso   1.000  C
  N209     1.0000 0.79100  0.20900  0.58650  Biso   1.000  N
  C210     1.0000 0.31870  0.68130  0.11560  Biso   1.000  C
  N210     1.0000 0.29100  0.70900  0.08650  Biso   1.000  N
  C211     1.0000 0.18130  0.18130  0.38440  Biso   1.000  C
  N211     1.0000 0.20900  0.20900  0.41350  Biso   1.000  N
  C212     1.0000 0.68130  0.68130  0.88440  Biso   1.000  C
  N212     1.0000 0.70900  0.70900  0.91350  Biso   1.000  N
  C213     1.0000 0.81870  0.81870  0.38440  Biso   1.000  C
  N213     1.0000 0.79100  0.79100  0.41350  Biso   1.000  N
  C214     1.0000 0.31870  0.31870  0.88440  Biso   1.000  C
  N214     1.0000 0.29100  0.29100  0.91350  Biso   1.000  N
  C215     1.0000 0.18130  0.81870  0.61560  Biso   1.000  C
  N215     1.0000 0.20900  0.79100  0.58650  Biso   1.000  N
  C216     1.0000 0.68130  0.31870  0.11560  Biso   1.000  C
  N216     1.0000 0.70900  0.29100  0.08650  Biso   1.000  N
  C217     1.0000 0.81870  0.61560  0.81870  Biso   1.000  C
  N217     1.0000 0.79100  0.58650  0.79100  Biso   1.000  N
  C218     1.0000 0.31870  0.11560  0.31870  Biso   1.000  C
  N218     1.0000 0.29100  0.08650  0.29100  Biso   1.000  N
  C219     1.0000 0.18130  0.38440  0.81870  Biso   1.000  C
  N219     1.0000 0.20900  0.41350  0.79100  Biso   1.000  N
  C220     1.0000 0.68130  0.88440  0.31870  Biso   1.000  C
  N220     1.0000 0.70900  0.91350  0.29100  Biso   1.000  N
  C221     1.0000 0.81870  0.38440  0.18130  Biso   1.000  C
  N221     1.0000 0.79100  0.41350  0.20900  Biso   1.000  N
  C222     1.0000 0.31870  0.88440  0.68130  Biso   1.000  C
  N222     1.0000 0.29100  0.91350  0.70900  Biso   1.000  N
  C223     1.0000 0.18130  0.61560  0.18130  Biso   1.000  C
  N223     1.0000 0.20900  0.58650  0.20900  Biso   1.000  N
  C224     1.0000 0.68130  0.11560  0.68130  Biso   1.000  C
  N224     1.0000 0.70900  0.08650  0.70900  Biso   1.000  N
  C225     1.0000 0.61560  0.18130  0.18130  Biso   1.000  C
  N225     1.0000 0.58650  0.20900  0.20900  Biso   1.000  N
  C226     1.0000 0.11560  0.68130  0.68130  Biso   1.000  C
  N226     1.0000 0.08650  0.70900  0.70900  Biso   1.000  N
  C227     1.0000 0.38440  0.18130  0.81870  Biso   1.000  C
  N227     1.0000 0.41350  0.20900  0.79100  Biso   1.000  N
  C228     1.0000 0.88440  0.68130  0.31870  Biso   1.000  C
  N228     1.0000 0.91350  0.70900  0.29100  Biso   1.000  N
  C229     1.0000 0.38440  0.81870  0.18130  Biso   1.000  C
  N229     1.0000 0.41350  0.79100  0.20900  Biso   1.000  N
  C230     1.0000 0.88440  0.31870  0.68130  Biso   1.000  C
  N230     1.0000 0.91350  0.29100  0.70900  Biso   1.000  N
  C231     1.0000 0.61560  0.81870  0.81870  Biso   1.000  C
  N231     1.0000 0.58650  0.79100  0.79100  Biso   1.000  N
  C232     1.0000 0.11560  0.31870  0.31870  Biso   1.000  C
  N232     1.0000 0.08650  0.29100  0.29100  Biso   1.000  N
  C233     1.0000 0.18130  0.81870  0.38440  Biso   1.000  C
  N233     1.0000 0.20900  0.79100  0.41350  Biso   1.000  N
  C234     1.0000 0.68130  0.31870  0.88440  Biso   1.000  C
  N234     1.0000 0.70900  0.29100  0.91350  Biso   1.000  N
  C235     1.0000 0.18130  0.18130  0.61560  Biso   1.000  C
  N235     1.0000 0.20900  0.20900  0.58650  Biso   1.000  N
  C236     1.0000 0.68130  0.68130  0.11560  Biso   1.000  C
  N236     1.0000 0.70900  0.70900  0.08650  Biso   1.000  N
  C237     1.0000 0.81870  0.81870  0.61560  Biso   1.000  C
  N237     1.0000 0.79100  0.79100  0.58650  Biso   1.000  N
  C238     1.0000 0.31870  0.31870  0.11560  Biso   1.000  C
  N238     1.0000 0.29100  0.29100  0.08650  Biso   1.000  N
  C239     1.0000 0.81870  0.18130  0.38440  Biso   1.000  C
  N239     1.0000 0.79100  0.20900  0.41350  Biso   1.000  N
  C240     1.0000 0.31870  0.68130  0.88440  Biso   1.000  C
  N240     1.0000 0.29100  0.70900  0.91350  Biso   1.000  N
  C241     1.0000 0.60690  0.00000  0.25000  Biso   1.000  C
  N241     1.0000 0.60770  0.00000  0.29540  Biso   1.000  N
  C242     1.0000 0.10690  0.50000  0.75000  Biso   1.000  C
  N242     1.0000 0.10770  0.50000  0.79540  Biso   1.000  N
  C243     1.0000 0.39310  0.00000  0.25000  Biso   1.000  C
  N243     1.0000 0.39230  0.00000  0.29540  Biso   1.000  N
  C244     1.0000 0.89310  0.50000  0.75000  Biso   1.000  C
  N244     1.0000 0.89230  0.50000  0.79540  Biso   1.000  N
  C245     1.0000 0.39310  0.00000  0.75000  Biso   1.000  C
  N245     1.0000 0.39230  0.00000  0.70460  Biso   1.000  N
  C246     1.0000 0.89310  0.50000  0.25000  Biso   1.000  C
  N246     1.0000 0.89230  0.50000  0.20460  Biso   1.000  N
  C247     1.0000 0.60690  0.00000  0.75000  Biso   1.000  C
  N247     1.0000 0.60770  0.00000  0.70460  Biso   1.000  N
  C248     1.0000 0.10690  0.50000  0.25000  Biso   1.000  C
  N248     1.0000 0.10770  0.50000  0.20460  Biso   1.000  N
  C249     1.0000 0.25000  0.60690  0.00000  Biso   1.000  C
  N249     1.0000 0.29540  0.60770  0.00000  Biso   1.000  N
  C250     1.0000 0.75000  0.10690  0.50000  Biso   1.000  C
  N250     1.0000 0.79540  0.10770  0.50000  Biso   1.000  N
  C251     1.0000 0.25000  0.39310  0.00000  Biso   1.000  C
  N251     1.0000 0.29540  0.39230  0.00000  Biso   1.000  N
  C252     1.0000 0.75000  0.89310  0.50000  Biso   1.000  C
  N252     1.0000 0.79540  0.89230  0.50000  Biso   1.000  N
  C253     1.0000 0.75000  0.39310  0.00000  Biso   1.000  C
  N253     1.0000 0.70460  0.39230  0.00000  Biso   1.000  N
  C254     1.0000 0.25000  0.89310  0.50000  Biso   1.000  C
  N254     1.0000 0.20460  0.89230  0.50000  Biso   1.000  N
  C255     1.0000 0.75000  0.60690  0.00000  Biso   1.000  C
  N255     1.0000 0.70460  0.60770  0.00000  Biso   1.000  N
  C256     1.0000 0.25000  0.10690  0.50000  Biso   1.000  C
  N256     1.0000 0.20460  0.10770  0.50000  Biso   1.000  N
  C257     1.0000 0.00000  0.25000  0.60690  Biso   1.000  C
  N257     1.0000 0.00000  0.29540  0.60770  Biso   1.000  N
  C258     1.0000 0.50000  0.75000  0.10690  Biso   1.000  C
  N258     1.0000 0.50000  0.79540  0.10770  Biso   1.000  N
  C259     1.0000 0.00000  0.25000  0.39310  Biso   1.000  C
  N259     1.0000 0.00000  0.29540  0.39230  Biso   1.000  N
  C260     1.0000 0.50000  0.75000  0.89310  Biso   1.000  C
  N260     1.0000 0.50000  0.79540  0.89230  Biso   1.000  N
  C261     1.0000 0.00000  0.75000  0.39310  Biso   1.000  C
  N261     1.0000 0.00000  0.70460  0.39230  Biso   1.000  N
  C262     1.0000 0.50000  0.25000  0.89310  Biso   1.000  C
  N262     1.0000 0.50000  0.20460  0.89230  Biso   1.000  N
  C263     1.0000 0.00000  0.75000  0.60690  Biso   1.000  C
  N263     1.0000 0.00000  0.70460  0.60770  Biso   1.000  N
  C264     1.0000 0.50000  0.25000  0.10690  Biso   1.000  C
  N264     1.0000 0.50000  0.20460  0.10770  Biso   1.000  N
  C265     1.0000 0.00000  0.60690  0.75000  Biso   1.000  C
  N265     1.0000 0.00000  0.60770  0.70460  Biso   1.000  N
  C266     1.0000 0.50000  0.10690  0.25000  Biso   1.000  C
  N266     1.0000 0.50000  0.10770  0.20460  Biso   1.000  N
  C267     1.0000 0.00000  0.39310  0.75000  Biso   1.000  C
  N267     1.0000 0.00000  0.39230  0.70460  Biso   1.000  N
  C268     1.0000 0.50000  0.89310  0.25000  Biso   1.000  C
  N268     1.0000 0.50000  0.89230  0.20460  Biso   1.000  N
  C269     1.0000 0.00000  0.39310  0.25000  Biso   1.000  C
  N269     1.0000 0.00000  0.39230  0.29540  Biso   1.000  N
  C270     1.0000 0.50000  0.89310  0.75000  Biso   1.000  C
  N270     1.0000 0.50000  0.89230  0.79540  Biso   1.000  N
  C271     1.0000 0.00000  0.60690  0.25000  Biso   1.000  C
  N271     1.0000 0.00000  0.60770  0.29540  Biso   1.000  N
  C272     1.0000 0.50000  0.10690  0.75000  Biso   1.000  C
  N272     1.0000 0.50000  0.10770  0.79540  Biso   1.000  N
  C273     1.0000 0.60690  0.25000  0.00000  Biso   1.000  C
  N273     1.0000 0.60770  0.29540  0.00000  Biso   1.000  N
  C274     1.0000 0.10690  0.75000  0.50000  Biso   1.000  C
  N274     1.0000 0.10770  0.79540  0.50000  Biso   1.000  N
  C275     1.0000 0.39310  0.25000  0.00000  Biso   1.000  C
  N275     1.0000 0.39230  0.29540  0.00000  Biso   1.000  N
  C276     1.0000 0.89310  0.75000  0.50000  Biso   1.000  C
  N276     1.0000 0.89230  0.79540  0.50000  Biso   1.000  N
  C277     1.0000 0.39310  0.75000  0.00000  Biso   1.000  C
  N277     1.0000 0.39230  0.70460  0.00000  Biso   1.000  N
  C278     1.0000 0.89310  0.25000  0.50000  Biso   1.000  C
  N278     1.0000 0.89230  0.20460  0.50000  Biso   1.000  N
  C279     1.0000 0.60690  0.75000  0.00000  Biso   1.000  C
  N279     1.0000 0.60770  0.70460  0.00000  Biso   1.000  N
  C280     1.0000 0.10690  0.25000  0.50000  Biso   1.000  C
  N280     1.0000 0.10770  0.20460  0.50000  Biso   1.000  N
  C281     1.0000 0.25000  0.00000  0.39310  Biso   1.000  C
  N281     1.0000 0.29540  0.00000  0.39230  Biso   1.000  N
  C282     1.0000 0.75000  0.50000  0.89310  Biso   1.000  C
  N282     1.0000 0.79540  0.50000  0.89230  Biso   1.000  N
  C283     1.0000 0.25000  0.00000  0.60690  Biso   1.000  C
  N283     1.0000 0.29540  0.00000  0.60770  Biso   1.000  N
  C284     1.0000 0.75000  0.50000  0.10690  Biso   1.000  C
  N284     1.0000 0.79540  0.50000  0.10770  Biso   1.000  N
  C285     1.0000 0.75000  0.00000  0.60690  Biso   1.000  C
  N285     1.0000 0.70460  0.00000  0.60770  Biso   1.000  N
  C286     1.0000 0.25000  0.50000  0.10690  Biso   1.000  C
  N286     1.0000 0.20460  0.50000  0.10770  Biso   1.000  N
  C287     1.0000 0.75000  0.00000  0.39310  Biso   1.000  C
  N287     1.0000 0.70460  0.00000  0.39230  Biso   1.000  N
  C288     1.0000 0.25000  0.50000  0.89310  Biso   1.000  C
  N288     1.0000 0.20460  0.50000  0.89230  Biso   1.000  N
  Co1      1.0000 0.60500  0.89500  0.25000  Biso   1.000  Co
  Co2      1.0000 0.39500  0.10500  0.25000  Biso   1.000  Co
  Co3      1.0000 0.39500  0.89500  0.75000  Biso   1.000  Co
  Co4      1.0000 0.60500  0.10500  0.75000  Biso   1.000  Co
  Co5      1.0000 0.25000  0.60500  0.89500  Biso   1.000  Co
  Co6      1.0000 0.25000  0.39500  0.10500  Biso   1.000  Co
  Co7      1.0000 0.75000  0.39500  0.89500  Biso   1.000  Co
  Co8      1.0000 0.75000  0.60500  0.10500  Biso   1.000  Co
  Co9      1.0000 0.89500  0.25000  0.60500  Biso   1.000  Co
  Co10     1.0000 0.10500  0.25000  0.39500  Biso   1.000  Co
  Co11     1.0000 0.89500  0.75000  0.39500  Biso   1.000  Co
  Co12     1.0000 0.10500  0.75000  0.60500  Biso   1.000  Co
  Co13     1.0000 0.89500  0.60500  0.75000  Biso   1.000  Co
  Co14     1.0000 0.10500  0.39500  0.75000  Biso   1.000  Co
  Co15     1.0000 0.89500  0.39500  0.25000  Biso   1.000  Co
  Co16     1.0000 0.10500  0.60500  0.25000  Biso   1.000  Co
  Co17     1.0000 0.60500  0.25000  0.10500  Biso   1.000  Co
  Co18     1.0000 0.39500  0.25000  0.89500  Biso   1.000  Co
  Co19     1.0000 0.39500  0.75000  0.10500  Biso   1.000  Co
  Co20     1.0000 0.60500  0.75000  0.89500  Biso   1.000  Co
  Co21     1.0000 0.25000  0.89500  0.39500  Biso   1.000  Co
  Co22     1.0000 0.25000  0.10500  0.60500  Biso   1.000  Co
  Co23     1.0000 0.75000  0.89500  0.60500  Biso   1.000  Co
  Co24     1.0000 0.75000  0.10500  0.39500  Biso   1.000  Co
  Co25     1.0000 0.39500  0.10500  0.75000  Biso   1.000  Co
  Co26     1.0000 0.60500  0.89500  0.75000  Biso   1.000  Co
  Co27     1.0000 0.60500  0.10500  0.25000  Biso   1.000  Co
  Co28     1.0000 0.39500  0.89500  0.25000  Biso   1.000  Co
  Co29     1.0000 0.75000  0.39500  0.10500  Biso   1.000  Co
  Co30     1.0000 0.75000  0.60500  0.89500  Biso   1.000  Co
  Co31     1.0000 0.25000  0.60500  0.10500  Biso   1.000  Co
  Co32     1.0000 0.25000  0.39500  0.89500  Biso   1.000  Co
  Co33     1.0000 0.10500  0.75000  0.39500  Biso   1.000  Co
  Co34     1.0000 0.89500  0.75000  0.60500  Biso   1.000  Co
  Co35     1.0000 0.10500  0.25000  0.60500  Biso   1.000  Co
  Co36     1.0000 0.89500  0.25000  0.39500  Biso   1.000  Co
  Co37     1.0000 0.10500  0.39500  0.25000  Biso   1.000  Co
  Co38     1.0000 0.89500  0.60500  0.25000  Biso   1.000  Co
  Co39     1.0000 0.10500  0.60500  0.75000  Biso   1.000  Co
  Co40     1.0000 0.89500  0.39500  0.75000  Biso   1.000  Co
  Co41     1.0000 0.39500  0.75000  0.89500  Biso   1.000  Co
  Co42     1.0000 0.60500  0.75000  0.10500  Biso   1.000  Co
  Co43     1.0000 0.60500  0.25000  0.89500  Biso   1.000  Co
  Co44     1.0000 0.39500  0.25000  0.10500  Biso   1.000  Co
  Co45     1.0000 0.75000  0.10500  0.60500  Biso   1.000  Co
  Co46     1.0000 0.75000  0.89500  0.39500  Biso   1.000  Co
  Co47     1.0000 0.25000  0.10500  0.39500  Biso   1.000  Co
  Co48     1.0000 0.25000  0.89500  0.60500  Biso   1.000  Co
