data_image0
_cell_length_a       26.28
_cell_length_b       47.8
_cell_length_c       9.585
_cell_angle_alpha    90
_cell_angle_beta     90
_cell_angle_gamma    90

_symmetry_space_group_name_H-M    "P 1"
_symmetry_int_tables_number       1

loop_
  _symmetry_equiv_pos_as_xyz
  'x, y, z'

loop_
  _atom_site_label
  _atom_site_occupancy
  _atom_site_fract_x
  _atom_site_fract_y
  _atom_site_fract_z
  _atom_site_thermal_displace_type
  _atom_site_B_iso_or_equiv
  _atom_site_type_symbol
  N1       1.0000 0.14100  0.23249  0.70130  Biso   1.000  N
  C1       1.0000 0.10440  0.25250  0.73260  Biso   1.000  C
  H1       1.0000 0.07970  0.24880  0.79950  Biso   1.000  H
  C2       1.0000 0.10470  0.27811  0.66390  Biso   1.000  C
  H2       1.0000 0.08010  0.29150  0.68480  Biso   1.000  H
  C3       1.0000 0.14160  0.28371  0.56390  Biso   1.000  C
  C4       1.0000 0.17820  0.26370  0.53260  Biso   1.000  C
  H3       1.0000 0.20290  0.26740  0.46570  Biso   1.000  H
  C5       1.0000 0.17790  0.23809  0.60130  Biso   1.000  C
  H4       1.0000 0.20250  0.22470  0.58030  Biso   1.000  H
  C6       1.0000 0.14640  0.31010  0.47300  Biso   1.000  C
  C7       1.0000 0.17300  0.32940  0.42300  Biso   1.000  C
  C8       1.0000 0.14040  0.35290  0.35970  Biso   1.000  C
  C9       1.0000 0.17370  0.35770  0.24970  Biso   1.000  C
  H5       1.0000 0.19990  0.34520  0.23180  Biso   1.000  H
  C10      1.0000 0.16790  0.38130  0.16650  Biso   1.000  C
  H6       1.0000 0.19020  0.38450  0.09290  Biso   1.000  H
  N2       1.0000 0.12870  0.40010  0.19330  Biso   1.000  N
  C11      1.0000 0.09540  0.39530  0.30330  Biso   1.000  C
  H7       1.0000 0.06920  0.40790  0.32120  Biso   1.000  H
  C12      1.0000 0.10120  0.37170  0.38650  Biso   1.000  C
  H8       1.0000 0.07890  0.36850  0.46010  Biso   1.000  H
  C13      1.0000 0.37020  0.19800  0.04200  Biso   1.000  C
  H9       1.0000 0.37060  0.21330  0.10220  Biso   1.000  H
  N3       1.0000 0.22220  0.19053  0.85700  Biso   1.000  N
  C14      1.0000 0.23720  0.21166  0.94770  Biso   1.000  C
  H10      1.0000 0.21420  0.22550  0.97390  Biso   1.000  H
  C15      1.0000 0.28670  0.21215  0.99940  Biso   1.000  C
  H11      1.0000 0.29670  0.22630  0.06010  Biso   1.000  H
  C16      1.0000 0.32110  0.19150  0.96020  Biso   1.000  C
  C17      1.0000 0.30610  0.17040  0.86950  Biso   1.000  C
  H12      1.0000 0.32910  0.15660  0.84330  Biso   1.000  H
  C18      1.0000 0.25670  0.16989  0.81780  Biso   1.000  C
  H13      1.0000 0.24660  0.15580  0.75710  Biso   1.000  H
  C19      1.0000 0.40950  0.18360  0.02900  Biso   1.000  C
  H14      1.0000 0.40660  0.16980  0.96120  Biso   1.000  H
  C20      1.0000 0.45500  0.18350  0.09320  Biso   1.000  C
  C21      1.0000 0.46350  0.19900  0.21390  Biso   1.000  C
  H15      1.0000 0.43670  0.20850  0.25610  Biso   1.000  H
  C22      1.0000 0.51200  0.20020  0.27150  Biso   1.000  C
  H16      1.0000 0.51770  0.21050  0.35230  Biso   1.000  H
  N4       1.0000 0.55200  0.18600  0.20850  Biso   1.000  N
  C23      1.0000 0.54350  0.17050  0.08780  Biso   1.000  C
  H17      1.0000 0.57020  0.16100  0.04560  Biso   1.000  H
  C24      1.0000 0.49500  0.16930  0.03020  Biso   1.000  C
  H18      1.0000 0.48930  0.15900  0.94940  Biso   1.000  H
  Cd1      1.0000 0.13538  0.18827  0.80090  Biso   1.000  Cd
  C25      1.0000 0.11930  0.33150  0.46500  Biso   1.000  C
  N5       1.0000 0.14100  0.73249  0.20130  Biso   1.000  N
  C26      1.0000 0.10440  0.75250  0.23260  Biso   1.000  C
  H19      1.0000 0.07970  0.74880  0.29950  Biso   1.000  H
  C27      1.0000 0.10470  0.77811  0.16390  Biso   1.000  C
  H20      1.0000 0.08010  0.79150  0.18480  Biso   1.000  H
  C28      1.0000 0.14160  0.78371  0.06390  Biso   1.000  C
  C29      1.0000 0.17820  0.76370  0.03260  Biso   1.000  C
  H21      1.0000 0.20290  0.76740  0.96570  Biso   1.000  H
  C30      1.0000 0.17790  0.73809  0.10130  Biso   1.000  C
  H22      1.0000 0.20250  0.72470  0.08030  Biso   1.000  H
  C31      1.0000 0.14640  0.81010  0.97300  Biso   1.000  C
  C32      1.0000 0.17300  0.82940  0.92300  Biso   1.000  C
  C33      1.0000 0.14040  0.85290  0.85970  Biso   1.000  C
  C34      1.0000 0.17370  0.85770  0.74970  Biso   1.000  C
  H23      1.0000 0.19990  0.84520  0.73180  Biso   1.000  H
  C35      1.0000 0.16790  0.88130  0.66650  Biso   1.000  C
  H24      1.0000 0.19020  0.88450  0.59290  Biso   1.000  H
  N6       1.0000 0.12870  0.90010  0.69330  Biso   1.000  N
  C36      1.0000 0.09540  0.89530  0.80330  Biso   1.000  C
  H25      1.0000 0.06920  0.90790  0.82120  Biso   1.000  H
  C37      1.0000 0.10120  0.87170  0.88650  Biso   1.000  C
  H26      1.0000 0.07890  0.86850  0.96010  Biso   1.000  H
  C38      1.0000 0.37020  0.69800  0.54200  Biso   1.000  C
  H27      1.0000 0.37060  0.71330  0.60220  Biso   1.000  H
  N7       1.0000 0.22220  0.69053  0.35700  Biso   1.000  N
  C39      1.0000 0.23720  0.71166  0.44770  Biso   1.000  C
  H28      1.0000 0.21420  0.72550  0.47390  Biso   1.000  H
  C40      1.0000 0.28670  0.71215  0.49940  Biso   1.000  C
  H29      1.0000 0.29670  0.72630  0.56010  Biso   1.000  H
  C41      1.0000 0.32110  0.69150  0.46020  Biso   1.000  C
  C42      1.0000 0.30610  0.67040  0.36950  Biso   1.000  C
  H30      1.0000 0.32910  0.65660  0.34330  Biso   1.000  H
  C43      1.0000 0.25670  0.66989  0.31780  Biso   1.000  C
  H31      1.0000 0.24660  0.65580  0.25710  Biso   1.000  H
  C44      1.0000 0.40950  0.68360  0.52900  Biso   1.000  C
  H32      1.0000 0.40660  0.66980  0.46120  Biso   1.000  H
  C45      1.0000 0.45500  0.68350  0.59320  Biso   1.000  C
  C46      1.0000 0.46350  0.69900  0.71390  Biso   1.000  C
  H33      1.0000 0.43670  0.70850  0.75610  Biso   1.000  H
  C47      1.0000 0.51200  0.70020  0.77150  Biso   1.000  C
  H34      1.0000 0.51770  0.71050  0.85230  Biso   1.000  H
  N8       1.0000 0.55200  0.68600  0.70850  Biso   1.000  N
  C48      1.0000 0.54350  0.67050  0.58780  Biso   1.000  C
  H35      1.0000 0.57020  0.66100  0.54560  Biso   1.000  H
  C49      1.0000 0.49500  0.66930  0.53020  Biso   1.000  C
  H36      1.0000 0.48930  0.65900  0.44940  Biso   1.000  H
  Cd2      1.0000 0.13538  0.68827  0.30090  Biso   1.000  Cd
  C50      1.0000 0.11930  0.83150  0.96500  Biso   1.000  C
  N9       1.0000 0.64100  0.23249  0.20130  Biso   1.000  N
  C51      1.0000 0.60440  0.25250  0.23260  Biso   1.000  C
  H37      1.0000 0.57970  0.24880  0.29950  Biso   1.000  H
  C52      1.0000 0.60470  0.27811  0.16390  Biso   1.000  C
  H38      1.0000 0.58010  0.29150  0.18480  Biso   1.000  H
  C53      1.0000 0.64160  0.28371  0.06390  Biso   1.000  C
  C54      1.0000 0.67820  0.26370  0.03260  Biso   1.000  C
  H39      1.0000 0.70290  0.26740  0.96570  Biso   1.000  H
  C55      1.0000 0.67790  0.23809  0.10130  Biso   1.000  C
  H40      1.0000 0.70250  0.22470  0.08030  Biso   1.000  H
  C56      1.0000 0.64640  0.31010  0.97300  Biso   1.000  C
  C57      1.0000 0.67300  0.32940  0.92300  Biso   1.000  C
  C58      1.0000 0.64040  0.35290  0.85970  Biso   1.000  C
  C59      1.0000 0.67370  0.35770  0.74970  Biso   1.000  C
  H41      1.0000 0.69990  0.34520  0.73180  Biso   1.000  H
  C60      1.0000 0.66790  0.38130  0.66650  Biso   1.000  C
  H42      1.0000 0.69020  0.38450  0.59290  Biso   1.000  H
  N10      1.0000 0.62870  0.40010  0.69330  Biso   1.000  N
  C61      1.0000 0.59540  0.39530  0.80330  Biso   1.000  C
  H43      1.0000 0.56920  0.40790  0.82120  Biso   1.000  H
  C62      1.0000 0.60120  0.37170  0.88650  Biso   1.000  C
  H44      1.0000 0.57890  0.36850  0.96010  Biso   1.000  H
  C63      1.0000 0.87020  0.19800  0.54200  Biso   1.000  C
  H45      1.0000 0.87060  0.21330  0.60220  Biso   1.000  H
  N11      1.0000 0.72220  0.19053  0.35700  Biso   1.000  N
  C64      1.0000 0.73720  0.21166  0.44770  Biso   1.000  C
  H46      1.0000 0.71420  0.22550  0.47390  Biso   1.000  H
  C65      1.0000 0.78670  0.21215  0.49940  Biso   1.000  C
  H47      1.0000 0.79670  0.22630  0.56010  Biso   1.000  H
  C66      1.0000 0.82110  0.19150  0.46020  Biso   1.000  C
  C67      1.0000 0.80610  0.17040  0.36950  Biso   1.000  C
  H48      1.0000 0.82910  0.15660  0.34330  Biso   1.000  H
  C68      1.0000 0.75670  0.16989  0.31780  Biso   1.000  C
  H49      1.0000 0.74660  0.15580  0.25710  Biso   1.000  H
  C69      1.0000 0.90950  0.18360  0.52900  Biso   1.000  C
  H50      1.0000 0.90660  0.16980  0.46120  Biso   1.000  H
  C70      1.0000 0.95500  0.18350  0.59320  Biso   1.000  C
  C71      1.0000 0.96350  0.19900  0.71390  Biso   1.000  C
  H51      1.0000 0.93670  0.20850  0.75610  Biso   1.000  H
  C72      1.0000 0.01200  0.20020  0.77150  Biso   1.000  C
  H52      1.0000 0.01770  0.21050  0.85230  Biso   1.000  H
  N12      1.0000 0.05200  0.18600  0.70850  Biso   1.000  N
  C73      1.0000 0.04350  0.17050  0.58780  Biso   1.000  C
  H53      1.0000 0.07020  0.16100  0.54560  Biso   1.000  H
  C74      1.0000 0.99500  0.16930  0.53020  Biso   1.000  C
  H54      1.0000 0.98930  0.15900  0.44940  Biso   1.000  H
  Cd3      1.0000 0.63538  0.18827  0.30090  Biso   1.000  Cd
  C75      1.0000 0.61930  0.33150  0.96500  Biso   1.000  C
  N13      1.0000 0.64100  0.73249  0.70130  Biso   1.000  N
  C76      1.0000 0.60440  0.75250  0.73260  Biso   1.000  C
  H55      1.0000 0.57970  0.74880  0.79950  Biso   1.000  H
  C77      1.0000 0.60470  0.77811  0.66390  Biso   1.000  C
  H56      1.0000 0.58010  0.79150  0.68480  Biso   1.000  H
  C78      1.0000 0.64160  0.78371  0.56390  Biso   1.000  C
  C79      1.0000 0.67820  0.76370  0.53260  Biso   1.000  C
  H57      1.0000 0.70290  0.76740  0.46570  Biso   1.000  H
  C80      1.0000 0.67790  0.73809  0.60130  Biso   1.000  C
  H58      1.0000 0.70250  0.72470  0.58030  Biso   1.000  H
  C81      1.0000 0.64640  0.81010  0.47300  Biso   1.000  C
  C82      1.0000 0.67300  0.82940  0.42300  Biso   1.000  C
  C83      1.0000 0.64040  0.85290  0.35970  Biso   1.000  C
  C84      1.0000 0.67370  0.85770  0.24970  Biso   1.000  C
  H59      1.0000 0.69990  0.84520  0.23180  Biso   1.000  H
  C85      1.0000 0.66790  0.88130  0.16650  Biso   1.000  C
  H60      1.0000 0.69020  0.88450  0.09290  Biso   1.000  H
  N14      1.0000 0.62870  0.90010  0.19330  Biso   1.000  N
  C86      1.0000 0.59540  0.89530  0.30330  Biso   1.000  C
  H61      1.0000 0.56920  0.90790  0.32120  Biso   1.000  H
  C87      1.0000 0.60120  0.87170  0.38650  Biso   1.000  C
  H62      1.0000 0.57890  0.86850  0.46010  Biso   1.000  H
  C88      1.0000 0.87020  0.69800  0.04200  Biso   1.000  C
  H63      1.0000 0.87060  0.71330  0.10220  Biso   1.000  H
  N15      1.0000 0.72220  0.69053  0.85700  Biso   1.000  N
  C89      1.0000 0.73720  0.71166  0.94770  Biso   1.000  C
  H64      1.0000 0.71420  0.72550  0.97390  Biso   1.000  H
  C90      1.0000 0.78670  0.71215  0.99940  Biso   1.000  C
  H65      1.0000 0.79670  0.72630  0.06010  Biso   1.000  H
  C91      1.0000 0.82110  0.69150  0.96020  Biso   1.000  C
  C92      1.0000 0.80610  0.67040  0.86950  Biso   1.000  C
  H66      1.0000 0.82910  0.65660  0.84330  Biso   1.000  H
  C93      1.0000 0.75670  0.66989  0.81780  Biso   1.000  C
  H67      1.0000 0.74660  0.65580  0.75710  Biso   1.000  H
  C94      1.0000 0.90950  0.68360  0.02900  Biso   1.000  C
  H68      1.0000 0.90660  0.66980  0.96120  Biso   1.000  H
  C95      1.0000 0.95500  0.68350  0.09320  Biso   1.000  C
  C96      1.0000 0.96350  0.69900  0.21390  Biso   1.000  C
  H69      1.0000 0.93670  0.70850  0.25610  Biso   1.000  H
  C97      1.0000 0.01200  0.70020  0.27150  Biso   1.000  C
  H70      1.0000 0.01770  0.71050  0.35230  Biso   1.000  H
  N16      1.0000 0.05200  0.68600  0.20850  Biso   1.000  N
  C98      1.0000 0.04350  0.67050  0.08780  Biso   1.000  C
  H71      1.0000 0.07020  0.66100  0.04560  Biso   1.000  H
  C99      1.0000 0.99500  0.66930  0.03020  Biso   1.000  C
  H72      1.0000 0.98930  0.65900  0.94940  Biso   1.000  H
  Cd4      1.0000 0.63538  0.68827  0.80090  Biso   1.000  Cd
  C100     1.0000 0.61930  0.83150  0.46500  Biso   1.000  C
  N17      1.0000 0.10900  0.48249  0.95130  Biso   1.000  N
  C101     1.0000 0.14560  0.50250  0.98260  Biso   1.000  C
  H73      1.0000 0.17030  0.49880  0.04950  Biso   1.000  H
  C102     1.0000 0.14530  0.52811  0.91390  Biso   1.000  C
  H74      1.0000 0.16990  0.54150  0.93480  Biso   1.000  H
  C103     1.0000 0.10840  0.53371  0.81390  Biso   1.000  C
  C104     1.0000 0.07180  0.51370  0.78260  Biso   1.000  C
  H75      1.0000 0.04710  0.51740  0.71570  Biso   1.000  H
  C105     1.0000 0.07210  0.48809  0.85130  Biso   1.000  C
  H76      1.0000 0.04750  0.47470  0.83030  Biso   1.000  H
  C106     1.0000 0.10360  0.56010  0.72300  Biso   1.000  C
  C107     1.0000 0.07700  0.57940  0.67300  Biso   1.000  C
  C108     1.0000 0.10960  0.60290  0.60970  Biso   1.000  C
  C109     1.0000 0.07630  0.60770  0.49970  Biso   1.000  C
  H77      1.0000 0.05010  0.59520  0.48180  Biso   1.000  H
  C110     1.0000 0.08210  0.63130  0.41650  Biso   1.000  C
  H78      1.0000 0.05980  0.63450  0.34290  Biso   1.000  H
  N18      1.0000 0.12130  0.65010  0.44330  Biso   1.000  N
  C111     1.0000 0.15460  0.64530  0.55330  Biso   1.000  C
  H79      1.0000 0.18080  0.65790  0.57120  Biso   1.000  H
  C112     1.0000 0.14880  0.62170  0.63650  Biso   1.000  C
  H80      1.0000 0.17110  0.61850  0.71010  Biso   1.000  H
  C113     1.0000 0.87980  0.44800  0.29200  Biso   1.000  C
  H81      1.0000 0.87940  0.46330  0.35220  Biso   1.000  H
  N19      1.0000 0.02780  0.44053  0.10700  Biso   1.000  N
  C114     1.0000 0.01280  0.46166  0.19770  Biso   1.000  C
  H82      1.0000 0.03580  0.47550  0.22390  Biso   1.000  H
  C115     1.0000 0.96330  0.46215  0.24940  Biso   1.000  C
  H83      1.0000 0.95330  0.47630  0.31010  Biso   1.000  H
  C116     1.0000 0.92890  0.44150  0.21020  Biso   1.000  C
  C117     1.0000 0.94390  0.42040  0.11950  Biso   1.000  C
  H84      1.0000 0.92090  0.40660  0.09330  Biso   1.000  H
  C118     1.0000 0.99330  0.41989  0.06780  Biso   1.000  C
  H85      1.0000 0.00340  0.40580  0.00710  Biso   1.000  H
  C119     1.0000 0.84050  0.43360  0.27900  Biso   1.000  C
  H86      1.0000 0.84340  0.41980  0.21120  Biso   1.000  H
  C120     1.0000 0.79500  0.43350  0.34320  Biso   1.000  C
  C121     1.0000 0.78650  0.44900  0.46390  Biso   1.000  C
  H87      1.0000 0.81330  0.45850  0.50610  Biso   1.000  H
  C122     1.0000 0.73800  0.45020  0.52150  Biso   1.000  C
  H88      1.0000 0.73230  0.46050  0.60230  Biso   1.000  H
  N20      1.0000 0.69800  0.43600  0.45850  Biso   1.000  N
  C123     1.0000 0.70650  0.42050  0.33780  Biso   1.000  C
  H89      1.0000 0.67980  0.41100  0.29560  Biso   1.000  H
  C124     1.0000 0.75500  0.41930  0.28020  Biso   1.000  C
  H90      1.0000 0.76070  0.40900  0.19940  Biso   1.000  H
  Cd5      1.0000 0.11462  0.43827  0.05090  Biso   1.000  Cd
  C125     1.0000 0.13070  0.58150  0.71500  Biso   1.000  C
  N21      1.0000 0.10900  0.98249  0.45130  Biso   1.000  N
  C126     1.0000 0.14560  0.00250  0.48260  Biso   1.000  C
  H91      1.0000 0.17030  0.99880  0.54950  Biso   1.000  H
  C127     1.0000 0.14530  0.02811  0.41390  Biso   1.000  C
  H92      1.0000 0.16990  0.04150  0.43480  Biso   1.000  H
  C128     1.0000 0.10840  0.03371  0.31390  Biso   1.000  C
  C129     1.0000 0.07180  0.01370  0.28260  Biso   1.000  C
  H93      1.0000 0.04710  0.01740  0.21570  Biso   1.000  H
  C130     1.0000 0.07210  0.98809  0.35130  Biso   1.000  C
  H94      1.0000 0.04750  0.97470  0.33030  Biso   1.000  H
  C131     1.0000 0.10360  0.06010  0.22300  Biso   1.000  C
  C132     1.0000 0.07700  0.07940  0.17300  Biso   1.000  C
  C133     1.0000 0.10960  0.10290  0.10970  Biso   1.000  C
  C134     1.0000 0.07630  0.10770  0.99970  Biso   1.000  C
  H95      1.0000 0.05010  0.09520  0.98180  Biso   1.000  H
  C135     1.0000 0.08210  0.13130  0.91650  Biso   1.000  C
  H96      1.0000 0.05980  0.13450  0.84290  Biso   1.000  H
  N22      1.0000 0.12130  0.15010  0.94330  Biso   1.000  N
  C136     1.0000 0.15460  0.14530  0.05330  Biso   1.000  C
  H97      1.0000 0.18080  0.15790  0.07120  Biso   1.000  H
  C137     1.0000 0.14880  0.12170  0.13650  Biso   1.000  C
  H98      1.0000 0.17110  0.11850  0.21010  Biso   1.000  H
  C138     1.0000 0.87980  0.94800  0.79200  Biso   1.000  C
  H99      1.0000 0.87940  0.96330  0.85220  Biso   1.000  H
  N23      1.0000 0.02780  0.94053  0.60700  Biso   1.000  N
  C139     1.0000 0.01280  0.96166  0.69770  Biso   1.000  C
  H100     1.0000 0.03580  0.97550  0.72390  Biso   1.000  H
  C140     1.0000 0.96330  0.96215  0.74940  Biso   1.000  C
  H101     1.0000 0.95330  0.97630  0.81010  Biso   1.000  H
  C141     1.0000 0.92890  0.94150  0.71020  Biso   1.000  C
  C142     1.0000 0.94390  0.92040  0.61950  Biso   1.000  C
  H102     1.0000 0.92090  0.90660  0.59330  Biso   1.000  H
  C143     1.0000 0.99330  0.91989  0.56780  Biso   1.000  C
  H103     1.0000 0.00340  0.90580  0.50710  Biso   1.000  H
  C144     1.0000 0.84050  0.93360  0.77900  Biso   1.000  C
  H104     1.0000 0.84340  0.91980  0.71120  Biso   1.000  H
  C145     1.0000 0.79500  0.93350  0.84320  Biso   1.000  C
  C146     1.0000 0.78650  0.94900  0.96390  Biso   1.000  C
  H105     1.0000 0.81330  0.95850  0.00610  Biso   1.000  H
  C147     1.0000 0.73800  0.95020  0.02150  Biso   1.000  C
  H106     1.0000 0.73230  0.96050  0.10230  Biso   1.000  H
  N24      1.0000 0.69800  0.93600  0.95850  Biso   1.000  N
  C148     1.0000 0.70650  0.92050  0.83780  Biso   1.000  C
  H107     1.0000 0.67980  0.91100  0.79560  Biso   1.000  H
  C149     1.0000 0.75500  0.91930  0.78020  Biso   1.000  C
  H108     1.0000 0.76070  0.90900  0.69940  Biso   1.000  H
  Cd6      1.0000 0.11462  0.93827  0.55090  Biso   1.000  Cd
  C150     1.0000 0.13070  0.08150  0.21500  Biso   1.000  C
  N25      1.0000 0.60900  0.48249  0.45130  Biso   1.000  N
  C151     1.0000 0.64560  0.50250  0.48260  Biso   1.000  C
  H109     1.0000 0.67030  0.49880  0.54950  Biso   1.000  H
  C152     1.0000 0.64530  0.52811  0.41390  Biso   1.000  C
  H110     1.0000 0.66990  0.54150  0.43480  Biso   1.000  H
  C153     1.0000 0.60840  0.53371  0.31390  Biso   1.000  C
  C154     1.0000 0.57180  0.51370  0.28260  Biso   1.000  C
  H111     1.0000 0.54710  0.51740  0.21570  Biso   1.000  H
  C155     1.0000 0.57210  0.48809  0.35130  Biso   1.000  C
  H112     1.0000 0.54750  0.47470  0.33030  Biso   1.000  H
  C156     1.0000 0.60360  0.56010  0.22300  Biso   1.000  C
  C157     1.0000 0.57700  0.57940  0.17300  Biso   1.000  C
  C158     1.0000 0.60960  0.60290  0.10970  Biso   1.000  C
  C159     1.0000 0.57630  0.60770  0.99970  Biso   1.000  C
  H113     1.0000 0.55010  0.59520  0.98180  Biso   1.000  H
  C160     1.0000 0.58210  0.63130  0.91650  Biso   1.000  C
  H114     1.0000 0.55980  0.63450  0.84290  Biso   1.000  H
  N26      1.0000 0.62130  0.65010  0.94330  Biso   1.000  N
  C161     1.0000 0.65460  0.64530  0.05330  Biso   1.000  C
  H115     1.0000 0.68080  0.65790  0.07120  Biso   1.000  H
  C162     1.0000 0.64880  0.62170  0.13650  Biso   1.000  C
  H116     1.0000 0.67110  0.61850  0.21010  Biso   1.000  H
  C163     1.0000 0.37980  0.44800  0.79200  Biso   1.000  C
  H117     1.0000 0.37940  0.46330  0.85220  Biso   1.000  H
  N27      1.0000 0.52780  0.44053  0.60700  Biso   1.000  N
  C164     1.0000 0.51280  0.46166  0.69770  Biso   1.000  C
  H118     1.0000 0.53580  0.47550  0.72390  Biso   1.000  H
  C165     1.0000 0.46330  0.46215  0.74940  Biso   1.000  C
  H119     1.0000 0.45330  0.47630  0.81010  Biso   1.000  H
  C166     1.0000 0.42890  0.44150  0.71020  Biso   1.000  C
  C167     1.0000 0.44390  0.42040  0.61950  Biso   1.000  C
  H120     1.0000 0.42090  0.40660  0.59330  Biso   1.000  H
  C168     1.0000 0.49330  0.41989  0.56780  Biso   1.000  C
  H121     1.0000 0.50340  0.40580  0.50710  Biso   1.000  H
  C169     1.0000 0.34050  0.43360  0.77900  Biso   1.000  C
  H122     1.0000 0.34340  0.41980  0.71120  Biso   1.000  H
  C170     1.0000 0.29500  0.43350  0.84320  Biso   1.000  C
  C171     1.0000 0.28650  0.44900  0.96390  Biso   1.000  C
  H123     1.0000 0.31330  0.45850  0.00610  Biso   1.000  H
  C172     1.0000 0.23800  0.45020  0.02150  Biso   1.000  C
  H124     1.0000 0.23230  0.46050  0.10230  Biso   1.000  H
  N28      1.0000 0.19800  0.43600  0.95850  Biso   1.000  N
  C173     1.0000 0.20650  0.42050  0.83780  Biso   1.000  C
  H125     1.0000 0.17980  0.41100  0.79560  Biso   1.000  H
  C174     1.0000 0.25500  0.41930  0.78020  Biso   1.000  C
  H126     1.0000 0.26070  0.40900  0.69940  Biso   1.000  H
  Cd7      1.0000 0.61462  0.43827  0.55090  Biso   1.000  Cd
  C175     1.0000 0.63070  0.58150  0.21500  Biso   1.000  C
  N29      1.0000 0.60900  0.98249  0.95130  Biso   1.000  N
  C176     1.0000 0.64560  0.00250  0.98260  Biso   1.000  C
  H127     1.0000 0.67030  0.99880  0.04950  Biso   1.000  H
  C177     1.0000 0.64530  0.02811  0.91390  Biso   1.000  C
  H128     1.0000 0.66990  0.04150  0.93480  Biso   1.000  H
  C178     1.0000 0.60840  0.03371  0.81390  Biso   1.000  C
  C179     1.0000 0.57180  0.01370  0.78260  Biso   1.000  C
  H129     1.0000 0.54710  0.01740  0.71570  Biso   1.000  H
  C180     1.0000 0.57210  0.98809  0.85130  Biso   1.000  C
  H130     1.0000 0.54750  0.97470  0.83030  Biso   1.000  H
  C181     1.0000 0.60360  0.06010  0.72300  Biso   1.000  C
  C182     1.0000 0.57700  0.07940  0.67300  Biso   1.000  C
  C183     1.0000 0.60960  0.10290  0.60970  Biso   1.000  C
  C184     1.0000 0.57630  0.10770  0.49970  Biso   1.000  C
  H131     1.0000 0.55010  0.09520  0.48180  Biso   1.000  H
  C185     1.0000 0.58210  0.13130  0.41650  Biso   1.000  C
  H132     1.0000 0.55980  0.13450  0.34290  Biso   1.000  H
  N30      1.0000 0.62130  0.15010  0.44330  Biso   1.000  N
  C186     1.0000 0.65460  0.14530  0.55330  Biso   1.000  C
  H133     1.0000 0.68080  0.15790  0.57120  Biso   1.000  H
  C187     1.0000 0.64880  0.12170  0.63650  Biso   1.000  C
  H134     1.0000 0.67110  0.11850  0.71010  Biso   1.000  H
  C188     1.0000 0.37980  0.94800  0.29200  Biso   1.000  C
  H135     1.0000 0.37940  0.96330  0.35220  Biso   1.000  H
  N31      1.0000 0.52780  0.94053  0.10700  Biso   1.000  N
  C189     1.0000 0.51280  0.96166  0.19770  Biso   1.000  C
  H136     1.0000 0.53580  0.97550  0.22390  Biso   1.000  H
  C190     1.0000 0.46330  0.96215  0.24940  Biso   1.000  C
  H137     1.0000 0.45330  0.97630  0.31010  Biso   1.000  H
  C191     1.0000 0.42890  0.94150  0.21020  Biso   1.000  C
  C192     1.0000 0.44390  0.92040  0.11950  Biso   1.000  C
  H138     1.0000 0.42090  0.90660  0.09330  Biso   1.000  H
  C193     1.0000 0.49330  0.91989  0.06780  Biso   1.000  C
  H139     1.0000 0.50340  0.90580  0.00710  Biso   1.000  H
  C194     1.0000 0.34050  0.93360  0.27900  Biso   1.000  C
  H140     1.0000 0.34340  0.91980  0.21120  Biso   1.000  H
  C195     1.0000 0.29500  0.93350  0.34320  Biso   1.000  C
  C196     1.0000 0.28650  0.94900  0.46390  Biso   1.000  C
  H141     1.0000 0.31330  0.95850  0.50610  Biso   1.000  H
  C197     1.0000 0.23800  0.95020  0.52150  Biso   1.000  C
  H142     1.0000 0.23230  0.96050  0.60230  Biso   1.000  H
  N32      1.0000 0.19800  0.93600  0.45850  Biso   1.000  N
  C198     1.0000 0.20650  0.92050  0.33780  Biso   1.000  C
  H143     1.0000 0.17980  0.91100  0.29560  Biso   1.000  H
  C199     1.0000 0.25500  0.91930  0.28020  Biso   1.000  C
  H144     1.0000 0.26070  0.90900  0.19940  Biso   1.000  H
  Cd8      1.0000 0.61462  0.93827  0.05090  Biso   1.000  Cd
  C200     1.0000 0.63070  0.08150  0.71500  Biso   1.000  C
  N33      1.0000 0.85900  0.76751  0.70130  Biso   1.000  N
  C201     1.0000 0.89560  0.74750  0.73260  Biso   1.000  C
  H145     1.0000 0.92030  0.75120  0.79950  Biso   1.000  H
  C202     1.0000 0.89530  0.72189  0.66390  Biso   1.000  C
  H146     1.0000 0.91990  0.70850  0.68480  Biso   1.000  H
  C203     1.0000 0.85840  0.71629  0.56390  Biso   1.000  C
  C204     1.0000 0.82180  0.73630  0.53260  Biso   1.000  C
  H147     1.0000 0.79710  0.73260  0.46570  Biso   1.000  H
  C205     1.0000 0.82210  0.76191  0.60130  Biso   1.000  C
  H148     1.0000 0.79750  0.77530  0.58030  Biso   1.000  H
  C206     1.0000 0.85360  0.68990  0.47300  Biso   1.000  C
  C207     1.0000 0.82700  0.67060  0.42300  Biso   1.000  C
  C208     1.0000 0.85960  0.64710  0.35970  Biso   1.000  C
  C209     1.0000 0.82630  0.64230  0.24970  Biso   1.000  C
  H149     1.0000 0.80010  0.65480  0.23180  Biso   1.000  H
  C210     1.0000 0.83210  0.61870  0.16650  Biso   1.000  C
  H150     1.0000 0.80980  0.61550  0.09290  Biso   1.000  H
  N34      1.0000 0.87130  0.59990  0.19330  Biso   1.000  N
  C211     1.0000 0.90460  0.60470  0.30330  Biso   1.000  C
  H151     1.0000 0.93080  0.59210  0.32120  Biso   1.000  H
  C212     1.0000 0.89880  0.62830  0.38650  Biso   1.000  C
  H152     1.0000 0.92110  0.63150  0.46010  Biso   1.000  H
  C213     1.0000 0.62980  0.80200  0.04200  Biso   1.000  C
  H153     1.0000 0.62940  0.78670  0.10220  Biso   1.000  H
  N35      1.0000 0.77780  0.80947  0.85700  Biso   1.000  N
  C214     1.0000 0.76280  0.78834  0.94770  Biso   1.000  C
  H154     1.0000 0.78580  0.77450  0.97390  Biso   1.000  H
  C215     1.0000 0.71330  0.78785  0.99940  Biso   1.000  C
  H155     1.0000 0.70330  0.77370  0.06010  Biso   1.000  H
  C216     1.0000 0.67890  0.80850  0.96020  Biso   1.000  C
  C217     1.0000 0.69390  0.82960  0.86950  Biso   1.000  C
  H156     1.0000 0.67090  0.84340  0.84330  Biso   1.000  H
  C218     1.0000 0.74330  0.83011  0.81780  Biso   1.000  C
  H157     1.0000 0.75340  0.84420  0.75710  Biso   1.000  H
  C219     1.0000 0.59050  0.81640  0.02900  Biso   1.000  C
  H158     1.0000 0.59340  0.83020  0.96120  Biso   1.000  H
  C220     1.0000 0.54500  0.81650  0.09320  Biso   1.000  C
  C221     1.0000 0.53650  0.80100  0.21390  Biso   1.000  C
  H159     1.0000 0.56330  0.79150  0.25610  Biso   1.000  H
  C222     1.0000 0.48800  0.79980  0.27150  Biso   1.000  C
  H160     1.0000 0.48230  0.78950  0.35230  Biso   1.000  H
  N36      1.0000 0.44800  0.81400  0.20850  Biso   1.000  N
  C223     1.0000 0.45650  0.82950  0.08780  Biso   1.000  C
  H161     1.0000 0.42980  0.83900  0.04560  Biso   1.000  H
  C224     1.0000 0.50500  0.83070  0.03020  Biso   1.000  C
  H162     1.0000 0.51070  0.84100  0.94940  Biso   1.000  H
  Cd9      1.0000 0.86462  0.81173  0.80090  Biso   1.000  Cd
  C225     1.0000 0.88070  0.66850  0.46500  Biso   1.000  C
  N37      1.0000 0.85900  0.26751  0.20130  Biso   1.000  N
  C226     1.0000 0.89560  0.24750  0.23260  Biso   1.000  C
  H163     1.0000 0.92030  0.25120  0.29950  Biso   1.000  H
  C227     1.0000 0.89530  0.22189  0.16390  Biso   1.000  C
  H164     1.0000 0.91990  0.20850  0.18480  Biso   1.000  H
  C228     1.0000 0.85840  0.21629  0.06390  Biso   1.000  C
  C229     1.0000 0.82180  0.23630  0.03260  Biso   1.000  C
  H165     1.0000 0.79710  0.23260  0.96570  Biso   1.000  H
  C230     1.0000 0.82210  0.26191  0.10130  Biso   1.000  C
  H166     1.0000 0.79750  0.27530  0.08030  Biso   1.000  H
  C231     1.0000 0.85360  0.18990  0.97300  Biso   1.000  C
  C232     1.0000 0.82700  0.17060  0.92300  Biso   1.000  C
  C233     1.0000 0.85960  0.14710  0.85970  Biso   1.000  C
  C234     1.0000 0.82630  0.14230  0.74970  Biso   1.000  C
  H167     1.0000 0.80010  0.15480  0.73180  Biso   1.000  H
  C235     1.0000 0.83210  0.11870  0.66650  Biso   1.000  C
  H168     1.0000 0.80980  0.11550  0.59290  Biso   1.000  H
  N38      1.0000 0.87130  0.09990  0.69330  Biso   1.000  N
  C236     1.0000 0.90460  0.10470  0.80330  Biso   1.000  C
  H169     1.0000 0.93080  0.09210  0.82120  Biso   1.000  H
  C237     1.0000 0.89880  0.12830  0.88650  Biso   1.000  C
  H170     1.0000 0.92110  0.13150  0.96010  Biso   1.000  H
  C238     1.0000 0.62980  0.30200  0.54200  Biso   1.000  C
  H171     1.0000 0.62940  0.28670  0.60220  Biso   1.000  H
  N39      1.0000 0.77780  0.30947  0.35700  Biso   1.000  N
  C239     1.0000 0.76280  0.28834  0.44770  Biso   1.000  C
  H172     1.0000 0.78580  0.27450  0.47390  Biso   1.000  H
  C240     1.0000 0.71330  0.28785  0.49940  Biso   1.000  C
  H173     1.0000 0.70330  0.27370  0.56010  Biso   1.000  H
  C241     1.0000 0.67890  0.30850  0.46020  Biso   1.000  C
  C242     1.0000 0.69390  0.32960  0.36950  Biso   1.000  C
  H174     1.0000 0.67090  0.34340  0.34330  Biso   1.000  H
  C243     1.0000 0.74330  0.33011  0.31780  Biso   1.000  C
  H175     1.0000 0.75340  0.34420  0.25710  Biso   1.000  H
  C244     1.0000 0.59050  0.31640  0.52900  Biso   1.000  C
  H176     1.0000 0.59340  0.33020  0.46120  Biso   1.000  H
  C245     1.0000 0.54500  0.31650  0.59320  Biso   1.000  C
  C246     1.0000 0.53650  0.30100  0.71390  Biso   1.000  C
  H177     1.0000 0.56330  0.29150  0.75610  Biso   1.000  H
  C247     1.0000 0.48800  0.29980  0.77150  Biso   1.000  C
  H178     1.0000 0.48230  0.28950  0.85230  Biso   1.000  H
  N40      1.0000 0.44800  0.31400  0.70850  Biso   1.000  N
  C248     1.0000 0.45650  0.32950  0.58780  Biso   1.000  C
  H179     1.0000 0.42980  0.33900  0.54560  Biso   1.000  H
  C249     1.0000 0.50500  0.33070  0.53020  Biso   1.000  C
  H180     1.0000 0.51070  0.34100  0.44940  Biso   1.000  H
  Cd10     1.0000 0.86462  0.31173  0.30090  Biso   1.000  Cd
  C250     1.0000 0.88070  0.16850  0.96500  Biso   1.000  C
  N41      1.0000 0.35900  0.76751  0.20130  Biso   1.000  N
  C251     1.0000 0.39560  0.74750  0.23260  Biso   1.000  C
  H181     1.0000 0.42030  0.75120  0.29950  Biso   1.000  H
  C252     1.0000 0.39530  0.72189  0.16390  Biso   1.000  C
  H182     1.0000 0.41990  0.70850  0.18480  Biso   1.000  H
  C253     1.0000 0.35840  0.71629  0.06390  Biso   1.000  C
  C254     1.0000 0.32180  0.73630  0.03260  Biso   1.000  C
  H183     1.0000 0.29710  0.73260  0.96570  Biso   1.000  H
  C255     1.0000 0.32210  0.76191  0.10130  Biso   1.000  C
  H184     1.0000 0.29750  0.77530  0.08030  Biso   1.000  H
  C256     1.0000 0.35360  0.68990  0.97300  Biso   1.000  C
  C257     1.0000 0.32700  0.67060  0.92300  Biso   1.000  C
  C258     1.0000 0.35960  0.64710  0.85970  Biso   1.000  C
  C259     1.0000 0.32630  0.64230  0.74970  Biso   1.000  C
  H185     1.0000 0.30010  0.65480  0.73180  Biso   1.000  H
  C260     1.0000 0.33210  0.61870  0.66650  Biso   1.000  C
  H186     1.0000 0.30980  0.61550  0.59290  Biso   1.000  H
  N42      1.0000 0.37130  0.59990  0.69330  Biso   1.000  N
  C261     1.0000 0.40460  0.60470  0.80330  Biso   1.000  C
  H187     1.0000 0.43080  0.59210  0.82120  Biso   1.000  H
  C262     1.0000 0.39880  0.62830  0.88650  Biso   1.000  C
  H188     1.0000 0.42110  0.63150  0.96010  Biso   1.000  H
  C263     1.0000 0.12980  0.80200  0.54200  Biso   1.000  C
  H189     1.0000 0.12940  0.78670  0.60220  Biso   1.000  H
  N43      1.0000 0.27780  0.80947  0.35700  Biso   1.000  N
  C264     1.0000 0.26280  0.78834  0.44770  Biso   1.000  C
  H190     1.0000 0.28580  0.77450  0.47390  Biso   1.000  H
  C265     1.0000 0.21330  0.78785  0.49940  Biso   1.000  C
  H191     1.0000 0.20330  0.77370  0.56010  Biso   1.000  H
  C266     1.0000 0.17890  0.80850  0.46020  Biso   1.000  C
  C267     1.0000 0.19390  0.82960  0.36950  Biso   1.000  C
  H192     1.0000 0.17090  0.84340  0.34330  Biso   1.000  H
  C268     1.0000 0.24330  0.83011  0.31780  Biso   1.000  C
  H193     1.0000 0.25340  0.84420  0.25710  Biso   1.000  H
  C269     1.0000 0.09050  0.81640  0.52900  Biso   1.000  C
  H194     1.0000 0.09340  0.83020  0.46120  Biso   1.000  H
  C270     1.0000 0.04500  0.81650  0.59320  Biso   1.000  C
  C271     1.0000 0.03650  0.80100  0.71390  Biso   1.000  C
  H195     1.0000 0.06330  0.79150  0.75610  Biso   1.000  H
  C272     1.0000 0.98800  0.79980  0.77150  Biso   1.000  C
  H196     1.0000 0.98230  0.78950  0.85230  Biso   1.000  H
  N44      1.0000 0.94800  0.81400  0.70850  Biso   1.000  N
  C273     1.0000 0.95650  0.82950  0.58780  Biso   1.000  C
  H197     1.0000 0.92980  0.83900  0.54560  Biso   1.000  H
  C274     1.0000 0.00500  0.83070  0.53020  Biso   1.000  C
  H198     1.0000 0.01070  0.84100  0.44940  Biso   1.000  H
  Cd11     1.0000 0.36462  0.81173  0.30090  Biso   1.000  Cd
  C275     1.0000 0.38070  0.66850  0.96500  Biso   1.000  C
  N45      1.0000 0.35900  0.26751  0.70130  Biso   1.000  N
  C276     1.0000 0.39560  0.24750  0.73260  Biso   1.000  C
  H199     1.0000 0.42030  0.25120  0.79950  Biso   1.000  H
  C277     1.0000 0.39530  0.22189  0.66390  Biso   1.000  C
  H200     1.0000 0.41990  0.20850  0.68480  Biso   1.000  H
  C278     1.0000 0.35840  0.21629  0.56390  Biso   1.000  C
  C279     1.0000 0.32180  0.23630  0.53260  Biso   1.000  C
  H201     1.0000 0.29710  0.23260  0.46570  Biso   1.000  H
  C280     1.0000 0.32210  0.26191  0.60130  Biso   1.000  C
  H202     1.0000 0.29750  0.27530  0.58030  Biso   1.000  H
  C281     1.0000 0.35360  0.18990  0.47300  Biso   1.000  C
  C282     1.0000 0.32700  0.17060  0.42300  Biso   1.000  C
  C283     1.0000 0.35960  0.14710  0.35970  Biso   1.000  C
  C284     1.0000 0.32630  0.14230  0.24970  Biso   1.000  C
  H203     1.0000 0.30010  0.15480  0.23180  Biso   1.000  H
  C285     1.0000 0.33210  0.11870  0.16650  Biso   1.000  C
  H204     1.0000 0.30980  0.11550  0.09290  Biso   1.000  H
  N46      1.0000 0.37130  0.09990  0.19330  Biso   1.000  N
  C286     1.0000 0.40460  0.10470  0.30330  Biso   1.000  C
  H205     1.0000 0.43080  0.09210  0.32120  Biso   1.000  H
  C287     1.0000 0.39880  0.12830  0.38650  Biso   1.000  C
  H206     1.0000 0.42110  0.13150  0.46010  Biso   1.000  H
  C288     1.0000 0.12980  0.30200  0.04200  Biso   1.000  C
  H207     1.0000 0.12940  0.28670  0.10220  Biso   1.000  H
  N47      1.0000 0.27780  0.30947  0.85700  Biso   1.000  N
  C289     1.0000 0.26280  0.28834  0.94770  Biso   1.000  C
  H208     1.0000 0.28580  0.27450  0.97390  Biso   1.000  H
  C290     1.0000 0.21330  0.28785  0.99940  Biso   1.000  C
  H209     1.0000 0.20330  0.27370  0.06010  Biso   1.000  H
  C291     1.0000 0.17890  0.30850  0.96020  Biso   1.000  C
  C292     1.0000 0.19390  0.32960  0.86950  Biso   1.000  C
  H210     1.0000 0.17090  0.34340  0.84330  Biso   1.000  H
  C293     1.0000 0.24330  0.33011  0.81780  Biso   1.000  C
  H211     1.0000 0.25340  0.34420  0.75710  Biso   1.000  H
  C294     1.0000 0.09050  0.31640  0.02900  Biso   1.000  C
  H212     1.0000 0.09340  0.33020  0.96120  Biso   1.000  H
  C295     1.0000 0.04500  0.31650  0.09320  Biso   1.000  C
  C296     1.0000 0.03650  0.30100  0.21390  Biso   1.000  C
  H213     1.0000 0.06330  0.29150  0.25610  Biso   1.000  H
  C297     1.0000 0.98800  0.29980  0.27150  Biso   1.000  C
  H214     1.0000 0.98230  0.28950  0.35230  Biso   1.000  H
  N48      1.0000 0.94800  0.31400  0.20850  Biso   1.000  N
  C298     1.0000 0.95650  0.32950  0.08780  Biso   1.000  C
  H215     1.0000 0.92980  0.33900  0.04560  Biso   1.000  H
  C299     1.0000 0.00500  0.33070  0.03020  Biso   1.000  C
  H216     1.0000 0.01070  0.34100  0.94940  Biso   1.000  H
  Cd12     1.0000 0.36462  0.31173  0.80090  Biso   1.000  Cd
  C300     1.0000 0.38070  0.16850  0.46500  Biso   1.000  C
  N49      1.0000 0.39100  0.01751  0.95130  Biso   1.000  N
  C301     1.0000 0.35440  0.99750  0.98260  Biso   1.000  C
  H217     1.0000 0.32970  0.00120  0.04950  Biso   1.000  H
  C302     1.0000 0.35470  0.97189  0.91390  Biso   1.000  C
  H218     1.0000 0.33010  0.95850  0.93480  Biso   1.000  H
  C303     1.0000 0.39160  0.96629  0.81390  Biso   1.000  C
  C304     1.0000 0.42820  0.98630  0.78260  Biso   1.000  C
  H219     1.0000 0.45290  0.98260  0.71570  Biso   1.000  H
  C305     1.0000 0.42790  0.01191  0.85130  Biso   1.000  C
  H220     1.0000 0.45250  0.02530  0.83030  Biso   1.000  H
  C306     1.0000 0.39640  0.93990  0.72300  Biso   1.000  C
  C307     1.0000 0.42300  0.92060  0.67300  Biso   1.000  C
  C308     1.0000 0.39040  0.89710  0.60970  Biso   1.000  C
  C309     1.0000 0.42370  0.89230  0.49970  Biso   1.000  C
  H221     1.0000 0.44990  0.90480  0.48180  Biso   1.000  H
  C310     1.0000 0.41790  0.86870  0.41650  Biso   1.000  C
  H222     1.0000 0.44020  0.86550  0.34290  Biso   1.000  H
  N50      1.0000 0.37870  0.84990  0.44330  Biso   1.000  N
  C311     1.0000 0.34540  0.85470  0.55330  Biso   1.000  C
  H223     1.0000 0.31920  0.84210  0.57120  Biso   1.000  H
  C312     1.0000 0.35120  0.87830  0.63650  Biso   1.000  C
  H224     1.0000 0.32890  0.88150  0.71010  Biso   1.000  H
  C313     1.0000 0.62020  0.05200  0.29200  Biso   1.000  C
  H225     1.0000 0.62060  0.03670  0.35220  Biso   1.000  H
  N51      1.0000 0.47220  0.05947  0.10700  Biso   1.000  N
  C314     1.0000 0.48720  0.03834  0.19770  Biso   1.000  C
  H226     1.0000 0.46420  0.02450  0.22390  Biso   1.000  H
  C315     1.0000 0.53670  0.03785  0.24940  Biso   1.000  C
  H227     1.0000 0.54670  0.02370  0.31010  Biso   1.000  H
  C316     1.0000 0.57110  0.05850  0.21020  Biso   1.000  C
  C317     1.0000 0.55610  0.07960  0.11950  Biso   1.000  C
  H228     1.0000 0.57910  0.09340  0.09330  Biso   1.000  H
  C318     1.0000 0.50670  0.08011  0.06780  Biso   1.000  C
  H229     1.0000 0.49660  0.09420  0.00710  Biso   1.000  H
  C319     1.0000 0.65950  0.06640  0.27900  Biso   1.000  C
  H230     1.0000 0.65660  0.08020  0.21120  Biso   1.000  H
  C320     1.0000 0.70500  0.06650  0.34320  Biso   1.000  C
  C321     1.0000 0.71350  0.05100  0.46390  Biso   1.000  C
  H231     1.0000 0.68670  0.04150  0.50610  Biso   1.000  H
  C322     1.0000 0.76200  0.04980  0.52150  Biso   1.000  C
  H232     1.0000 0.76770  0.03950  0.60230  Biso   1.000  H
  N52      1.0000 0.80200  0.06400  0.45850  Biso   1.000  N
  C323     1.0000 0.79350  0.07950  0.33780  Biso   1.000  C
  H233     1.0000 0.82020  0.08900  0.29560  Biso   1.000  H
  C324     1.0000 0.74500  0.08070  0.28020  Biso   1.000  C
  H234     1.0000 0.73930  0.09100  0.19940  Biso   1.000  H
  Cd13     1.0000 0.38538  0.06173  0.05090  Biso   1.000  Cd
  C325     1.0000 0.36930  0.91850  0.71500  Biso   1.000  C
  N53      1.0000 0.39100  0.51751  0.45130  Biso   1.000  N
  C326     1.0000 0.35440  0.49750  0.48260  Biso   1.000  C
  H235     1.0000 0.32970  0.50120  0.54950  Biso   1.000  H
  C327     1.0000 0.35470  0.47189  0.41390  Biso   1.000  C
  H236     1.0000 0.33010  0.45850  0.43480  Biso   1.000  H
  C328     1.0000 0.39160  0.46629  0.31390  Biso   1.000  C
  C329     1.0000 0.42820  0.48630  0.28260  Biso   1.000  C
  H237     1.0000 0.45290  0.48260  0.21570  Biso   1.000  H
  C330     1.0000 0.42790  0.51191  0.35130  Biso   1.000  C
  H238     1.0000 0.45250  0.52530  0.33030  Biso   1.000  H
  C331     1.0000 0.39640  0.43990  0.22300  Biso   1.000  C
  C332     1.0000 0.42300  0.42060  0.17300  Biso   1.000  C
  C333     1.0000 0.39040  0.39710  0.10970  Biso   1.000  C
  C334     1.0000 0.42370  0.39230  0.99970  Biso   1.000  C
  H239     1.0000 0.44990  0.40480  0.98180  Biso   1.000  H
  C335     1.0000 0.41790  0.36870  0.91650  Biso   1.000  C
  H240     1.0000 0.44020  0.36550  0.84290  Biso   1.000  H
  N54      1.0000 0.37870  0.34990  0.94330  Biso   1.000  N
  C336     1.0000 0.34540  0.35470  0.05330  Biso   1.000  C
  H241     1.0000 0.31920  0.34210  0.07120  Biso   1.000  H
  C337     1.0000 0.35120  0.37830  0.13650  Biso   1.000  C
  H242     1.0000 0.32890  0.38150  0.21010  Biso   1.000  H
  C338     1.0000 0.62020  0.55200  0.79200  Biso   1.000  C
  H243     1.0000 0.62060  0.53670  0.85220  Biso   1.000  H
  N55      1.0000 0.47220  0.55947  0.60700  Biso   1.000  N
  C339     1.0000 0.48720  0.53834  0.69770  Biso   1.000  C
  H244     1.0000 0.46420  0.52450  0.72390  Biso   1.000  H
  C340     1.0000 0.53670  0.53785  0.74940  Biso   1.000  C
  H245     1.0000 0.54670  0.52370  0.81010  Biso   1.000  H
  C341     1.0000 0.57110  0.55850  0.71020  Biso   1.000  C
  C342     1.0000 0.55610  0.57960  0.61950  Biso   1.000  C
  H246     1.0000 0.57910  0.59340  0.59330  Biso   1.000  H
  C343     1.0000 0.50670  0.58011  0.56780  Biso   1.000  C
  H247     1.0000 0.49660  0.59420  0.50710  Biso   1.000  H
  C344     1.0000 0.65950  0.56640  0.77900  Biso   1.000  C
  H248     1.0000 0.65660  0.58020  0.71120  Biso   1.000  H
  C345     1.0000 0.70500  0.56650  0.84320  Biso   1.000  C
  C346     1.0000 0.71350  0.55100  0.96390  Biso   1.000  C
  H249     1.0000 0.68670  0.54150  0.00610  Biso   1.000  H
  C347     1.0000 0.76200  0.54980  0.02150  Biso   1.000  C
  H250     1.0000 0.76770  0.53950  0.10230  Biso   1.000  H
  N56      1.0000 0.80200  0.56400  0.95850  Biso   1.000  N
  C348     1.0000 0.79350  0.57950  0.83780  Biso   1.000  C
  H251     1.0000 0.82020  0.58900  0.79560  Biso   1.000  H
  C349     1.0000 0.74500  0.58070  0.78020  Biso   1.000  C
  H252     1.0000 0.73930  0.59100  0.69940  Biso   1.000  H
  Cd14     1.0000 0.38538  0.56173  0.55090  Biso   1.000  Cd
  C350     1.0000 0.36930  0.41850  0.21500  Biso   1.000  C
  N57      1.0000 0.89100  0.01751  0.45130  Biso   1.000  N
  C351     1.0000 0.85440  0.99750  0.48260  Biso   1.000  C
  H253     1.0000 0.82970  0.00120  0.54950  Biso   1.000  H
  C352     1.0000 0.85470  0.97189  0.41390  Biso   1.000  C
  H254     1.0000 0.83010  0.95850  0.43480  Biso   1.000  H
  C353     1.0000 0.89160  0.96629  0.31390  Biso   1.000  C
  C354     1.0000 0.92820  0.98630  0.28260  Biso   1.000  C
  H255     1.0000 0.95290  0.98260  0.21570  Biso   1.000  H
  C355     1.0000 0.92790  0.01191  0.35130  Biso   1.000  C
  H256     1.0000 0.95250  0.02530  0.33030  Biso   1.000  H
  C356     1.0000 0.89640  0.93990  0.22300  Biso   1.000  C
  C357     1.0000 0.92300  0.92060  0.17300  Biso   1.000  C
  C358     1.0000 0.89040  0.89710  0.10970  Biso   1.000  C
  C359     1.0000 0.92370  0.89230  0.99970  Biso   1.000  C
  H257     1.0000 0.94990  0.90480  0.98180  Biso   1.000  H
  C360     1.0000 0.91790  0.86870  0.91650  Biso   1.000  C
  H258     1.0000 0.94020  0.86550  0.84290  Biso   1.000  H
  N58      1.0000 0.87870  0.84990  0.94330  Biso   1.000  N
  C361     1.0000 0.84540  0.85470  0.05330  Biso   1.000  C
  H259     1.0000 0.81920  0.84210  0.07120  Biso   1.000  H
  C362     1.0000 0.85120  0.87830  0.13650  Biso   1.000  C
  H260     1.0000 0.82890  0.88150  0.21010  Biso   1.000  H
  C363     1.0000 0.12020  0.05200  0.79200  Biso   1.000  C
  H261     1.0000 0.12060  0.03670  0.85220  Biso   1.000  H
  N59      1.0000 0.97220  0.05947  0.60700  Biso   1.000  N
  C364     1.0000 0.98720  0.03834  0.69770  Biso   1.000  C
  H262     1.0000 0.96420  0.02450  0.72390  Biso   1.000  H
  C365     1.0000 0.03670  0.03785  0.74940  Biso   1.000  C
  H263     1.0000 0.04670  0.02370  0.81010  Biso   1.000  H
  C366     1.0000 0.07110  0.05850  0.71020  Biso   1.000  C
  C367     1.0000 0.05610  0.07960  0.61950  Biso   1.000  C
  H264     1.0000 0.07910  0.09340  0.59330  Biso   1.000  H
  C368     1.0000 0.00670  0.08011  0.56780  Biso   1.000  C
  H265     1.0000 0.99660  0.09420  0.50710  Biso   1.000  H
  C369     1.0000 0.15950  0.06640  0.77900  Biso   1.000  C
  H266     1.0000 0.15660  0.08020  0.71120  Biso   1.000  H
  C370     1.0000 0.20500  0.06650  0.84320  Biso   1.000  C
  C371     1.0000 0.21350  0.05100  0.96390  Biso   1.000  C
  H267     1.0000 0.18670  0.04150  0.00610  Biso   1.000  H
  C372     1.0000 0.26200  0.04980  0.02150  Biso   1.000  C
  H268     1.0000 0.26770  0.03950  0.10230  Biso   1.000  H
  N60      1.0000 0.30200  0.06400  0.95850  Biso   1.000  N
  C373     1.0000 0.29350  0.07950  0.83780  Biso   1.000  C
  H269     1.0000 0.32020  0.08900  0.79560  Biso   1.000  H
  C374     1.0000 0.24500  0.08070  0.78020  Biso   1.000  C
  H270     1.0000 0.23930  0.09100  0.69940  Biso   1.000  H
  Cd15     1.0000 0.88538  0.06173  0.55090  Biso   1.000  Cd
  C375     1.0000 0.86930  0.91850  0.21500  Biso   1.000  C
  N61      1.0000 0.89100  0.51751  0.95130  Biso   1.000  N
  C376     1.0000 0.85440  0.49750  0.98260  Biso   1.000  C
  H271     1.0000 0.82970  0.50120  0.04950  Biso   1.000  H
  C377     1.0000 0.85470  0.47189  0.91390  Biso   1.000  C
  H272     1.0000 0.83010  0.45850  0.93480  Biso   1.000  H
  C378     1.0000 0.89160  0.46629  0.81390  Biso   1.000  C
  C379     1.0000 0.92820  0.48630  0.78260  Biso   1.000  C
  H273     1.0000 0.95290  0.48260  0.71570  Biso   1.000  H
  C380     1.0000 0.92790  0.51191  0.85130  Biso   1.000  C
  H274     1.0000 0.95250  0.52530  0.83030  Biso   1.000  H
  C381     1.0000 0.89640  0.43990  0.72300  Biso   1.000  C
  C382     1.0000 0.92300  0.42060  0.67300  Biso   1.000  C
  C383     1.0000 0.89040  0.39710  0.60970  Biso   1.000  C
  C384     1.0000 0.92370  0.39230  0.49970  Biso   1.000  C
  H275     1.0000 0.94990  0.40480  0.48180  Biso   1.000  H
  C385     1.0000 0.91790  0.36870  0.41650  Biso   1.000  C
  H276     1.0000 0.94020  0.36550  0.34290  Biso   1.000  H
  N62      1.0000 0.87870  0.34990  0.44330  Biso   1.000  N
  C386     1.0000 0.84540  0.35470  0.55330  Biso   1.000  C
  H277     1.0000 0.81920  0.34210  0.57120  Biso   1.000  H
  C387     1.0000 0.85120  0.37830  0.63650  Biso   1.000  C
  H278     1.0000 0.82890  0.38150  0.71010  Biso   1.000  H
  C388     1.0000 0.12020  0.55200  0.29200  Biso   1.000  C
  H279     1.0000 0.12060  0.53670  0.35220  Biso   1.000  H
  N63      1.0000 0.97220  0.55947  0.10700  Biso   1.000  N
  C389     1.0000 0.98720  0.53834  0.19770  Biso   1.000  C
  H280     1.0000 0.96420  0.52450  0.22390  Biso   1.000  H
  C390     1.0000 0.03670  0.53785  0.24940  Biso   1.000  C
  H281     1.0000 0.04670  0.52370  0.31010  Biso   1.000  H
  C391     1.0000 0.07110  0.55850  0.21020  Biso   1.000  C
  C392     1.0000 0.05610  0.57960  0.11950  Biso   1.000  C
  H282     1.0000 0.07910  0.59340  0.09330  Biso   1.000  H
  C393     1.0000 0.00670  0.58011  0.06780  Biso   1.000  C
  H283     1.0000 0.99660  0.59420  0.00710  Biso   1.000  H
  C394     1.0000 0.15950  0.56640  0.27900  Biso   1.000  C
  H284     1.0000 0.15660  0.58020  0.21120  Biso   1.000  H
  C395     1.0000 0.20500  0.56650  0.34320  Biso   1.000  C
  C396     1.0000 0.21350  0.55100  0.46390  Biso   1.000  C
  H285     1.0000 0.18670  0.54150  0.50610  Biso   1.000  H
  C397     1.0000 0.26200  0.54980  0.52150  Biso   1.000  C
  H286     1.0000 0.26770  0.53950  0.60230  Biso   1.000  H
  N64      1.0000 0.30200  0.56400  0.45850  Biso   1.000  N
  C398     1.0000 0.29350  0.57950  0.33780  Biso   1.000  C
  H287     1.0000 0.32020  0.58900  0.29560  Biso   1.000  H
  C399     1.0000 0.24500  0.58070  0.28020  Biso   1.000  C
  H288     1.0000 0.23930  0.59100  0.19940  Biso   1.000  H
  Cd16     1.0000 0.88538  0.56173  0.05090  Biso   1.000  Cd
  C400     1.0000 0.86930  0.41850  0.71500  Biso   1.000  C
