data_image0
_cell_length_a       38.3937
_cell_length_b       38.3937
_cell_length_c       38.3937
_cell_angle_alpha    90
_cell_angle_beta     90
_cell_angle_gamma    90

_symmetry_space_group_name_H-M    "P 1"
_symmetry_int_tables_number       1

loop_
  _symmetry_equiv_pos_as_xyz
  'x, y, z'

loop_
  _atom_site_label
  _atom_site_occupancy
  _atom_site_fract_x
  _atom_site_fract_y
  _atom_site_fract_z
  _atom_site_thermal_displace_type
  _atom_site_B_iso_or_equiv
  _atom_site_type_symbol
  O1       1.0000 0.67214  0.81407  0.27850  Biso   1.000  O
  C1       1.0000 0.63332  0.87617  0.22020  Biso   1.000  C
  H1       1.0000 0.64500  0.87030  0.19920  Biso   1.000  H
  C2       1.0000 0.60839  0.90240  0.22040  Biso   1.000  C
  H2       1.0000 0.60390  0.91530  0.19980  Biso   1.000  H
  C3       1.0000 0.52882  0.92662  0.24850  Biso   1.000  C
  C4       1.0000 0.51743  0.89068  0.24780  Biso   1.000  C
  H3       1.0000 0.53210  0.87070  0.24750  Biso   1.000  H
  O2       1.0000 0.17214  0.31407  0.77850  Biso   1.000  O
  C5       1.0000 0.13332  0.37617  0.72020  Biso   1.000  C
  H4       1.0000 0.14500  0.37030  0.69920  Biso   1.000  H
  C6       1.0000 0.10839  0.40240  0.72040  Biso   1.000  C
  H5       1.0000 0.10390  0.41530  0.69980  Biso   1.000  H
  C7       1.0000 0.02882  0.42662  0.74850  Biso   1.000  C
  C8       1.0000 0.01743  0.39068  0.74780  Biso   1.000  C
  H6       1.0000 0.03210  0.37070  0.74750  Biso   1.000  H
  O3       1.0000 0.32786  0.18593  0.27850  Biso   1.000  O
  C9       1.0000 0.36668  0.12383  0.22020  Biso   1.000  C
  H7       1.0000 0.35500  0.12970  0.19920  Biso   1.000  H
  C10      1.0000 0.39161  0.09760  0.22040  Biso   1.000  C
  H8       1.0000 0.39610  0.08470  0.19980  Biso   1.000  H
  C11      1.0000 0.47118  0.07338  0.24850  Biso   1.000  C
  C12      1.0000 0.48257  0.10932  0.24780  Biso   1.000  C
  H9       1.0000 0.46790  0.12930  0.24750  Biso   1.000  H
  O4       1.0000 0.82786  0.68593  0.77850  Biso   1.000  O
  C13      1.0000 0.86668  0.62383  0.72020  Biso   1.000  C
  H10      1.0000 0.85500  0.62970  0.69920  Biso   1.000  H
  C14      1.0000 0.89161  0.59760  0.72040  Biso   1.000  C
  H11      1.0000 0.89610  0.58470  0.69980  Biso   1.000  H
  C15      1.0000 0.97118  0.57338  0.74850  Biso   1.000  C
  C16      1.0000 0.98257  0.60932  0.74780  Biso   1.000  C
  H12      1.0000 0.96790  0.62930  0.74750  Biso   1.000  H
  O5       1.0000 0.32786  0.81407  0.72150  Biso   1.000  O
  C17      1.0000 0.36668  0.87617  0.77980  Biso   1.000  C
  H13      1.0000 0.35500  0.87030  0.80080  Biso   1.000  H
  C18      1.0000 0.39161  0.90240  0.77960  Biso   1.000  C
  H14      1.0000 0.39610  0.91530  0.80020  Biso   1.000  H
  C19      1.0000 0.47118  0.92662  0.75150  Biso   1.000  C
  C20      1.0000 0.48257  0.89068  0.75220  Biso   1.000  C
  H15      1.0000 0.46790  0.87070  0.75250  Biso   1.000  H
  O6       1.0000 0.82786  0.31407  0.22150  Biso   1.000  O
  C21      1.0000 0.86668  0.37617  0.27980  Biso   1.000  C
  H16      1.0000 0.85500  0.37030  0.30080  Biso   1.000  H
  C22      1.0000 0.89161  0.40240  0.27960  Biso   1.000  C
  H17      1.0000 0.89610  0.41530  0.30020  Biso   1.000  H
  C23      1.0000 0.97118  0.42662  0.25150  Biso   1.000  C
  C24      1.0000 0.98257  0.39068  0.25220  Biso   1.000  C
  H18      1.0000 0.96790  0.37070  0.25250  Biso   1.000  H
  O7       1.0000 0.67214  0.18593  0.72150  Biso   1.000  O
  C25      1.0000 0.63332  0.12383  0.77980  Biso   1.000  C
  H19      1.0000 0.64500  0.12970  0.80080  Biso   1.000  H
  C26      1.0000 0.60839  0.09760  0.77960  Biso   1.000  C
  H20      1.0000 0.60390  0.08470  0.80020  Biso   1.000  H
  C27      1.0000 0.52882  0.07338  0.75150  Biso   1.000  C
  C28      1.0000 0.51743  0.10932  0.75220  Biso   1.000  C
  H21      1.0000 0.53210  0.12930  0.75250  Biso   1.000  H
  O8       1.0000 0.17214  0.68593  0.22150  Biso   1.000  O
  C29      1.0000 0.13332  0.62383  0.27980  Biso   1.000  C
  H22      1.0000 0.14500  0.62970  0.30080  Biso   1.000  H
  C30      1.0000 0.10839  0.59760  0.27960  Biso   1.000  C
  H23      1.0000 0.10390  0.58470  0.30020  Biso   1.000  H
  C31      1.0000 0.02882  0.57338  0.25150  Biso   1.000  C
  C32      1.0000 0.01743  0.60932  0.25220  Biso   1.000  C
  H24      1.0000 0.03210  0.62930  0.25250  Biso   1.000  H
  O9       1.0000 0.27850  0.67214  0.81407  Biso   1.000  O
  C33      1.0000 0.22020  0.63332  0.87617  Biso   1.000  C
  H25      1.0000 0.19920  0.64500  0.87030  Biso   1.000  H
  C34      1.0000 0.22040  0.60839  0.90240  Biso   1.000  C
  H26      1.0000 0.19980  0.60390  0.91530  Biso   1.000  H
  C35      1.0000 0.24850  0.52882  0.92662  Biso   1.000  C
  C36      1.0000 0.24780  0.51743  0.89068  Biso   1.000  C
  H27      1.0000 0.24750  0.53210  0.87070  Biso   1.000  H
  O10      1.0000 0.77850  0.17214  0.31407  Biso   1.000  O
  C37      1.0000 0.72020  0.13332  0.37617  Biso   1.000  C
  H28      1.0000 0.69920  0.14500  0.37030  Biso   1.000  H
  C38      1.0000 0.72040  0.10839  0.40240  Biso   1.000  C
  H29      1.0000 0.69980  0.10390  0.41530  Biso   1.000  H
  C39      1.0000 0.74850  0.02882  0.42662  Biso   1.000  C
  C40      1.0000 0.74780  0.01743  0.39068  Biso   1.000  C
  H30      1.0000 0.74750  0.03210  0.37070  Biso   1.000  H
  O11      1.0000 0.27850  0.32786  0.18593  Biso   1.000  O
  C41      1.0000 0.22020  0.36668  0.12383  Biso   1.000  C
  H31      1.0000 0.19920  0.35500  0.12970  Biso   1.000  H
  C42      1.0000 0.22040  0.39161  0.09760  Biso   1.000  C
  H32      1.0000 0.19980  0.39610  0.08470  Biso   1.000  H
  C43      1.0000 0.24850  0.47118  0.07338  Biso   1.000  C
  C44      1.0000 0.24780  0.48257  0.10932  Biso   1.000  C
  H33      1.0000 0.24750  0.46790  0.12930  Biso   1.000  H
  O12      1.0000 0.77850  0.82786  0.68593  Biso   1.000  O
  C45      1.0000 0.72020  0.86668  0.62383  Biso   1.000  C
  H34      1.0000 0.69920  0.85500  0.62970  Biso   1.000  H
  C46      1.0000 0.72040  0.89161  0.59760  Biso   1.000  C
  H35      1.0000 0.69980  0.89610  0.58470  Biso   1.000  H
  C47      1.0000 0.74850  0.97118  0.57338  Biso   1.000  C
  C48      1.0000 0.74780  0.98257  0.60932  Biso   1.000  C
  H36      1.0000 0.74750  0.96790  0.62930  Biso   1.000  H
  O13      1.0000 0.72150  0.32786  0.81407  Biso   1.000  O
  C49      1.0000 0.77980  0.36668  0.87617  Biso   1.000  C
  H37      1.0000 0.80080  0.35500  0.87030  Biso   1.000  H
  C50      1.0000 0.77960  0.39161  0.90240  Biso   1.000  C
  H38      1.0000 0.80020  0.39610  0.91530  Biso   1.000  H
  C51      1.0000 0.75150  0.47118  0.92662  Biso   1.000  C
  C52      1.0000 0.75220  0.48257  0.89068  Biso   1.000  C
  H39      1.0000 0.75250  0.46790  0.87070  Biso   1.000  H
  O14      1.0000 0.22150  0.82786  0.31407  Biso   1.000  O
  C53      1.0000 0.27980  0.86668  0.37617  Biso   1.000  C
  H40      1.0000 0.30080  0.85500  0.37030  Biso   1.000  H
  C54      1.0000 0.27960  0.89161  0.40240  Biso   1.000  C
  H41      1.0000 0.30020  0.89610  0.41530  Biso   1.000  H
  C55      1.0000 0.25150  0.97118  0.42662  Biso   1.000  C
  C56      1.0000 0.25220  0.98257  0.39068  Biso   1.000  C
  H42      1.0000 0.25250  0.96790  0.37070  Biso   1.000  H
  O15      1.0000 0.72150  0.67214  0.18593  Biso   1.000  O
  C57      1.0000 0.77980  0.63332  0.12383  Biso   1.000  C
  H43      1.0000 0.80080  0.64500  0.12970  Biso   1.000  H
  C58      1.0000 0.77960  0.60839  0.09760  Biso   1.000  C
  H44      1.0000 0.80020  0.60390  0.08470  Biso   1.000  H
  C59      1.0000 0.75150  0.52882  0.07338  Biso   1.000  C
  C60      1.0000 0.75220  0.51743  0.10932  Biso   1.000  C
  H45      1.0000 0.75250  0.53210  0.12930  Biso   1.000  H
  O16      1.0000 0.22150  0.17214  0.68593  Biso   1.000  O
  C61      1.0000 0.27980  0.13332  0.62383  Biso   1.000  C
  H46      1.0000 0.30080  0.14500  0.62970  Biso   1.000  H
  C62      1.0000 0.27960  0.10839  0.59760  Biso   1.000  C
  H47      1.0000 0.30020  0.10390  0.58470  Biso   1.000  H
  C63      1.0000 0.25150  0.02882  0.57338  Biso   1.000  C
  C64      1.0000 0.25220  0.01743  0.60932  Biso   1.000  C
  H48      1.0000 0.25250  0.03210  0.62930  Biso   1.000  H
  O17      1.0000 0.81407  0.27850  0.67214  Biso   1.000  O
  C65      1.0000 0.87617  0.22020  0.63332  Biso   1.000  C
  H49      1.0000 0.87030  0.19920  0.64500  Biso   1.000  H
  C66      1.0000 0.90240  0.22040  0.60839  Biso   1.000  C
  H50      1.0000 0.91530  0.19980  0.60390  Biso   1.000  H
  C67      1.0000 0.92662  0.24850  0.52882  Biso   1.000  C
  C68      1.0000 0.89068  0.24780  0.51743  Biso   1.000  C
  H51      1.0000 0.87070  0.24750  0.53210  Biso   1.000  H
  O18      1.0000 0.31407  0.77850  0.17214  Biso   1.000  O
  C69      1.0000 0.37617  0.72020  0.13332  Biso   1.000  C
  H52      1.0000 0.37030  0.69920  0.14500  Biso   1.000  H
  C70      1.0000 0.40240  0.72040  0.10839  Biso   1.000  C
  H53      1.0000 0.41530  0.69980  0.10390  Biso   1.000  H
  C71      1.0000 0.42662  0.74850  0.02882  Biso   1.000  C
  C72      1.0000 0.39068  0.74780  0.01743  Biso   1.000  C
  H54      1.0000 0.37070  0.74750  0.03210  Biso   1.000  H
  O19      1.0000 0.18593  0.27850  0.32786  Biso   1.000  O
  C73      1.0000 0.12383  0.22020  0.36668  Biso   1.000  C
  H55      1.0000 0.12970  0.19920  0.35500  Biso   1.000  H
  C74      1.0000 0.09760  0.22040  0.39161  Biso   1.000  C
  H56      1.0000 0.08470  0.19980  0.39610  Biso   1.000  H
  C75      1.0000 0.07338  0.24850  0.47118  Biso   1.000  C
  C76      1.0000 0.10932  0.24780  0.48257  Biso   1.000  C
  H57      1.0000 0.12930  0.24750  0.46790  Biso   1.000  H
  O20      1.0000 0.68593  0.77850  0.82786  Biso   1.000  O
  C77      1.0000 0.62383  0.72020  0.86668  Biso   1.000  C
  H58      1.0000 0.62970  0.69920  0.85500  Biso   1.000  H
  C78      1.0000 0.59760  0.72040  0.89161  Biso   1.000  C
  H59      1.0000 0.58470  0.69980  0.89610  Biso   1.000  H
  C79      1.0000 0.57338  0.74850  0.97118  Biso   1.000  C
  C80      1.0000 0.60932  0.74780  0.98257  Biso   1.000  C
  H60      1.0000 0.62930  0.74750  0.96790  Biso   1.000  H
  O21      1.0000 0.81407  0.72150  0.32786  Biso   1.000  O
  C81      1.0000 0.87617  0.77980  0.36668  Biso   1.000  C
  H61      1.0000 0.87030  0.80080  0.35500  Biso   1.000  H
  C82      1.0000 0.90240  0.77960  0.39161  Biso   1.000  C
  H62      1.0000 0.91530  0.80020  0.39610  Biso   1.000  H
  C83      1.0000 0.92662  0.75150  0.47118  Biso   1.000  C
  C84      1.0000 0.89068  0.75220  0.48257  Biso   1.000  C
  H63      1.0000 0.87070  0.75250  0.46790  Biso   1.000  H
  O22      1.0000 0.31407  0.22150  0.82786  Biso   1.000  O
  C85      1.0000 0.37617  0.27980  0.86668  Biso   1.000  C
  H64      1.0000 0.37030  0.30080  0.85500  Biso   1.000  H
  C86      1.0000 0.40240  0.27960  0.89161  Biso   1.000  C
  H65      1.0000 0.41530  0.30020  0.89610  Biso   1.000  H
  C87      1.0000 0.42662  0.25150  0.97118  Biso   1.000  C
  C88      1.0000 0.39068  0.25220  0.98257  Biso   1.000  C
  H66      1.0000 0.37070  0.25250  0.96790  Biso   1.000  H
  O23      1.0000 0.18593  0.72150  0.67214  Biso   1.000  O
  C89      1.0000 0.12383  0.77980  0.63332  Biso   1.000  C
  H67      1.0000 0.12970  0.80080  0.64500  Biso   1.000  H
  C90      1.0000 0.09760  0.77960  0.60839  Biso   1.000  C
  H68      1.0000 0.08470  0.80020  0.60390  Biso   1.000  H
  C91      1.0000 0.07338  0.75150  0.52882  Biso   1.000  C
  C92      1.0000 0.10932  0.75220  0.51743  Biso   1.000  C
  H69      1.0000 0.12930  0.75250  0.53210  Biso   1.000  H
  O24      1.0000 0.68593  0.22150  0.17214  Biso   1.000  O
  C93      1.0000 0.62383  0.27980  0.13332  Biso   1.000  C
  H70      1.0000 0.62970  0.30080  0.14500  Biso   1.000  H
  C94      1.0000 0.59760  0.27960  0.10839  Biso   1.000  C
  H71      1.0000 0.58470  0.30020  0.10390  Biso   1.000  H
  C95      1.0000 0.57338  0.25150  0.02882  Biso   1.000  C
  C96      1.0000 0.60932  0.25220  0.01743  Biso   1.000  C
  H72      1.0000 0.62930  0.25250  0.03210  Biso   1.000  H
  O25      1.0000 0.81407  0.67214  0.72150  Biso   1.000  O
  C97      1.0000 0.87617  0.63332  0.77980  Biso   1.000  C
  H73      1.0000 0.87030  0.64500  0.80080  Biso   1.000  H
  C98      1.0000 0.90240  0.60839  0.77960  Biso   1.000  C
  H74      1.0000 0.91530  0.60390  0.80020  Biso   1.000  H
  C99      1.0000 0.92662  0.52882  0.75150  Biso   1.000  C
  C100     1.0000 0.89068  0.51743  0.75220  Biso   1.000  C
  H75      1.0000 0.87070  0.53210  0.75250  Biso   1.000  H
  O26      1.0000 0.31407  0.17214  0.22150  Biso   1.000  O
  C101     1.0000 0.37617  0.13332  0.27980  Biso   1.000  C
  H76      1.0000 0.37030  0.14500  0.30080  Biso   1.000  H
  C102     1.0000 0.40240  0.10839  0.27960  Biso   1.000  C
  H77      1.0000 0.41530  0.10390  0.30020  Biso   1.000  H
  C103     1.0000 0.42662  0.02882  0.25150  Biso   1.000  C
  C104     1.0000 0.39068  0.01743  0.25220  Biso   1.000  C
  H78      1.0000 0.37070  0.03210  0.25250  Biso   1.000  H
  O27      1.0000 0.18593  0.32786  0.72150  Biso   1.000  O
  C105     1.0000 0.12383  0.36668  0.77980  Biso   1.000  C
  H79      1.0000 0.12970  0.35500  0.80080  Biso   1.000  H
  C106     1.0000 0.09760  0.39161  0.77960  Biso   1.000  C
  H80      1.0000 0.08470  0.39610  0.80020  Biso   1.000  H
  C107     1.0000 0.07338  0.47118  0.75150  Biso   1.000  C
  C108     1.0000 0.10932  0.48257  0.75220  Biso   1.000  C
  H81      1.0000 0.12930  0.46790  0.75250  Biso   1.000  H
  O28      1.0000 0.68593  0.82786  0.22150  Biso   1.000  O
  C109     1.0000 0.62383  0.86668  0.27980  Biso   1.000  C
  H82      1.0000 0.62970  0.85500  0.30080  Biso   1.000  H
  C110     1.0000 0.59760  0.89161  0.27960  Biso   1.000  C
  H83      1.0000 0.58470  0.89610  0.30020  Biso   1.000  H
  C111     1.0000 0.57338  0.97118  0.25150  Biso   1.000  C
  C112     1.0000 0.60932  0.98257  0.25220  Biso   1.000  C
  H84      1.0000 0.62930  0.96790  0.25250  Biso   1.000  H
  O29      1.0000 0.81407  0.32786  0.27850  Biso   1.000  O
  C113     1.0000 0.87617  0.36668  0.22020  Biso   1.000  C
  H85      1.0000 0.87030  0.35500  0.19920  Biso   1.000  H
  C114     1.0000 0.90240  0.39161  0.22040  Biso   1.000  C
  H86      1.0000 0.91530  0.39610  0.19980  Biso   1.000  H
  C115     1.0000 0.92662  0.47118  0.24850  Biso   1.000  C
  C116     1.0000 0.89068  0.48257  0.24780  Biso   1.000  C
  H87      1.0000 0.87070  0.46790  0.24750  Biso   1.000  H
  O30      1.0000 0.31407  0.82786  0.77850  Biso   1.000  O
  C117     1.0000 0.37617  0.86668  0.72020  Biso   1.000  C
  H88      1.0000 0.37030  0.85500  0.69920  Biso   1.000  H
  C118     1.0000 0.40240  0.89161  0.72040  Biso   1.000  C
  H89      1.0000 0.41530  0.89610  0.69980  Biso   1.000  H
  C119     1.0000 0.42662  0.97118  0.74850  Biso   1.000  C
  C120     1.0000 0.39068  0.98257  0.74780  Biso   1.000  C
  H90      1.0000 0.37070  0.96790  0.74750  Biso   1.000  H
  O31      1.0000 0.18593  0.67214  0.27850  Biso   1.000  O
  C121     1.0000 0.12383  0.63332  0.22020  Biso   1.000  C
  H91      1.0000 0.12970  0.64500  0.19920  Biso   1.000  H
  C122     1.0000 0.09760  0.60839  0.22040  Biso   1.000  C
  H92      1.0000 0.08470  0.60390  0.19980  Biso   1.000  H
  C123     1.0000 0.07338  0.52882  0.24850  Biso   1.000  C
  C124     1.0000 0.10932  0.51743  0.24780  Biso   1.000  C
  H93      1.0000 0.12930  0.53210  0.24750  Biso   1.000  H
  O32      1.0000 0.68593  0.17214  0.77850  Biso   1.000  O
  C125     1.0000 0.62383  0.13332  0.72020  Biso   1.000  C
  H94      1.0000 0.62970  0.14500  0.69920  Biso   1.000  H
  C126     1.0000 0.59760  0.10839  0.72040  Biso   1.000  C
  H95      1.0000 0.58470  0.10390  0.69980  Biso   1.000  H
  C127     1.0000 0.57338  0.02882  0.74850  Biso   1.000  C
  C128     1.0000 0.60932  0.01743  0.74780  Biso   1.000  C
  H96      1.0000 0.62930  0.03210  0.74750  Biso   1.000  H
  O33      1.0000 0.67214  0.27850  0.18593  Biso   1.000  O
  C129     1.0000 0.63332  0.22020  0.12383  Biso   1.000  C
  H97      1.0000 0.64500  0.19920  0.12970  Biso   1.000  H
  C130     1.0000 0.60839  0.22040  0.09760  Biso   1.000  C
  H98      1.0000 0.60390  0.19980  0.08470  Biso   1.000  H
  C131     1.0000 0.52882  0.24850  0.07338  Biso   1.000  C
  C132     1.0000 0.51743  0.24780  0.10932  Biso   1.000  C
  H99      1.0000 0.53210  0.24750  0.12930  Biso   1.000  H
  O34      1.0000 0.17214  0.77850  0.68593  Biso   1.000  O
  C133     1.0000 0.13332  0.72020  0.62383  Biso   1.000  C
  H100     1.0000 0.14500  0.69920  0.62970  Biso   1.000  H
  C134     1.0000 0.10839  0.72040  0.59760  Biso   1.000  C
  H101     1.0000 0.10390  0.69980  0.58470  Biso   1.000  H
  C135     1.0000 0.02882  0.74850  0.57338  Biso   1.000  C
  C136     1.0000 0.01743  0.74780  0.60932  Biso   1.000  C
  H102     1.0000 0.03210  0.74750  0.62930  Biso   1.000  H
  O35      1.0000 0.32786  0.27850  0.81407  Biso   1.000  O
  C137     1.0000 0.36668  0.22020  0.87617  Biso   1.000  C
  H103     1.0000 0.35500  0.19920  0.87030  Biso   1.000  H
  C138     1.0000 0.39161  0.22040  0.90240  Biso   1.000  C
  H104     1.0000 0.39610  0.19980  0.91530  Biso   1.000  H
  C139     1.0000 0.47118  0.24850  0.92662  Biso   1.000  C
  C140     1.0000 0.48257  0.24780  0.89068  Biso   1.000  C
  H105     1.0000 0.46790  0.24750  0.87070  Biso   1.000  H
  O36      1.0000 0.82786  0.77850  0.31407  Biso   1.000  O
  C141     1.0000 0.86668  0.72020  0.37617  Biso   1.000  C
  H106     1.0000 0.85500  0.69920  0.37030  Biso   1.000  H
  C142     1.0000 0.89161  0.72040  0.40240  Biso   1.000  C
  H107     1.0000 0.89610  0.69980  0.41530  Biso   1.000  H
  C143     1.0000 0.97118  0.74850  0.42662  Biso   1.000  C
  C144     1.0000 0.98257  0.74780  0.39068  Biso   1.000  C
  H108     1.0000 0.96790  0.74750  0.37070  Biso   1.000  H
  O37      1.0000 0.32786  0.72150  0.18593  Biso   1.000  O
  C145     1.0000 0.36668  0.77980  0.12383  Biso   1.000  C
  H109     1.0000 0.35500  0.80080  0.12970  Biso   1.000  H
  C146     1.0000 0.39161  0.77960  0.09760  Biso   1.000  C
  H110     1.0000 0.39610  0.80020  0.08470  Biso   1.000  H
  C147     1.0000 0.47118  0.75150  0.07338  Biso   1.000  C
  C148     1.0000 0.48257  0.75220  0.10932  Biso   1.000  C
  H111     1.0000 0.46790  0.75250  0.12930  Biso   1.000  H
  O38      1.0000 0.82786  0.22150  0.68593  Biso   1.000  O
  C149     1.0000 0.86668  0.27980  0.62383  Biso   1.000  C
  H112     1.0000 0.85500  0.30080  0.62970  Biso   1.000  H
  C150     1.0000 0.89161  0.27960  0.59760  Biso   1.000  C
  H113     1.0000 0.89610  0.30020  0.58470  Biso   1.000  H
  C151     1.0000 0.97118  0.25150  0.57338  Biso   1.000  C
  C152     1.0000 0.98257  0.25220  0.60932  Biso   1.000  C
  H114     1.0000 0.96790  0.25250  0.62930  Biso   1.000  H
  O39      1.0000 0.67214  0.72150  0.81407  Biso   1.000  O
  C153     1.0000 0.63332  0.77980  0.87617  Biso   1.000  C
  H115     1.0000 0.64500  0.80080  0.87030  Biso   1.000  H
  C154     1.0000 0.60839  0.77960  0.90240  Biso   1.000  C
  H116     1.0000 0.60390  0.80020  0.91530  Biso   1.000  H
  C155     1.0000 0.52882  0.75150  0.92662  Biso   1.000  C
  C156     1.0000 0.51743  0.75220  0.89068  Biso   1.000  C
  H117     1.0000 0.53210  0.75250  0.87070  Biso   1.000  H
  O40      1.0000 0.17214  0.22150  0.31407  Biso   1.000  O
  C157     1.0000 0.13332  0.27980  0.37617  Biso   1.000  C
  H118     1.0000 0.14500  0.30080  0.37030  Biso   1.000  H
  C158     1.0000 0.10839  0.27960  0.40240  Biso   1.000  C
  H119     1.0000 0.10390  0.30020  0.41530  Biso   1.000  H
  C159     1.0000 0.02882  0.25150  0.42662  Biso   1.000  C
  C160     1.0000 0.01743  0.25220  0.39068  Biso   1.000  C
  H120     1.0000 0.03210  0.25250  0.37070  Biso   1.000  H
  O41      1.0000 0.27850  0.81407  0.32786  Biso   1.000  O
  C161     1.0000 0.22020  0.87617  0.36668  Biso   1.000  C
  H121     1.0000 0.19920  0.87030  0.35500  Biso   1.000  H
  C162     1.0000 0.22040  0.90240  0.39161  Biso   1.000  C
  H122     1.0000 0.19980  0.91530  0.39610  Biso   1.000  H
  C163     1.0000 0.24850  0.92662  0.47118  Biso   1.000  C
  C164     1.0000 0.24780  0.89068  0.48257  Biso   1.000  C
  H123     1.0000 0.24750  0.87070  0.46790  Biso   1.000  H
  O42      1.0000 0.77850  0.31407  0.82786  Biso   1.000  O
  C165     1.0000 0.72020  0.37617  0.86668  Biso   1.000  C
  H124     1.0000 0.69920  0.37030  0.85500  Biso   1.000  H
  C166     1.0000 0.72040  0.40240  0.89161  Biso   1.000  C
  H125     1.0000 0.69980  0.41530  0.89610  Biso   1.000  H
  C167     1.0000 0.74850  0.42662  0.97118  Biso   1.000  C
  C168     1.0000 0.74780  0.39068  0.98257  Biso   1.000  C
  H126     1.0000 0.74750  0.37070  0.96790  Biso   1.000  H
  O43      1.0000 0.27850  0.18593  0.67214  Biso   1.000  O
  C169     1.0000 0.22020  0.12383  0.63332  Biso   1.000  C
  H127     1.0000 0.19920  0.12970  0.64500  Biso   1.000  H
  C170     1.0000 0.22040  0.09760  0.60839  Biso   1.000  C
  H128     1.0000 0.19980  0.08470  0.60390  Biso   1.000  H
  C171     1.0000 0.24850  0.07338  0.52882  Biso   1.000  C
  C172     1.0000 0.24780  0.10932  0.51743  Biso   1.000  C
  H129     1.0000 0.24750  0.12930  0.53210  Biso   1.000  H
  O44      1.0000 0.77850  0.68593  0.17214  Biso   1.000  O
  C173     1.0000 0.72020  0.62383  0.13332  Biso   1.000  C
  H130     1.0000 0.69920  0.62970  0.14500  Biso   1.000  H
  C174     1.0000 0.72040  0.59760  0.10839  Biso   1.000  C
  H131     1.0000 0.69980  0.58470  0.10390  Biso   1.000  H
  C175     1.0000 0.74850  0.57338  0.02882  Biso   1.000  C
  C176     1.0000 0.74780  0.60932  0.01743  Biso   1.000  C
  H132     1.0000 0.74750  0.62930  0.03210  Biso   1.000  H
  O45      1.0000 0.72150  0.81407  0.67214  Biso   1.000  O
  C177     1.0000 0.77980  0.87617  0.63332  Biso   1.000  C
  H133     1.0000 0.80080  0.87030  0.64500  Biso   1.000  H
  C178     1.0000 0.77960  0.90240  0.60839  Biso   1.000  C
  H134     1.0000 0.80020  0.91530  0.60390  Biso   1.000  H
  C179     1.0000 0.75150  0.92662  0.52882  Biso   1.000  C
  C180     1.0000 0.75220  0.89068  0.51743  Biso   1.000  C
  H135     1.0000 0.75250  0.87070  0.53210  Biso   1.000  H
  O46      1.0000 0.22150  0.31407  0.17214  Biso   1.000  O
  C181     1.0000 0.27980  0.37617  0.13332  Biso   1.000  C
  H136     1.0000 0.30080  0.37030  0.14500  Biso   1.000  H
  C182     1.0000 0.27960  0.40240  0.10839  Biso   1.000  C
  H137     1.0000 0.30020  0.41530  0.10390  Biso   1.000  H
  C183     1.0000 0.25150  0.42662  0.02882  Biso   1.000  C
  C184     1.0000 0.25220  0.39068  0.01743  Biso   1.000  C
  H138     1.0000 0.25250  0.37070  0.03210  Biso   1.000  H
  O47      1.0000 0.72150  0.18593  0.32786  Biso   1.000  O
  C185     1.0000 0.77980  0.12383  0.36668  Biso   1.000  C
  H139     1.0000 0.80080  0.12970  0.35500  Biso   1.000  H
  C186     1.0000 0.77960  0.09760  0.39161  Biso   1.000  C
  H140     1.0000 0.80020  0.08470  0.39610  Biso   1.000  H
  C187     1.0000 0.75150  0.07338  0.47118  Biso   1.000  C
  C188     1.0000 0.75220  0.10932  0.48257  Biso   1.000  C
  H141     1.0000 0.75250  0.12930  0.46790  Biso   1.000  H
  O48      1.0000 0.22150  0.68593  0.82786  Biso   1.000  O
  C189     1.0000 0.27980  0.62383  0.86668  Biso   1.000  C
  H142     1.0000 0.30080  0.62970  0.85500  Biso   1.000  H
  C190     1.0000 0.27960  0.59760  0.89161  Biso   1.000  C
  H143     1.0000 0.30020  0.58470  0.89610  Biso   1.000  H
  C191     1.0000 0.25150  0.57338  0.97118  Biso   1.000  C
  C192     1.0000 0.25220  0.60932  0.98257  Biso   1.000  C
  H144     1.0000 0.25250  0.62930  0.96790  Biso   1.000  H
  O49      1.0000 0.32786  0.18593  0.72150  Biso   1.000  O
  C193     1.0000 0.36668  0.12383  0.77980  Biso   1.000  C
  H145     1.0000 0.35500  0.12970  0.80080  Biso   1.000  H
  C194     1.0000 0.39161  0.09760  0.77960  Biso   1.000  C
  H146     1.0000 0.39610  0.08470  0.80020  Biso   1.000  H
  C195     1.0000 0.47118  0.07338  0.75150  Biso   1.000  C
  C196     1.0000 0.48257  0.10932  0.75220  Biso   1.000  C
  H147     1.0000 0.46790  0.12930  0.75250  Biso   1.000  H
  O50      1.0000 0.82786  0.68593  0.22150  Biso   1.000  O
  C197     1.0000 0.86668  0.62383  0.27980  Biso   1.000  C
  H148     1.0000 0.85500  0.62970  0.30080  Biso   1.000  H
  C198     1.0000 0.89161  0.59760  0.27960  Biso   1.000  C
  H149     1.0000 0.89610  0.58470  0.30020  Biso   1.000  H
  C199     1.0000 0.97118  0.57338  0.25150  Biso   1.000  C
  C200     1.0000 0.98257  0.60932  0.25220  Biso   1.000  C
  H150     1.0000 0.96790  0.62930  0.25250  Biso   1.000  H
  O51      1.0000 0.67214  0.81407  0.72150  Biso   1.000  O
  C201     1.0000 0.63332  0.87617  0.77980  Biso   1.000  C
  H151     1.0000 0.64500  0.87030  0.80080  Biso   1.000  H
  C202     1.0000 0.60839  0.90240  0.77960  Biso   1.000  C
  H152     1.0000 0.60390  0.91530  0.80020  Biso   1.000  H
  C203     1.0000 0.52882  0.92662  0.75150  Biso   1.000  C
  C204     1.0000 0.51743  0.89068  0.75220  Biso   1.000  C
  H153     1.0000 0.53210  0.87070  0.75250  Biso   1.000  H
  O52      1.0000 0.17214  0.31407  0.22150  Biso   1.000  O
  C205     1.0000 0.13332  0.37617  0.27980  Biso   1.000  C
  H154     1.0000 0.14500  0.37030  0.30080  Biso   1.000  H
  C206     1.0000 0.10839  0.40240  0.27960  Biso   1.000  C
  H155     1.0000 0.10390  0.41530  0.30020  Biso   1.000  H
  C207     1.0000 0.02882  0.42662  0.25150  Biso   1.000  C
  C208     1.0000 0.01743  0.39068  0.25220  Biso   1.000  C
  H156     1.0000 0.03210  0.37070  0.25250  Biso   1.000  H
  O53      1.0000 0.67214  0.18593  0.27850  Biso   1.000  O
  C209     1.0000 0.63332  0.12383  0.22020  Biso   1.000  C
  H157     1.0000 0.64500  0.12970  0.19920  Biso   1.000  H
  C210     1.0000 0.60839  0.09760  0.22040  Biso   1.000  C
  H158     1.0000 0.60390  0.08470  0.19980  Biso   1.000  H
  C211     1.0000 0.52882  0.07338  0.24850  Biso   1.000  C
  C212     1.0000 0.51743  0.10932  0.24780  Biso   1.000  C
  H159     1.0000 0.53210  0.12930  0.24750  Biso   1.000  H
  O54      1.0000 0.17214  0.68593  0.77850  Biso   1.000  O
  C213     1.0000 0.13332  0.62383  0.72020  Biso   1.000  C
  H160     1.0000 0.14500  0.62970  0.69920  Biso   1.000  H
  C214     1.0000 0.10839  0.59760  0.72040  Biso   1.000  C
  H161     1.0000 0.10390  0.58470  0.69980  Biso   1.000  H
  C215     1.0000 0.02882  0.57338  0.74850  Biso   1.000  C
  C216     1.0000 0.01743  0.60932  0.74780  Biso   1.000  C
  H162     1.0000 0.03210  0.62930  0.74750  Biso   1.000  H
  O55      1.0000 0.32786  0.81407  0.27850  Biso   1.000  O
  C217     1.0000 0.36668  0.87617  0.22020  Biso   1.000  C
  H163     1.0000 0.35500  0.87030  0.19920  Biso   1.000  H
  C218     1.0000 0.39161  0.90240  0.22040  Biso   1.000  C
  H164     1.0000 0.39610  0.91530  0.19980  Biso   1.000  H
  C219     1.0000 0.47118  0.92662  0.24850  Biso   1.000  C
  C220     1.0000 0.48257  0.89068  0.24780  Biso   1.000  C
  H165     1.0000 0.46790  0.87070  0.24750  Biso   1.000  H
  O56      1.0000 0.82786  0.31407  0.77850  Biso   1.000  O
  C221     1.0000 0.86668  0.37617  0.72020  Biso   1.000  C
  H166     1.0000 0.85500  0.37030  0.69920  Biso   1.000  H
  C222     1.0000 0.89161  0.40240  0.72040  Biso   1.000  C
  H167     1.0000 0.89610  0.41530  0.69980  Biso   1.000  H
  C223     1.0000 0.97118  0.42662  0.74850  Biso   1.000  C
  C224     1.0000 0.98257  0.39068  0.74780  Biso   1.000  C
  H168     1.0000 0.96790  0.37070  0.74750  Biso   1.000  H
  O57      1.0000 0.72150  0.32786  0.18593  Biso   1.000  O
  C225     1.0000 0.77980  0.36668  0.12383  Biso   1.000  C
  H169     1.0000 0.80080  0.35500  0.12970  Biso   1.000  H
  C226     1.0000 0.77960  0.39161  0.09760  Biso   1.000  C
  H170     1.0000 0.80020  0.39610  0.08470  Biso   1.000  H
  C227     1.0000 0.75150  0.47118  0.07338  Biso   1.000  C
  C228     1.0000 0.75220  0.48257  0.10932  Biso   1.000  C
  H171     1.0000 0.75250  0.46790  0.12930  Biso   1.000  H
  O58      1.0000 0.22150  0.82786  0.68593  Biso   1.000  O
  C229     1.0000 0.27980  0.86668  0.62383  Biso   1.000  C
  H172     1.0000 0.30080  0.85500  0.62970  Biso   1.000  H
  C230     1.0000 0.27960  0.89161  0.59760  Biso   1.000  C
  H173     1.0000 0.30020  0.89610  0.58470  Biso   1.000  H
  C231     1.0000 0.25150  0.97118  0.57338  Biso   1.000  C
  C232     1.0000 0.25220  0.98257  0.60932  Biso   1.000  C
  H174     1.0000 0.25250  0.96790  0.62930  Biso   1.000  H
  O59      1.0000 0.72150  0.67214  0.81407  Biso   1.000  O
  C233     1.0000 0.77980  0.63332  0.87617  Biso   1.000  C
  H175     1.0000 0.80080  0.64500  0.87030  Biso   1.000  H
  C234     1.0000 0.77960  0.60839  0.90240  Biso   1.000  C
  H176     1.0000 0.80020  0.60390  0.91530  Biso   1.000  H
  C235     1.0000 0.75150  0.52882  0.92662  Biso   1.000  C
  C236     1.0000 0.75220  0.51743  0.89068  Biso   1.000  C
  H177     1.0000 0.75250  0.53210  0.87070  Biso   1.000  H
  O60      1.0000 0.22150  0.17214  0.31407  Biso   1.000  O
  C237     1.0000 0.27980  0.13332  0.37617  Biso   1.000  C
  H178     1.0000 0.30080  0.14500  0.37030  Biso   1.000  H
  C238     1.0000 0.27960  0.10839  0.40240  Biso   1.000  C
  H179     1.0000 0.30020  0.10390  0.41530  Biso   1.000  H
  C239     1.0000 0.25150  0.02882  0.42662  Biso   1.000  C
  C240     1.0000 0.25220  0.01743  0.39068  Biso   1.000  C
  H180     1.0000 0.25250  0.03210  0.37070  Biso   1.000  H
  O61      1.0000 0.27850  0.67214  0.18593  Biso   1.000  O
  C241     1.0000 0.22020  0.63332  0.12383  Biso   1.000  C
  H181     1.0000 0.19920  0.64500  0.12970  Biso   1.000  H
  C242     1.0000 0.22040  0.60839  0.09760  Biso   1.000  C
  H182     1.0000 0.19980  0.60390  0.08470  Biso   1.000  H
  C243     1.0000 0.24850  0.52882  0.07338  Biso   1.000  C
  C244     1.0000 0.24780  0.51743  0.10932  Biso   1.000  C
  H183     1.0000 0.24750  0.53210  0.12930  Biso   1.000  H
  O62      1.0000 0.77850  0.17214  0.68593  Biso   1.000  O
  C245     1.0000 0.72020  0.13332  0.62383  Biso   1.000  C
  H184     1.0000 0.69920  0.14500  0.62970  Biso   1.000  H
  C246     1.0000 0.72040  0.10839  0.59760  Biso   1.000  C
  H185     1.0000 0.69980  0.10390  0.58470  Biso   1.000  H
  C247     1.0000 0.74850  0.02882  0.57338  Biso   1.000  C
  C248     1.0000 0.74780  0.01743  0.60932  Biso   1.000  C
  H186     1.0000 0.74750  0.03210  0.62930  Biso   1.000  H
  O63      1.0000 0.27850  0.32786  0.81407  Biso   1.000  O
  C249     1.0000 0.22020  0.36668  0.87617  Biso   1.000  C
  H187     1.0000 0.19920  0.35500  0.87030  Biso   1.000  H
  C250     1.0000 0.22040  0.39161  0.90240  Biso   1.000  C
  H188     1.0000 0.19980  0.39610  0.91530  Biso   1.000  H
  C251     1.0000 0.24850  0.47118  0.92662  Biso   1.000  C
  C252     1.0000 0.24780  0.48257  0.89068  Biso   1.000  C
  H189     1.0000 0.24750  0.46790  0.87070  Biso   1.000  H
  O64      1.0000 0.77850  0.82786  0.31407  Biso   1.000  O
  C253     1.0000 0.72020  0.86668  0.37617  Biso   1.000  C
  H190     1.0000 0.69920  0.85500  0.37030  Biso   1.000  H
  C254     1.0000 0.72040  0.89161  0.40240  Biso   1.000  C
  H191     1.0000 0.69980  0.89610  0.41530  Biso   1.000  H
  C255     1.0000 0.74850  0.97118  0.42662  Biso   1.000  C
  C256     1.0000 0.74780  0.98257  0.39068  Biso   1.000  C
  H192     1.0000 0.74750  0.96790  0.37070  Biso   1.000  H
  O65      1.0000 0.18593  0.72150  0.32786  Biso   1.000  O
  C257     1.0000 0.12383  0.77980  0.36668  Biso   1.000  C
  H193     1.0000 0.12970  0.80080  0.35500  Biso   1.000  H
  C258     1.0000 0.09760  0.77960  0.39161  Biso   1.000  C
  H194     1.0000 0.08470  0.80020  0.39610  Biso   1.000  H
  C259     1.0000 0.07338  0.75150  0.47118  Biso   1.000  C
  C260     1.0000 0.10932  0.75220  0.48257  Biso   1.000  C
  H195     1.0000 0.12930  0.75250  0.46790  Biso   1.000  H
  O66      1.0000 0.68593  0.22150  0.82786  Biso   1.000  O
  C261     1.0000 0.62383  0.27980  0.86668  Biso   1.000  C
  H196     1.0000 0.62970  0.30080  0.85500  Biso   1.000  H
  C262     1.0000 0.59760  0.27960  0.89161  Biso   1.000  C
  H197     1.0000 0.58470  0.30020  0.89610  Biso   1.000  H
  C263     1.0000 0.57338  0.25150  0.97118  Biso   1.000  C
  C264     1.0000 0.60932  0.25220  0.98257  Biso   1.000  C
  H198     1.0000 0.62930  0.25250  0.96790  Biso   1.000  H
  O67      1.0000 0.81407  0.72150  0.67214  Biso   1.000  O
  C265     1.0000 0.87617  0.77980  0.63332  Biso   1.000  C
  H199     1.0000 0.87030  0.80080  0.64500  Biso   1.000  H
  C266     1.0000 0.90240  0.77960  0.60839  Biso   1.000  C
  H200     1.0000 0.91530  0.80020  0.60390  Biso   1.000  H
  C267     1.0000 0.92662  0.75150  0.52882  Biso   1.000  C
  C268     1.0000 0.89068  0.75220  0.51743  Biso   1.000  C
  H201     1.0000 0.87070  0.75250  0.53210  Biso   1.000  H
  O68      1.0000 0.31407  0.22150  0.17214  Biso   1.000  O
  C269     1.0000 0.37617  0.27980  0.13332  Biso   1.000  C
  H202     1.0000 0.37030  0.30080  0.14500  Biso   1.000  H
  C270     1.0000 0.40240  0.27960  0.10839  Biso   1.000  C
  H203     1.0000 0.41530  0.30020  0.10390  Biso   1.000  H
  C271     1.0000 0.42662  0.25150  0.02882  Biso   1.000  C
  C272     1.0000 0.39068  0.25220  0.01743  Biso   1.000  C
  H204     1.0000 0.37070  0.25250  0.03210  Biso   1.000  H
  O69      1.0000 0.18593  0.27850  0.67214  Biso   1.000  O
  C273     1.0000 0.12383  0.22020  0.63332  Biso   1.000  C
  H205     1.0000 0.12970  0.19920  0.64500  Biso   1.000  H
  C274     1.0000 0.09760  0.22040  0.60839  Biso   1.000  C
  H206     1.0000 0.08470  0.19980  0.60390  Biso   1.000  H
  C275     1.0000 0.07338  0.24850  0.52882  Biso   1.000  C
  C276     1.0000 0.10932  0.24780  0.51743  Biso   1.000  C
  H207     1.0000 0.12930  0.24750  0.53210  Biso   1.000  H
  O70      1.0000 0.68593  0.77850  0.17214  Biso   1.000  O
  C277     1.0000 0.62383  0.72020  0.13332  Biso   1.000  C
  H208     1.0000 0.62970  0.69920  0.14500  Biso   1.000  H
  C278     1.0000 0.59760  0.72040  0.10839  Biso   1.000  C
  H209     1.0000 0.58470  0.69980  0.10390  Biso   1.000  H
  C279     1.0000 0.57338  0.74850  0.02882  Biso   1.000  C
  C280     1.0000 0.60932  0.74780  0.01743  Biso   1.000  C
  H210     1.0000 0.62930  0.74750  0.03210  Biso   1.000  H
  O71      1.0000 0.81407  0.27850  0.32786  Biso   1.000  O
  C281     1.0000 0.87617  0.22020  0.36668  Biso   1.000  C
  H211     1.0000 0.87030  0.19920  0.35500  Biso   1.000  H
  C282     1.0000 0.90240  0.22040  0.39161  Biso   1.000  C
  H212     1.0000 0.91530  0.19980  0.39610  Biso   1.000  H
  C283     1.0000 0.92662  0.24850  0.47118  Biso   1.000  C
  C284     1.0000 0.89068  0.24780  0.48257  Biso   1.000  C
  H213     1.0000 0.87070  0.24750  0.46790  Biso   1.000  H
  O72      1.0000 0.31407  0.77850  0.82786  Biso   1.000  O
  C285     1.0000 0.37617  0.72020  0.86668  Biso   1.000  C
  H214     1.0000 0.37030  0.69920  0.85500  Biso   1.000  H
  C286     1.0000 0.40240  0.72040  0.89161  Biso   1.000  C
  H215     1.0000 0.41530  0.69980  0.89610  Biso   1.000  H
  C287     1.0000 0.42662  0.74850  0.97118  Biso   1.000  C
  C288     1.0000 0.39068  0.74780  0.98257  Biso   1.000  C
  H216     1.0000 0.37070  0.74750  0.96790  Biso   1.000  H
  O73      1.0000 0.18593  0.32786  0.27850  Biso   1.000  O
  C289     1.0000 0.12383  0.36668  0.22020  Biso   1.000  C
  H217     1.0000 0.12970  0.35500  0.19920  Biso   1.000  H
  C290     1.0000 0.09760  0.39161  0.22040  Biso   1.000  C
  H218     1.0000 0.08470  0.39610  0.19980  Biso   1.000  H
  C291     1.0000 0.07338  0.47118  0.24850  Biso   1.000  C
  C292     1.0000 0.10932  0.48257  0.24780  Biso   1.000  C
  H219     1.0000 0.12930  0.46790  0.24750  Biso   1.000  H
  O74      1.0000 0.68593  0.82786  0.77850  Biso   1.000  O
  C293     1.0000 0.62383  0.86668  0.72020  Biso   1.000  C
  H220     1.0000 0.62970  0.85500  0.69920  Biso   1.000  H
  C294     1.0000 0.59760  0.89161  0.72040  Biso   1.000  C
  H221     1.0000 0.58470  0.89610  0.69980  Biso   1.000  H
  C295     1.0000 0.57338  0.97118  0.74850  Biso   1.000  C
  C296     1.0000 0.60932  0.98257  0.74780  Biso   1.000  C
  H222     1.0000 0.62930  0.96790  0.74750  Biso   1.000  H
  O75      1.0000 0.81407  0.67214  0.27850  Biso   1.000  O
  C297     1.0000 0.87617  0.63332  0.22020  Biso   1.000  C
  H223     1.0000 0.87030  0.64500  0.19920  Biso   1.000  H
  C298     1.0000 0.90240  0.60839  0.22040  Biso   1.000  C
  H224     1.0000 0.91530  0.60390  0.19980  Biso   1.000  H
  C299     1.0000 0.92662  0.52882  0.24850  Biso   1.000  C
  C300     1.0000 0.89068  0.51743  0.24780  Biso   1.000  C
  H225     1.0000 0.87070  0.53210  0.24750  Biso   1.000  H
  O76      1.0000 0.31407  0.17214  0.77850  Biso   1.000  O
  C301     1.0000 0.37617  0.13332  0.72020  Biso   1.000  C
  H226     1.0000 0.37030  0.14500  0.69920  Biso   1.000  H
  C302     1.0000 0.40240  0.10839  0.72040  Biso   1.000  C
  H227     1.0000 0.41530  0.10390  0.69980  Biso   1.000  H
  C303     1.0000 0.42662  0.02882  0.74850  Biso   1.000  C
  C304     1.0000 0.39068  0.01743  0.74780  Biso   1.000  C
  H228     1.0000 0.37070  0.03210  0.74750  Biso   1.000  H
  O77      1.0000 0.18593  0.67214  0.72150  Biso   1.000  O
  C305     1.0000 0.12383  0.63332  0.77980  Biso   1.000  C
  H229     1.0000 0.12970  0.64500  0.80080  Biso   1.000  H
  C306     1.0000 0.09760  0.60839  0.77960  Biso   1.000  C
  H230     1.0000 0.08470  0.60390  0.80020  Biso   1.000  H
  C307     1.0000 0.07338  0.52882  0.75150  Biso   1.000  C
  C308     1.0000 0.10932  0.51743  0.75220  Biso   1.000  C
  H231     1.0000 0.12930  0.53210  0.75250  Biso   1.000  H
  O78      1.0000 0.68593  0.17214  0.22150  Biso   1.000  O
  C309     1.0000 0.62383  0.13332  0.27980  Biso   1.000  C
  H232     1.0000 0.62970  0.14500  0.30080  Biso   1.000  H
  C310     1.0000 0.59760  0.10839  0.27960  Biso   1.000  C
  H233     1.0000 0.58470  0.10390  0.30020  Biso   1.000  H
  C311     1.0000 0.57338  0.02882  0.25150  Biso   1.000  C
  C312     1.0000 0.60932  0.01743  0.25220  Biso   1.000  C
  H234     1.0000 0.62930  0.03210  0.25250  Biso   1.000  H
  O79      1.0000 0.81407  0.32786  0.72150  Biso   1.000  O
  C313     1.0000 0.87617  0.36668  0.77980  Biso   1.000  C
  H235     1.0000 0.87030  0.35500  0.80080  Biso   1.000  H
  C314     1.0000 0.90240  0.39161  0.77960  Biso   1.000  C
  H236     1.0000 0.91530  0.39610  0.80020  Biso   1.000  H
  C315     1.0000 0.92662  0.47118  0.75150  Biso   1.000  C
  C316     1.0000 0.89068  0.48257  0.75220  Biso   1.000  C
  H237     1.0000 0.87070  0.46790  0.75250  Biso   1.000  H
  O80      1.0000 0.31407  0.82786  0.22150  Biso   1.000  O
  C317     1.0000 0.37617  0.86668  0.27980  Biso   1.000  C
  H238     1.0000 0.37030  0.85500  0.30080  Biso   1.000  H
  C318     1.0000 0.40240  0.89161  0.27960  Biso   1.000  C
  H239     1.0000 0.41530  0.89610  0.30020  Biso   1.000  H
  C319     1.0000 0.42662  0.97118  0.25150  Biso   1.000  C
  C320     1.0000 0.39068  0.98257  0.25220  Biso   1.000  C
  H240     1.0000 0.37070  0.96790  0.25250  Biso   1.000  H
  O81      1.0000 0.32786  0.72150  0.81407  Biso   1.000  O
  C321     1.0000 0.36668  0.77980  0.87617  Biso   1.000  C
  H241     1.0000 0.35500  0.80080  0.87030  Biso   1.000  H
  C322     1.0000 0.39161  0.77960  0.90240  Biso   1.000  C
  H242     1.0000 0.39610  0.80020  0.91530  Biso   1.000  H
  C323     1.0000 0.47118  0.75150  0.92662  Biso   1.000  C
  C324     1.0000 0.48257  0.75220  0.89068  Biso   1.000  C
  H243     1.0000 0.46790  0.75250  0.87070  Biso   1.000  H
  O82      1.0000 0.82786  0.22150  0.31407  Biso   1.000  O
  C325     1.0000 0.86668  0.27980  0.37617  Biso   1.000  C
  H244     1.0000 0.85500  0.30080  0.37030  Biso   1.000  H
  C326     1.0000 0.89161  0.27960  0.40240  Biso   1.000  C
  H245     1.0000 0.89610  0.30020  0.41530  Biso   1.000  H
  C327     1.0000 0.97118  0.25150  0.42662  Biso   1.000  C
  C328     1.0000 0.98257  0.25220  0.39068  Biso   1.000  C
  H246     1.0000 0.96790  0.25250  0.37070  Biso   1.000  H
  O83      1.0000 0.67214  0.72150  0.18593  Biso   1.000  O
  C329     1.0000 0.63332  0.77980  0.12383  Biso   1.000  C
  H247     1.0000 0.64500  0.80080  0.12970  Biso   1.000  H
  C330     1.0000 0.60839  0.77960  0.09760  Biso   1.000  C
  H248     1.0000 0.60390  0.80020  0.08470  Biso   1.000  H
  C331     1.0000 0.52882  0.75150  0.07338  Biso   1.000  C
  C332     1.0000 0.51743  0.75220  0.10932  Biso   1.000  C
  H249     1.0000 0.53210  0.75250  0.12930  Biso   1.000  H
  O84      1.0000 0.17214  0.22150  0.68593  Biso   1.000  O
  C333     1.0000 0.13332  0.27980  0.62383  Biso   1.000  C
  H250     1.0000 0.14500  0.30080  0.62970  Biso   1.000  H
  C334     1.0000 0.10839  0.27960  0.59760  Biso   1.000  C
  H251     1.0000 0.10390  0.30020  0.58470  Biso   1.000  H
  C335     1.0000 0.02882  0.25150  0.57338  Biso   1.000  C
  C336     1.0000 0.01743  0.25220  0.60932  Biso   1.000  C
  H252     1.0000 0.03210  0.25250  0.62930  Biso   1.000  H
  O85      1.0000 0.67214  0.27850  0.81407  Biso   1.000  O
  C337     1.0000 0.63332  0.22020  0.87617  Biso   1.000  C
  H253     1.0000 0.64500  0.19920  0.87030  Biso   1.000  H
  C338     1.0000 0.60839  0.22040  0.90240  Biso   1.000  C
  H254     1.0000 0.60390  0.19980  0.91530  Biso   1.000  H
  C339     1.0000 0.52882  0.24850  0.92662  Biso   1.000  C
  C340     1.0000 0.51743  0.24780  0.89068  Biso   1.000  C
  H255     1.0000 0.53210  0.24750  0.87070  Biso   1.000  H
  O86      1.0000 0.17214  0.77850  0.31407  Biso   1.000  O
  C341     1.0000 0.13332  0.72020  0.37617  Biso   1.000  C
  H256     1.0000 0.14500  0.69920  0.37030  Biso   1.000  H
  C342     1.0000 0.10839  0.72040  0.40240  Biso   1.000  C
  H257     1.0000 0.10390  0.69980  0.41530  Biso   1.000  H
  C343     1.0000 0.02882  0.74850  0.42662  Biso   1.000  C
  C344     1.0000 0.01743  0.74780  0.39068  Biso   1.000  C
  H258     1.0000 0.03210  0.74750  0.37070  Biso   1.000  H
  O87      1.0000 0.32786  0.27850  0.18593  Biso   1.000  O
  C345     1.0000 0.36668  0.22020  0.12383  Biso   1.000  C
  H259     1.0000 0.35500  0.19920  0.12970  Biso   1.000  H
  C346     1.0000 0.39161  0.22040  0.09760  Biso   1.000  C
  H260     1.0000 0.39610  0.19980  0.08470  Biso   1.000  H
  C347     1.0000 0.47118  0.24850  0.07338  Biso   1.000  C
  C348     1.0000 0.48257  0.24780  0.10932  Biso   1.000  C
  H261     1.0000 0.46790  0.24750  0.12930  Biso   1.000  H
  O88      1.0000 0.82786  0.77850  0.68593  Biso   1.000  O
  C349     1.0000 0.86668  0.72020  0.62383  Biso   1.000  C
  H262     1.0000 0.85500  0.69920  0.62970  Biso   1.000  H
  C350     1.0000 0.89161  0.72040  0.59760  Biso   1.000  C
  H263     1.0000 0.89610  0.69980  0.58470  Biso   1.000  H
  C351     1.0000 0.97118  0.74850  0.57338  Biso   1.000  C
  C352     1.0000 0.98257  0.74780  0.60932  Biso   1.000  C
  H264     1.0000 0.96790  0.74750  0.62930  Biso   1.000  H
  O89      1.0000 0.72150  0.18593  0.67214  Biso   1.000  O
  C353     1.0000 0.77980  0.12383  0.63332  Biso   1.000  C
  H265     1.0000 0.80080  0.12970  0.64500  Biso   1.000  H
  C354     1.0000 0.77960  0.09760  0.60839  Biso   1.000  C
  H266     1.0000 0.80020  0.08470  0.60390  Biso   1.000  H
  C355     1.0000 0.75150  0.07338  0.52882  Biso   1.000  C
  C356     1.0000 0.75220  0.10932  0.51743  Biso   1.000  C
  H267     1.0000 0.75250  0.12930  0.53210  Biso   1.000  H
  O90      1.0000 0.22150  0.68593  0.17214  Biso   1.000  O
  C357     1.0000 0.27980  0.62383  0.13332  Biso   1.000  C
  H268     1.0000 0.30080  0.62970  0.14500  Biso   1.000  H
  C358     1.0000 0.27960  0.59760  0.10839  Biso   1.000  C
  H269     1.0000 0.30020  0.58470  0.10390  Biso   1.000  H
  C359     1.0000 0.25150  0.57338  0.02882  Biso   1.000  C
  C360     1.0000 0.25220  0.60932  0.01743  Biso   1.000  C
  H270     1.0000 0.25250  0.62930  0.03210  Biso   1.000  H
  O91      1.0000 0.72150  0.81407  0.32786  Biso   1.000  O
  C361     1.0000 0.77980  0.87617  0.36668  Biso   1.000  C
  H271     1.0000 0.80080  0.87030  0.35500  Biso   1.000  H
  C362     1.0000 0.77960  0.90240  0.39161  Biso   1.000  C
  H272     1.0000 0.80020  0.91530  0.39610  Biso   1.000  H
  C363     1.0000 0.75150  0.92662  0.47118  Biso   1.000  C
  C364     1.0000 0.75220  0.89068  0.48257  Biso   1.000  C
  H273     1.0000 0.75250  0.87070  0.46790  Biso   1.000  H
  O92      1.0000 0.22150  0.31407  0.82786  Biso   1.000  O
  C365     1.0000 0.27980  0.37617  0.86668  Biso   1.000  C
  H274     1.0000 0.30080  0.37030  0.85500  Biso   1.000  H
  C366     1.0000 0.27960  0.40240  0.89161  Biso   1.000  C
  H275     1.0000 0.30020  0.41530  0.89610  Biso   1.000  H
  C367     1.0000 0.25150  0.42662  0.97118  Biso   1.000  C
  C368     1.0000 0.25220  0.39068  0.98257  Biso   1.000  C
  H276     1.0000 0.25250  0.37070  0.96790  Biso   1.000  H
  O93      1.0000 0.27850  0.18593  0.32786  Biso   1.000  O
  C369     1.0000 0.22020  0.12383  0.36668  Biso   1.000  C
  H277     1.0000 0.19920  0.12970  0.35500  Biso   1.000  H
  C370     1.0000 0.22040  0.09760  0.39161  Biso   1.000  C
  H278     1.0000 0.19980  0.08470  0.39610  Biso   1.000  H
  C371     1.0000 0.24850  0.07338  0.47118  Biso   1.000  C
  C372     1.0000 0.24780  0.10932  0.48257  Biso   1.000  C
  H279     1.0000 0.24750  0.12930  0.46790  Biso   1.000  H
  O94      1.0000 0.77850  0.68593  0.82786  Biso   1.000  O
  C373     1.0000 0.72020  0.62383  0.86668  Biso   1.000  C
  H280     1.0000 0.69920  0.62970  0.85500  Biso   1.000  H
  C374     1.0000 0.72040  0.59760  0.89161  Biso   1.000  C
  H281     1.0000 0.69980  0.58470  0.89610  Biso   1.000  H
  C375     1.0000 0.74850  0.57338  0.97118  Biso   1.000  C
  C376     1.0000 0.74780  0.60932  0.98257  Biso   1.000  C
  H282     1.0000 0.74750  0.62930  0.96790  Biso   1.000  H
  O95      1.0000 0.27850  0.81407  0.67214  Biso   1.000  O
  C377     1.0000 0.22020  0.87617  0.63332  Biso   1.000  C
  H283     1.0000 0.19920  0.87030  0.64500  Biso   1.000  H
  C378     1.0000 0.22040  0.90240  0.60839  Biso   1.000  C
  H284     1.0000 0.19980  0.91530  0.60390  Biso   1.000  H
  C379     1.0000 0.24850  0.92662  0.52882  Biso   1.000  C
  C380     1.0000 0.24780  0.89068  0.51743  Biso   1.000  C
  H285     1.0000 0.24750  0.87070  0.53210  Biso   1.000  H
  O96      1.0000 0.77850  0.31407  0.17214  Biso   1.000  O
  C381     1.0000 0.72020  0.37617  0.13332  Biso   1.000  C
  H286     1.0000 0.69920  0.37030  0.14500  Biso   1.000  H
  C382     1.0000 0.72040  0.40240  0.10839  Biso   1.000  C
  H287     1.0000 0.69980  0.41530  0.10390  Biso   1.000  H
  C383     1.0000 0.74850  0.42662  0.02882  Biso   1.000  C
  C384     1.0000 0.74780  0.39068  0.01743  Biso   1.000  C
  H288     1.0000 0.74750  0.37070  0.03210  Biso   1.000  H
  Ir1      1.0000 0.50000  0.00000  0.25000  Biso   1.000  Ir
  Ir2      1.0000 0.50000  0.00000  0.75000  Biso   1.000  Ir
  Ir3      1.0000 0.00000  0.50000  0.25000  Biso   1.000  Ir
  Ir4      1.0000 0.25000  0.50000  0.00000  Biso   1.000  Ir
  Ir5      1.0000 0.75000  0.50000  0.00000  Biso   1.000  Ir
  Ir6      1.0000 0.25000  0.00000  0.50000  Biso   1.000  Ir
  Ir7      1.0000 0.00000  0.25000  0.50000  Biso   1.000  Ir
  Ir8      1.0000 0.00000  0.75000  0.50000  Biso   1.000  Ir
  Ir9      1.0000 0.00000  0.50000  0.75000  Biso   1.000  Ir
  Ir10     1.0000 0.50000  0.25000  0.00000  Biso   1.000  Ir
  Ir11     1.0000 0.50000  0.75000  0.00000  Biso   1.000  Ir
  Ir12     1.0000 0.75000  0.00000  0.50000  Biso   1.000  Ir
  Zr1      1.0000 0.70694  0.77136  0.29306  Biso   1.000  Zr
  O97      1.0000 0.74272  0.80780  0.25728  Biso   1.000  O
  Zr2      1.0000 0.20694  0.27136  0.79306  Biso   1.000  Zr
  O98      1.0000 0.24272  0.30780  0.75728  Biso   1.000  O
  Zr3      1.0000 0.29306  0.22864  0.29306  Biso   1.000  Zr
  O99      1.0000 0.25728  0.19220  0.25728  Biso   1.000  O
  Zr4      1.0000 0.79306  0.72864  0.79306  Biso   1.000  Zr
  O100     1.0000 0.75728  0.69220  0.75728  Biso   1.000  O
  Zr5      1.0000 0.29306  0.77136  0.70694  Biso   1.000  Zr
  O101     1.0000 0.25728  0.80780  0.74272  Biso   1.000  O
  Zr6      1.0000 0.79306  0.27136  0.20694  Biso   1.000  Zr
  O102     1.0000 0.75728  0.30780  0.24272  Biso   1.000  O
  Zr7      1.0000 0.70694  0.22864  0.70694  Biso   1.000  Zr
  O103     1.0000 0.74272  0.19220  0.74272  Biso   1.000  O
  Zr8      1.0000 0.20694  0.72864  0.20694  Biso   1.000  Zr
  O104     1.0000 0.24272  0.69220  0.24272  Biso   1.000  O
  Zr9      1.0000 0.29306  0.70694  0.77136  Biso   1.000  Zr
  O105     1.0000 0.25728  0.74272  0.80780  Biso   1.000  O
  Zr10     1.0000 0.79306  0.20694  0.27136  Biso   1.000  Zr
  O106     1.0000 0.75728  0.24272  0.30780  Biso   1.000  O
  Zr11     1.0000 0.29306  0.29306  0.22864  Biso   1.000  Zr
  O107     1.0000 0.25728  0.25728  0.19220  Biso   1.000  O
  Zr12     1.0000 0.79306  0.79306  0.72864  Biso   1.000  Zr
  O108     1.0000 0.75728  0.75728  0.69220  Biso   1.000  O
  Zr13     1.0000 0.70694  0.29306  0.77136  Biso   1.000  Zr
  O109     1.0000 0.74272  0.25728  0.80780  Biso   1.000  O
  Zr14     1.0000 0.20694  0.79306  0.27136  Biso   1.000  Zr
  O110     1.0000 0.24272  0.75728  0.30780  Biso   1.000  O
  Zr15     1.0000 0.70694  0.70694  0.22864  Biso   1.000  Zr
  O111     1.0000 0.74272  0.74272  0.19220  Biso   1.000  O
  Zr16     1.0000 0.20694  0.20694  0.72864  Biso   1.000  Zr
  O112     1.0000 0.24272  0.24272  0.69220  Biso   1.000  O
  Zr17     1.0000 0.77136  0.29306  0.70694  Biso   1.000  Zr
  O113     1.0000 0.80780  0.25728  0.74272  Biso   1.000  O
  Zr18     1.0000 0.27136  0.79306  0.20694  Biso   1.000  Zr
  O114     1.0000 0.30780  0.75728  0.24272  Biso   1.000  O
  Zr19     1.0000 0.22864  0.29306  0.29306  Biso   1.000  Zr
  O115     1.0000 0.19220  0.25728  0.25728  Biso   1.000  O
  Zr20     1.0000 0.72864  0.79306  0.79306  Biso   1.000  Zr
  O116     1.0000 0.69220  0.75728  0.75728  Biso   1.000  O
  Zr21     1.0000 0.77136  0.70694  0.29306  Biso   1.000  Zr
  O117     1.0000 0.80780  0.74272  0.25728  Biso   1.000  O
  Zr22     1.0000 0.27136  0.20694  0.79306  Biso   1.000  Zr
  O118     1.0000 0.30780  0.24272  0.75728  Biso   1.000  O
  Zr23     1.0000 0.22864  0.70694  0.70694  Biso   1.000  Zr
  O119     1.0000 0.19220  0.74272  0.74272  Biso   1.000  O
  Zr24     1.0000 0.72864  0.20694  0.20694  Biso   1.000  Zr
  O120     1.0000 0.69220  0.24272  0.24272  Biso   1.000  O
  Zr25     1.0000 0.77136  0.70694  0.70694  Biso   1.000  Zr
  O121     1.0000 0.80780  0.74272  0.74272  Biso   1.000  O
  Zr26     1.0000 0.27136  0.20694  0.20694  Biso   1.000  Zr
  O122     1.0000 0.30780  0.24272  0.24272  Biso   1.000  O
  Zr27     1.0000 0.22864  0.29306  0.70694  Biso   1.000  Zr
  O123     1.0000 0.19220  0.25728  0.74272  Biso   1.000  O
  Zr28     1.0000 0.72864  0.79306  0.20694  Biso   1.000  Zr
  O124     1.0000 0.69220  0.75728  0.24272  Biso   1.000  O
  Zr29     1.0000 0.77136  0.29306  0.29306  Biso   1.000  Zr
  O125     1.0000 0.80780  0.25728  0.25728  Biso   1.000  O
  Zr30     1.0000 0.27136  0.79306  0.79306  Biso   1.000  Zr
  O126     1.0000 0.30780  0.75728  0.75728  Biso   1.000  O
  Zr31     1.0000 0.22864  0.70694  0.29306  Biso   1.000  Zr
  O127     1.0000 0.19220  0.74272  0.25728  Biso   1.000  O
  Zr32     1.0000 0.72864  0.20694  0.79306  Biso   1.000  Zr
  O128     1.0000 0.69220  0.24272  0.75728  Biso   1.000  O
  Zr33     1.0000 0.70694  0.29306  0.22864  Biso   1.000  Zr
  O129     1.0000 0.74272  0.25728  0.19220  Biso   1.000  O
  Zr34     1.0000 0.20694  0.79306  0.72864  Biso   1.000  Zr
  O130     1.0000 0.24272  0.75728  0.69220  Biso   1.000  O
  Zr35     1.0000 0.29306  0.29306  0.77136  Biso   1.000  Zr
  O131     1.0000 0.25728  0.25728  0.80780  Biso   1.000  O
  Zr36     1.0000 0.79306  0.79306  0.27136  Biso   1.000  Zr
  O132     1.0000 0.75728  0.75728  0.30780  Biso   1.000  O
  Zr37     1.0000 0.29306  0.70694  0.22864  Biso   1.000  Zr
  O133     1.0000 0.25728  0.74272  0.19220  Biso   1.000  O
  Zr38     1.0000 0.79306  0.20694  0.72864  Biso   1.000  Zr
  O134     1.0000 0.75728  0.24272  0.69220  Biso   1.000  O
  Zr39     1.0000 0.70694  0.70694  0.77136  Biso   1.000  Zr
  O135     1.0000 0.74272  0.74272  0.80780  Biso   1.000  O
  Zr40     1.0000 0.20694  0.20694  0.27136  Biso   1.000  Zr
  O136     1.0000 0.24272  0.24272  0.30780  Biso   1.000  O
  Zr41     1.0000 0.29306  0.77136  0.29306  Biso   1.000  Zr
  O137     1.0000 0.25728  0.80780  0.25728  Biso   1.000  O
  Zr42     1.0000 0.79306  0.27136  0.79306  Biso   1.000  Zr
  O138     1.0000 0.75728  0.30780  0.75728  Biso   1.000  O
  Zr43     1.0000 0.29306  0.22864  0.70694  Biso   1.000  Zr
  O139     1.0000 0.25728  0.19220  0.74272  Biso   1.000  O
  Zr44     1.0000 0.79306  0.72864  0.20694  Biso   1.000  Zr
  O140     1.0000 0.75728  0.69220  0.24272  Biso   1.000  O
  Zr45     1.0000 0.70694  0.77136  0.70694  Biso   1.000  Zr
  O141     1.0000 0.74272  0.80780  0.74272  Biso   1.000  O
  Zr46     1.0000 0.20694  0.27136  0.20694  Biso   1.000  Zr
  O142     1.0000 0.24272  0.30780  0.24272  Biso   1.000  O
  Zr47     1.0000 0.70694  0.22864  0.29306  Biso   1.000  Zr
  O143     1.0000 0.74272  0.19220  0.25728  Biso   1.000  O
  Zr48     1.0000 0.20694  0.72864  0.79306  Biso   1.000  Zr
  O144     1.0000 0.24272  0.69220  0.75728  Biso   1.000  O
  N1       1.0000 0.50000  0.94695  0.24970  Biso   1.000  N
  N2       1.0000 0.00000  0.44695  0.74970  Biso   1.000  N
  N3       1.0000 0.50000  0.05305  0.24970  Biso   1.000  N
  N4       1.0000 0.00000  0.55305  0.74970  Biso   1.000  N
  N5       1.0000 0.50000  0.94695  0.75030  Biso   1.000  N
  N6       1.0000 0.00000  0.44695  0.25030  Biso   1.000  N
  N7       1.0000 0.50000  0.05305  0.75030  Biso   1.000  N
  N8       1.0000 0.00000  0.55305  0.25030  Biso   1.000  N
  N9       1.0000 0.24970  0.50000  0.94695  Biso   1.000  N
  N10      1.0000 0.74970  0.00000  0.44695  Biso   1.000  N
  N11      1.0000 0.24970  0.50000  0.05305  Biso   1.000  N
  N12      1.0000 0.74970  0.00000  0.55305  Biso   1.000  N
  N13      1.0000 0.75030  0.50000  0.94695  Biso   1.000  N
  N14      1.0000 0.25030  0.00000  0.44695  Biso   1.000  N
  N15      1.0000 0.75030  0.50000  0.05305  Biso   1.000  N
  N16      1.0000 0.25030  0.00000  0.55305  Biso   1.000  N
  N17      1.0000 0.94695  0.24970  0.50000  Biso   1.000  N
  N18      1.0000 0.44695  0.74970  0.00000  Biso   1.000  N
  N19      1.0000 0.05305  0.24970  0.50000  Biso   1.000  N
  N20      1.0000 0.55305  0.74970  0.00000  Biso   1.000  N
  N21      1.0000 0.94695  0.75030  0.50000  Biso   1.000  N
  N22      1.0000 0.44695  0.25030  0.00000  Biso   1.000  N
  N23      1.0000 0.05305  0.75030  0.50000  Biso   1.000  N
  N24      1.0000 0.55305  0.25030  0.00000  Biso   1.000  N
  N25      1.0000 0.94695  0.50000  0.75030  Biso   1.000  N
  N26      1.0000 0.44695  0.00000  0.25030  Biso   1.000  N
  N27      1.0000 0.05305  0.50000  0.75030  Biso   1.000  N
  N28      1.0000 0.55305  0.00000  0.25030  Biso   1.000  N
  N29      1.0000 0.94695  0.50000  0.24970  Biso   1.000  N
  N30      1.0000 0.44695  0.00000  0.74970  Biso   1.000  N
  N31      1.0000 0.05305  0.50000  0.24970  Biso   1.000  N
  N32      1.0000 0.55305  0.00000  0.74970  Biso   1.000  N
  N33      1.0000 0.50000  0.24970  0.05305  Biso   1.000  N
  N34      1.0000 0.00000  0.74970  0.55305  Biso   1.000  N
  N35      1.0000 0.50000  0.24970  0.94695  Biso   1.000  N
  N36      1.0000 0.00000  0.74970  0.44695  Biso   1.000  N
  N37      1.0000 0.50000  0.75030  0.05305  Biso   1.000  N
  N38      1.0000 0.00000  0.25030  0.55305  Biso   1.000  N
  N39      1.0000 0.50000  0.75030  0.94695  Biso   1.000  N
  N40      1.0000 0.00000  0.25030  0.44695  Biso   1.000  N
  N41      1.0000 0.24970  0.94695  0.50000  Biso   1.000  N
  N42      1.0000 0.74970  0.44695  0.00000  Biso   1.000  N
  N43      1.0000 0.24970  0.05305  0.50000  Biso   1.000  N
  N44      1.0000 0.74970  0.55305  0.00000  Biso   1.000  N
  N45      1.0000 0.75030  0.94695  0.50000  Biso   1.000  N
  N46      1.0000 0.25030  0.44695  0.00000  Biso   1.000  N
  N47      1.0000 0.75030  0.05305  0.50000  Biso   1.000  N
  N48      1.0000 0.25030  0.55305  0.00000  Biso   1.000  N
  O145     1.0000 0.71713  0.71713  0.28287  Biso   1.000  O
  O146     1.0000 0.21713  0.21713  0.78287  Biso   1.000  O
  O147     1.0000 0.28287  0.28287  0.28287  Biso   1.000  O
  O148     1.0000 0.78287  0.78287  0.78287  Biso   1.000  O
  O149     1.0000 0.28287  0.71713  0.71713  Biso   1.000  O
  O150     1.0000 0.78287  0.21713  0.21713  Biso   1.000  O
  O151     1.0000 0.71713  0.28287  0.71713  Biso   1.000  O
  O152     1.0000 0.21713  0.78287  0.21713  Biso   1.000  O
  O153     1.0000 0.71713  0.71713  0.71713  Biso   1.000  O
  O154     1.0000 0.21713  0.21713  0.21713  Biso   1.000  O
  O155     1.0000 0.28287  0.28287  0.71713  Biso   1.000  O
  O156     1.0000 0.78287  0.78287  0.21713  Biso   1.000  O
  O157     1.0000 0.71713  0.28287  0.28287  Biso   1.000  O
  O158     1.0000 0.21713  0.78287  0.78287  Biso   1.000  O
  O159     1.0000 0.28287  0.71713  0.28287  Biso   1.000  O
  O160     1.0000 0.78287  0.21713  0.78287  Biso   1.000  O
  Cl1      1.0000 0.50000  0.00000  0.18990  Biso   1.000  Cl
  Cl2      1.0000 0.00000  0.50000  0.68990  Biso   1.000  Cl
  Cl3      1.0000 0.50000  0.00000  0.81010  Biso   1.000  Cl
  Cl4      1.0000 0.00000  0.50000  0.31010  Biso   1.000  Cl
  Cl5      1.0000 0.18990  0.50000  0.00000  Biso   1.000  Cl
  Cl6      1.0000 0.68990  0.00000  0.50000  Biso   1.000  Cl
  Cl7      1.0000 0.81010  0.50000  0.00000  Biso   1.000  Cl
  Cl8      1.0000 0.31010  0.00000  0.50000  Biso   1.000  Cl
  Cl9      1.0000 0.00000  0.18990  0.50000  Biso   1.000  Cl
  Cl10     1.0000 0.50000  0.68990  0.00000  Biso   1.000  Cl
  Cl11     1.0000 0.00000  0.81010  0.50000  Biso   1.000  Cl
  Cl12     1.0000 0.50000  0.31010  0.00000  Biso   1.000  Cl
  Cl13     1.0000 0.00000  0.50000  0.81010  Biso   1.000  Cl
  Cl14     1.0000 0.50000  0.00000  0.31010  Biso   1.000  Cl
  Cl15     1.0000 0.00000  0.50000  0.18990  Biso   1.000  Cl
  Cl16     1.0000 0.50000  0.00000  0.68990  Biso   1.000  Cl
  Cl17     1.0000 0.50000  0.18990  0.00000  Biso   1.000  Cl
  Cl18     1.0000 0.00000  0.68990  0.50000  Biso   1.000  Cl
  Cl19     1.0000 0.50000  0.81010  0.00000  Biso   1.000  Cl
  Cl20     1.0000 0.00000  0.31010  0.50000  Biso   1.000  Cl
  Cl21     1.0000 0.18990  0.00000  0.50000  Biso   1.000  Cl
  Cl22     1.0000 0.68990  0.50000  0.00000  Biso   1.000  Cl
  Cl23     1.0000 0.81010  0.00000  0.50000  Biso   1.000  Cl
  Cl24     1.0000 0.31010  0.50000  0.00000  Biso   1.000  Cl
  C385     1.0000 0.66931  0.83069  0.25000  Biso   1.000  C
  C386     1.0000 0.64101  0.85899  0.25000  Biso   1.000  C
  C387     1.0000 0.59039  0.90961  0.25000  Biso   1.000  C
  C388     1.0000 0.56278  0.93722  0.25000  Biso   1.000  C
  C389     1.0000 0.33069  0.16931  0.25000  Biso   1.000  C
  C390     1.0000 0.35899  0.14101  0.25000  Biso   1.000  C
  C391     1.0000 0.40961  0.09039  0.25000  Biso   1.000  C
  C392     1.0000 0.43722  0.06278  0.25000  Biso   1.000  C
  C393     1.0000 0.33069  0.83069  0.75000  Biso   1.000  C
  C394     1.0000 0.35899  0.85899  0.75000  Biso   1.000  C
  C395     1.0000 0.40961  0.90961  0.75000  Biso   1.000  C
  C396     1.0000 0.43722  0.93722  0.75000  Biso   1.000  C
  C397     1.0000 0.66931  0.16931  0.75000  Biso   1.000  C
  C398     1.0000 0.64101  0.14101  0.75000  Biso   1.000  C
  C399     1.0000 0.59039  0.09039  0.75000  Biso   1.000  C
  C400     1.0000 0.56278  0.06278  0.75000  Biso   1.000  C
  C401     1.0000 0.25000  0.66931  0.83069  Biso   1.000  C
  C402     1.0000 0.25000  0.64101  0.85899  Biso   1.000  C
  C403     1.0000 0.25000  0.59039  0.90961  Biso   1.000  C
  C404     1.0000 0.25000  0.56278  0.93722  Biso   1.000  C
  C405     1.0000 0.25000  0.33069  0.16931  Biso   1.000  C
  C406     1.0000 0.25000  0.35899  0.14101  Biso   1.000  C
  C407     1.0000 0.25000  0.40961  0.09039  Biso   1.000  C
  C408     1.0000 0.25000  0.43722  0.06278  Biso   1.000  C
  C409     1.0000 0.75000  0.33069  0.83069  Biso   1.000  C
  C410     1.0000 0.75000  0.35899  0.85899  Biso   1.000  C
  C411     1.0000 0.75000  0.40961  0.90961  Biso   1.000  C
  C412     1.0000 0.75000  0.43722  0.93722  Biso   1.000  C
  C413     1.0000 0.75000  0.66931  0.16931  Biso   1.000  C
  C414     1.0000 0.75000  0.64101  0.14101  Biso   1.000  C
  C415     1.0000 0.75000  0.59039  0.09039  Biso   1.000  C
  C416     1.0000 0.75000  0.56278  0.06278  Biso   1.000  C
  C417     1.0000 0.83069  0.25000  0.66931  Biso   1.000  C
  C418     1.0000 0.85899  0.25000  0.64101  Biso   1.000  C
  C419     1.0000 0.90961  0.25000  0.59039  Biso   1.000  C
  C420     1.0000 0.93722  0.25000  0.56278  Biso   1.000  C
  C421     1.0000 0.16931  0.25000  0.33069  Biso   1.000  C
  C422     1.0000 0.14101  0.25000  0.35899  Biso   1.000  C
  C423     1.0000 0.09039  0.25000  0.40961  Biso   1.000  C
  C424     1.0000 0.06278  0.25000  0.43722  Biso   1.000  C
  C425     1.0000 0.83069  0.75000  0.33069  Biso   1.000  C
  C426     1.0000 0.85899  0.75000  0.35899  Biso   1.000  C
  C427     1.0000 0.90961  0.75000  0.40961  Biso   1.000  C
  C428     1.0000 0.93722  0.75000  0.43722  Biso   1.000  C
  C429     1.0000 0.16931  0.75000  0.66931  Biso   1.000  C
  C430     1.0000 0.14101  0.75000  0.64101  Biso   1.000  C
  C431     1.0000 0.09039  0.75000  0.59039  Biso   1.000  C
  C432     1.0000 0.06278  0.75000  0.56278  Biso   1.000  C
  C433     1.0000 0.83069  0.66931  0.75000  Biso   1.000  C
  C434     1.0000 0.85899  0.64101  0.75000  Biso   1.000  C
  C435     1.0000 0.90961  0.59039  0.75000  Biso   1.000  C
  C436     1.0000 0.93722  0.56278  0.75000  Biso   1.000  C
  C437     1.0000 0.16931  0.33069  0.75000  Biso   1.000  C
  C438     1.0000 0.14101  0.35899  0.75000  Biso   1.000  C
  C439     1.0000 0.09039  0.40961  0.75000  Biso   1.000  C
  C440     1.0000 0.06278  0.43722  0.75000  Biso   1.000  C
  C441     1.0000 0.83069  0.33069  0.25000  Biso   1.000  C
  C442     1.0000 0.85899  0.35899  0.25000  Biso   1.000  C
  C443     1.0000 0.90961  0.40961  0.25000  Biso   1.000  C
  C444     1.0000 0.93722  0.43722  0.25000  Biso   1.000  C
  C445     1.0000 0.16931  0.66931  0.25000  Biso   1.000  C
  C446     1.0000 0.14101  0.64101  0.25000  Biso   1.000  C
  C447     1.0000 0.09039  0.59039  0.25000  Biso   1.000  C
  C448     1.0000 0.06278  0.56278  0.25000  Biso   1.000  C
  C449     1.0000 0.66931  0.25000  0.16931  Biso   1.000  C
  C450     1.0000 0.64101  0.25000  0.14101  Biso   1.000  C
  C451     1.0000 0.59039  0.25000  0.09039  Biso   1.000  C
  C452     1.0000 0.56278  0.25000  0.06278  Biso   1.000  C
  C453     1.0000 0.33069  0.25000  0.83069  Biso   1.000  C
  C454     1.0000 0.35899  0.25000  0.85899  Biso   1.000  C
  C455     1.0000 0.40961  0.25000  0.90961  Biso   1.000  C
  C456     1.0000 0.43722  0.25000  0.93722  Biso   1.000  C
  C457     1.0000 0.33069  0.75000  0.16931  Biso   1.000  C
  C458     1.0000 0.35899  0.75000  0.14101  Biso   1.000  C
  C459     1.0000 0.40961  0.75000  0.09039  Biso   1.000  C
  C460     1.0000 0.43722  0.75000  0.06278  Biso   1.000  C
  C461     1.0000 0.66931  0.75000  0.83069  Biso   1.000  C
  C462     1.0000 0.64101  0.75000  0.85899  Biso   1.000  C
  C463     1.0000 0.59039  0.75000  0.90961  Biso   1.000  C
  C464     1.0000 0.56278  0.75000  0.93722  Biso   1.000  C
  C465     1.0000 0.25000  0.83069  0.33069  Biso   1.000  C
  C466     1.0000 0.25000  0.85899  0.35899  Biso   1.000  C
  C467     1.0000 0.25000  0.90961  0.40961  Biso   1.000  C
  C468     1.0000 0.25000  0.93722  0.43722  Biso   1.000  C
  C469     1.0000 0.25000  0.16931  0.66931  Biso   1.000  C
  C470     1.0000 0.25000  0.14101  0.64101  Biso   1.000  C
  C471     1.0000 0.25000  0.09039  0.59039  Biso   1.000  C
  C472     1.0000 0.25000  0.06278  0.56278  Biso   1.000  C
  C473     1.0000 0.75000  0.83069  0.66931  Biso   1.000  C
  C474     1.0000 0.75000  0.85899  0.64101  Biso   1.000  C
  C475     1.0000 0.75000  0.90961  0.59039  Biso   1.000  C
  C476     1.0000 0.75000  0.93722  0.56278  Biso   1.000  C
  C477     1.0000 0.75000  0.16931  0.33069  Biso   1.000  C
  C478     1.0000 0.75000  0.14101  0.35899  Biso   1.000  C
  C479     1.0000 0.75000  0.09039  0.40961  Biso   1.000  C
  C480     1.0000 0.75000  0.06278  0.43722  Biso   1.000  C
  C481     1.0000 0.33069  0.16931  0.75000  Biso   1.000  C
  C482     1.0000 0.35899  0.14101  0.75000  Biso   1.000  C
  C483     1.0000 0.40961  0.09039  0.75000  Biso   1.000  C
  C484     1.0000 0.43722  0.06278  0.75000  Biso   1.000  C
  C485     1.0000 0.66931  0.83069  0.75000  Biso   1.000  C
  C486     1.0000 0.64101  0.85899  0.75000  Biso   1.000  C
  C487     1.0000 0.59039  0.90961  0.75000  Biso   1.000  C
  C488     1.0000 0.56278  0.93722  0.75000  Biso   1.000  C
  C489     1.0000 0.66931  0.16931  0.25000  Biso   1.000  C
  C490     1.0000 0.64101  0.14101  0.25000  Biso   1.000  C
  C491     1.0000 0.59039  0.09039  0.25000  Biso   1.000  C
  C492     1.0000 0.56278  0.06278  0.25000  Biso   1.000  C
  C493     1.0000 0.33069  0.83069  0.25000  Biso   1.000  C
  C494     1.0000 0.35899  0.85899  0.25000  Biso   1.000  C
  C495     1.0000 0.40961  0.90961  0.25000  Biso   1.000  C
  C496     1.0000 0.43722  0.93722  0.25000  Biso   1.000  C
  C497     1.0000 0.75000  0.33069  0.16931  Biso   1.000  C
  C498     1.0000 0.75000  0.35899  0.14101  Biso   1.000  C
  C499     1.0000 0.75000  0.40961  0.09039  Biso   1.000  C
  C500     1.0000 0.75000  0.43722  0.06278  Biso   1.000  C
  C501     1.0000 0.75000  0.66931  0.83069  Biso   1.000  C
  C502     1.0000 0.75000  0.64101  0.85899  Biso   1.000  C
  C503     1.0000 0.75000  0.59039  0.90961  Biso   1.000  C
  C504     1.0000 0.75000  0.56278  0.93722  Biso   1.000  C
  C505     1.0000 0.25000  0.66931  0.16931  Biso   1.000  C
  C506     1.0000 0.25000  0.64101  0.14101  Biso   1.000  C
  C507     1.0000 0.25000  0.59039  0.09039  Biso   1.000  C
  C508     1.0000 0.25000  0.56278  0.06278  Biso   1.000  C
  C509     1.0000 0.25000  0.33069  0.83069  Biso   1.000  C
  C510     1.0000 0.25000  0.35899  0.85899  Biso   1.000  C
  C511     1.0000 0.25000  0.40961  0.90961  Biso   1.000  C
  C512     1.0000 0.25000  0.43722  0.93722  Biso   1.000  C
  C513     1.0000 0.16931  0.75000  0.33069  Biso   1.000  C
  C514     1.0000 0.14101  0.75000  0.35899  Biso   1.000  C
  C515     1.0000 0.09039  0.75000  0.40961  Biso   1.000  C
  C516     1.0000 0.06278  0.75000  0.43722  Biso   1.000  C
  C517     1.0000 0.83069  0.75000  0.66931  Biso   1.000  C
  C518     1.0000 0.85899  0.75000  0.64101  Biso   1.000  C
  C519     1.0000 0.90961  0.75000  0.59039  Biso   1.000  C
  C520     1.0000 0.93722  0.75000  0.56278  Biso   1.000  C
  C521     1.0000 0.16931  0.25000  0.66931  Biso   1.000  C
  C522     1.0000 0.14101  0.25000  0.64101  Biso   1.000  C
  C523     1.0000 0.09039  0.25000  0.59039  Biso   1.000  C
  C524     1.0000 0.06278  0.25000  0.56278  Biso   1.000  C
  C525     1.0000 0.83069  0.25000  0.33069  Biso   1.000  C
  C526     1.0000 0.85899  0.25000  0.35899  Biso   1.000  C
  C527     1.0000 0.90961  0.25000  0.40961  Biso   1.000  C
  C528     1.0000 0.93722  0.25000  0.43722  Biso   1.000  C
  C529     1.0000 0.16931  0.33069  0.25000  Biso   1.000  C
  C530     1.0000 0.14101  0.35899  0.25000  Biso   1.000  C
  C531     1.0000 0.09039  0.40961  0.25000  Biso   1.000  C
  C532     1.0000 0.06278  0.43722  0.25000  Biso   1.000  C
  C533     1.0000 0.83069  0.66931  0.25000  Biso   1.000  C
  C534     1.0000 0.85899  0.64101  0.25000  Biso   1.000  C
  C535     1.0000 0.90961  0.59039  0.25000  Biso   1.000  C
  C536     1.0000 0.93722  0.56278  0.25000  Biso   1.000  C
  C537     1.0000 0.16931  0.66931  0.75000  Biso   1.000  C
  C538     1.0000 0.14101  0.64101  0.75000  Biso   1.000  C
  C539     1.0000 0.09039  0.59039  0.75000  Biso   1.000  C
  C540     1.0000 0.06278  0.56278  0.75000  Biso   1.000  C
  C541     1.0000 0.83069  0.33069  0.75000  Biso   1.000  C
  C542     1.0000 0.85899  0.35899  0.75000  Biso   1.000  C
  C543     1.0000 0.90961  0.40961  0.75000  Biso   1.000  C
  C544     1.0000 0.93722  0.43722  0.75000  Biso   1.000  C
  C545     1.0000 0.33069  0.75000  0.83069  Biso   1.000  C
  C546     1.0000 0.35899  0.75000  0.85899  Biso   1.000  C
  C547     1.0000 0.40961  0.75000  0.90961  Biso   1.000  C
  C548     1.0000 0.43722  0.75000  0.93722  Biso   1.000  C
  C549     1.0000 0.66931  0.75000  0.16931  Biso   1.000  C
  C550     1.0000 0.64101  0.75000  0.14101  Biso   1.000  C
  C551     1.0000 0.59039  0.75000  0.09039  Biso   1.000  C
  C552     1.0000 0.56278  0.75000  0.06278  Biso   1.000  C
  C553     1.0000 0.66931  0.25000  0.83069  Biso   1.000  C
  C554     1.0000 0.64101  0.25000  0.85899  Biso   1.000  C
  C555     1.0000 0.59039  0.25000  0.90961  Biso   1.000  C
  C556     1.0000 0.56278  0.25000  0.93722  Biso   1.000  C
  C557     1.0000 0.33069  0.25000  0.16931  Biso   1.000  C
  C558     1.0000 0.35899  0.25000  0.14101  Biso   1.000  C
  C559     1.0000 0.40961  0.25000  0.09039  Biso   1.000  C
  C560     1.0000 0.43722  0.25000  0.06278  Biso   1.000  C
  C561     1.0000 0.75000  0.16931  0.66931  Biso   1.000  C
  C562     1.0000 0.75000  0.14101  0.64101  Biso   1.000  C
  C563     1.0000 0.75000  0.09039  0.59039  Biso   1.000  C
  C564     1.0000 0.75000  0.06278  0.56278  Biso   1.000  C
  C565     1.0000 0.75000  0.83069  0.33069  Biso   1.000  C
  C566     1.0000 0.75000  0.85899  0.35899  Biso   1.000  C
  C567     1.0000 0.75000  0.90961  0.40961  Biso   1.000  C
  C568     1.0000 0.75000  0.93722  0.43722  Biso   1.000  C
  C569     1.0000 0.25000  0.16931  0.33069  Biso   1.000  C
  C570     1.0000 0.25000  0.14101  0.35899  Biso   1.000  C
  C571     1.0000 0.25000  0.09039  0.40961  Biso   1.000  C
  C572     1.0000 0.25000  0.06278  0.43722  Biso   1.000  C
  C573     1.0000 0.25000  0.83069  0.66931  Biso   1.000  C
  C574     1.0000 0.25000  0.85899  0.64101  Biso   1.000  C
  C575     1.0000 0.25000  0.90961  0.59039  Biso   1.000  C
  C576     1.0000 0.25000  0.93722  0.56278  Biso   1.000  C
