data_image0
_cell_length_a       88.79
_cell_length_b       13.988
_cell_length_c       27.888
_cell_angle_alpha    90
_cell_angle_beta     90
_cell_angle_gamma    90

_symmetry_space_group_name_H-M    "P 1"
_symmetry_int_tables_number       1

loop_
  _symmetry_equiv_pos_as_xyz
  'x, y, z'

loop_
  _atom_site_label
  _atom_site_occupancy
  _atom_site_fract_x
  _atom_site_fract_y
  _atom_site_fract_z
  _atom_site_thermal_displace_type
  _atom_site_B_iso_or_equiv
  _atom_site_type_symbol
  C1       1.0000 0.13950  0.12920  0.39180  Biso   1.000  C
  H1       1.0000 0.12960  0.12490  0.40270  Biso   1.000  H
  C2       1.0000 0.14850  0.05660  0.39950  Biso   1.000  C
  H2       1.0000 0.14460  0.99910  0.41040  Biso   1.000  H
  C3       1.0000 0.16470  0.06390  0.39140  Biso   1.000  C
  H3       1.0000 0.17120  0.01660  0.40220  Biso   1.000  H
  C4       1.0000 0.17010  0.14350  0.36700  Biso   1.000  C
  H4       1.0000 0.18020  0.14580  0.35880  Biso   1.000  H
  C5       1.0000 0.18260  0.31960  0.32840  Biso   1.000  C
  C6       1.0000 0.19110  0.26750  0.29300  Biso   1.000  C
  H5       1.0000 0.18620  0.22000  0.27560  Biso   1.000  H
  C7       1.0000 0.20620  0.28480  0.28320  Biso   1.000  C
  H6       1.0000 0.21090  0.25410  0.25760  Biso   1.000  H
  C8       1.0000 0.21420  0.34660  0.31120  Biso   1.000  C
  C9       1.0000 0.20610  0.39880  0.35040  Biso   1.000  C
  H7       1.0000 0.21130  0.44210  0.36970  Biso   1.000  H
  C10      1.0000 0.19160  0.38260  0.35720  Biso   1.000  C
  H8       1.0000 0.18680  0.41420  0.38240  Biso   1.000  H
  C11      1.0000 0.22980  0.36810  0.30180  Biso   1.000  C
  C12      1.0000 0.23070  0.44810  0.19950  Biso   1.000  C
  C13      1.0000 0.21280  0.47180  0.18590  Biso   1.000  C
  C14      1.0000 0.20560  0.43180  0.15480  Biso   1.000  C
  H9       1.0000 0.21050  0.38390  0.13770  Biso   1.000  H
  C15      1.0000 0.19140  0.45000  0.14300  Biso   1.000  C
  H10      1.0000 0.18730  0.42170  0.11580  Biso   1.000  H
  C16      1.0000 0.18240  0.51280  0.17150  Biso   1.000  C
  C17      1.0000 0.19060  0.55880  0.20920  Biso   1.000  C
  H11      1.0000 0.18540  0.59970  0.22960  Biso   1.000  H
  C18      1.0000 0.20550  0.54650  0.21700  Biso   1.000  C
  H12      1.0000 0.21080  0.58140  0.23980  Biso   1.000  H
  C19      1.0000 0.15630  0.44720  0.17370  Biso   1.000  C
  C20      1.0000 0.14030  0.45910  0.15930  Biso   1.000  C
  C21      1.0000 0.13510  0.54210  0.14410  Biso   1.000  C
  C22      1.0000 0.14460  0.62170  0.13690  Biso   1.000  C
  C23      1.0000 0.16110  0.61730  0.14410  Biso   1.000  C
  C24      1.0000 0.16600  0.52360  0.16420  Biso   1.000  C
  C25      1.0000 0.16140  0.36000  0.19690  Biso   1.000  C
  H13      1.0000 0.17120  0.35830  0.20840  Biso   1.000  H
  C26      1.0000 0.15290  0.28240  0.20290  Biso   1.000  C
  H14      1.0000 0.15680  0.22560  0.21520  Biso   1.000  H
  C27      1.0000 0.13740  0.29270  0.18890  Biso   1.000  C
  H15      1.0000 0.13110  0.24020  0.19290  Biso   1.000  H
  C28      1.0000 0.13130  0.37420  0.17030  Biso   1.000  C
  H16      1.0000 0.12100  0.37600  0.16450  Biso   1.000  H
  C29      1.0000 0.13910  0.70860  0.11830  Biso   1.000  C
  H17      1.0000 0.12890  0.71500  0.11270  Biso   1.000  H
  C30      1.0000 0.14860  0.78580  0.10800  Biso   1.000  C
  H18      1.0000 0.14480  0.84340  0.09650  Biso   1.000  H
  C31      1.0000 0.16520  0.77160  0.11660  Biso   1.000  C
  H19      1.0000 0.17190  0.82030  0.10840  Biso   1.000  H
  C32      1.0000 0.17050  0.69250  0.13520  Biso   1.000  C
  H20      1.0000 0.18070  0.68750  0.14230  Biso   1.000  H
  C33      1.0000 0.11830  0.54850  0.13160  Biso   1.000  C
  C34      1.0000 0.10720  0.55600  0.17110  Biso   1.000  C
  C35      1.0000 0.09170  0.55240  0.16020  Biso   1.000  C
  C36      1.0000 0.08620  0.54350  0.11120  Biso   1.000  C
  C37      1.0000 0.09780  0.54590  0.07290  Biso   1.000  C
  C38      1.0000 0.11290  0.54570  0.08870  Biso   1.000  C
  C39      1.0000 0.12430  0.54410  0.04580  Biso   1.000  C
  H21      1.0000 0.13460  0.54570  0.05120  Biso   1.000  H
  C40      1.0000 0.11880  0.54030  0.00070  Biso   1.000  C
  H22      1.0000 0.12570  0.53900  0.97570  Biso   1.000  H
  C41      1.0000 0.10330  0.53820  0.98870  Biso   1.000  C
  H23      1.0000 0.10030  0.53190  0.95690  Biso   1.000  H
  C42      1.0000 0.09370  0.54510  0.02180  Biso   1.000  C
  H24      1.0000 0.08360  0.54980  0.01360  Biso   1.000  H
  C43      1.0000 0.11130  0.56140  0.22130  Biso   1.000  C
  H25      1.0000 0.12140  0.55920  0.23000  Biso   1.000  H
  C44      1.0000 0.10090  0.56930  0.25500  Biso   1.000  C
  H26      1.0000 0.10360  0.58080  0.28660  Biso   1.000  H
  C45      1.0000 0.08590  0.56060  0.24300  Biso   1.000  C
  H27      1.0000 0.07910  0.55540  0.26830  Biso   1.000  H
  C46      1.0000 0.08030  0.55870  0.20060  Biso   1.000  C
  H28      1.0000 0.07000  0.56110  0.19510  Biso   1.000  H
  C47      1.0000 0.07030  0.53340  0.09710  Biso   1.000  C
  C48      1.0000 0.06440  0.44930  0.09890  Biso   1.000  C
  H29      1.0000 0.07000  0.39880  0.11140  Biso   1.000  H
  C49      1.0000 0.04990  0.43270  0.08260  Biso   1.000  C
  H30      1.0000 0.04650  0.37010  0.08010  Biso   1.000  H
  C50      1.0000 0.04030  0.50640  0.06980  Biso   1.000  C
  C51      1.0000 0.04710  0.59650  0.06990  Biso   1.000  C
  H31      1.0000 0.04180  0.64850  0.05780  Biso   1.000  H
  C52      1.0000 0.06130  0.61100  0.08710  Biso   1.000  C
  H32      1.0000 0.06490  0.67270  0.09200  Biso   1.000  H
  C53      1.0000 0.02470  0.48670  0.05320  Biso   1.000  C
  C54      1.0000 0.16670  0.30290  0.33770  Biso   1.000  C
  C55      1.0000 0.16060  0.22180  0.35410  Biso   1.000  C
  C56      1.0000 0.14410  0.21450  0.36740  Biso   1.000  C
  C57      1.0000 0.13510  0.29060  0.35960  Biso   1.000  C
  C58      1.0000 0.14070  0.37590  0.33720  Biso   1.000  C
  C59      1.0000 0.15760  0.38600  0.32770  Biso   1.000  C
  C60      1.0000 0.16230  0.47440  0.30580  Biso   1.000  C
  H33      1.0000 0.17220  0.48250  0.29570  Biso   1.000  H
  C61      1.0000 0.15230  0.54410  0.30010  Biso   1.000  C
  H34      1.0000 0.15560  0.60000  0.28550  Biso   1.000  H
  C62      1.0000 0.13780  0.54020  0.31380  Biso   1.000  C
  H35      1.0000 0.13170  0.59370  0.31000  Biso   1.000  H
  C63      1.0000 0.13230  0.46480  0.33200  Biso   1.000  C
  H36      1.0000 0.12240  0.46620  0.34250  Biso   1.000  H
  C64      1.0000 0.11910  0.28300  0.37110  Biso   1.000  C
  C65      1.0000 0.11430  0.28480  0.42150  Biso   1.000  C
  C66      1.0000 0.09920  0.28540  0.43490  Biso   1.000  C
  C67      1.0000 0.08810  0.28350  0.40030  Biso   1.000  C
  C68      1.0000 0.09110  0.28210  0.34990  Biso   1.000  C
  C69      1.0000 0.10740  0.28430  0.33910  Biso   1.000  C
  C70      1.0000 0.11180  0.27600  0.28870  Biso   1.000  C
  H37      1.0000 0.12190  0.27230  0.28010  Biso   1.000  H
  C71      1.0000 0.09990  0.27490  0.25230  Biso   1.000  C
  H38      1.0000 0.10250  0.27020  0.22000  Biso   1.000  H
  C72      1.0000 0.08500  0.28050  0.26580  Biso   1.000  C
  H39      1.0000 0.07750  0.28460  0.24280  Biso   1.000  H
  C73      1.0000 0.08150  0.27990  0.31500  Biso   1.000  C
  H40      1.0000 0.07130  0.27790  0.32310  Biso   1.000  H
  C74      1.0000 0.09490  0.28680  0.48340  Biso   1.000  C
  H41      1.0000 0.08480  0.28210  0.49210  Biso   1.000  H
  C75      1.0000 0.10660  0.29580  0.51960  Biso   1.000  C
  H42      1.0000 0.10430  0.30040  0.55210  Biso   1.000  H
  C76      1.0000 0.12200  0.29720  0.50300  Biso   1.000  C
  H43      1.0000 0.12940  0.30080  0.52640  Biso   1.000  H
  C77      1.0000 0.12640  0.29420  0.46010  Biso   1.000  C
  H44      1.0000 0.13660  0.29750  0.45230  Biso   1.000  H
  C78      1.0000 0.07090  0.29090  0.41580  Biso   1.000  C
  C79      1.0000 0.06450  0.21270  0.43470  Biso   1.000  C
  H45      1.0000 0.06970  0.15500  0.43660  Biso   1.000  H
  C80      1.0000 0.04940  0.22190  0.45180  Biso   1.000  C
  H46      1.0000 0.04490  0.17010  0.46710  Biso   1.000  H
  C81      1.0000 0.04150  0.30270  0.44640  Biso   1.000  C
  C82      1.0000 0.04910  0.37830  0.42430  Biso   1.000  C
  H47      1.0000 0.04370  0.43350  0.41740  Biso   1.000  H
  C83      1.0000 0.06390  0.37590  0.41240  Biso   1.000  C
  H48      1.0000 0.06900  0.43050  0.40230  Biso   1.000  H
  C84      1.0000 0.02530  0.31510  0.46450  Biso   1.000  C
  O1       1.0000 0.23670  0.50820  0.22880  Biso   1.000  O
  O2       1.0000 0.23460  0.36980  0.18190  Biso   1.000  O
  O3       1.0000 0.01650  0.56160  0.05510  Biso   1.000  O
  O4       1.0000 0.02026  0.41240  0.04520  Biso   1.000  O
  O5       1.0000 0.01851  0.38880  0.45790  Biso   1.000  O
  O6       1.0000 0.01990  0.24280  0.48650  Biso   1.000  O
  O7       1.0000 0.23660  0.44070  0.32140  Biso   1.000  O
  O8       1.0000 0.23750  0.31490  0.27580  Biso   1.000  O
  Tb1      1.0000 0.25101  0.56192  0.28702  Biso   1.000  Tb
  C85      1.0000 0.13950  0.62920  0.89180  Biso   1.000  C
  H49      1.0000 0.12960  0.62490  0.90270  Biso   1.000  H
  C86      1.0000 0.14850  0.55660  0.89950  Biso   1.000  C
  H50      1.0000 0.14460  0.49910  0.91040  Biso   1.000  H
  C87      1.0000 0.16470  0.56390  0.89140  Biso   1.000  C
  H51      1.0000 0.17120  0.51660  0.90220  Biso   1.000  H
  C88      1.0000 0.17010  0.64350  0.86700  Biso   1.000  C
  H52      1.0000 0.18020  0.64580  0.85880  Biso   1.000  H
  C89      1.0000 0.18260  0.81960  0.82840  Biso   1.000  C
  C90      1.0000 0.19110  0.76750  0.79300  Biso   1.000  C
  H53      1.0000 0.18620  0.72000  0.77560  Biso   1.000  H
  C91      1.0000 0.20620  0.78480  0.78320  Biso   1.000  C
  H54      1.0000 0.21090  0.75410  0.75760  Biso   1.000  H
  C92      1.0000 0.21420  0.84660  0.81120  Biso   1.000  C
  C93      1.0000 0.20610  0.89880  0.85040  Biso   1.000  C
  H55      1.0000 0.21130  0.94210  0.86970  Biso   1.000  H
  C94      1.0000 0.19160  0.88260  0.85720  Biso   1.000  C
  H56      1.0000 0.18680  0.91420  0.88240  Biso   1.000  H
  C95      1.0000 0.22980  0.86810  0.80180  Biso   1.000  C
  C96      1.0000 0.23070  0.94810  0.69950  Biso   1.000  C
  C97      1.0000 0.21280  0.97180  0.68590  Biso   1.000  C
  C98      1.0000 0.20560  0.93180  0.65480  Biso   1.000  C
  H57      1.0000 0.21050  0.88390  0.63770  Biso   1.000  H
  C99      1.0000 0.19140  0.95000  0.64300  Biso   1.000  C
  H58      1.0000 0.18730  0.92170  0.61580  Biso   1.000  H
  C100     1.0000 0.18240  0.01280  0.67150  Biso   1.000  C
  C101     1.0000 0.19060  0.05880  0.70920  Biso   1.000  C
  H59      1.0000 0.18540  0.09970  0.72960  Biso   1.000  H
  C102     1.0000 0.20550  0.04650  0.71700  Biso   1.000  C
  H60      1.0000 0.21080  0.08140  0.73980  Biso   1.000  H
  C103     1.0000 0.15630  0.94720  0.67370  Biso   1.000  C
  C104     1.0000 0.14030  0.95910  0.65930  Biso   1.000  C
  C105     1.0000 0.13510  0.04210  0.64410  Biso   1.000  C
  C106     1.0000 0.14460  0.12170  0.63690  Biso   1.000  C
  C107     1.0000 0.16110  0.11730  0.64410  Biso   1.000  C
  C108     1.0000 0.16600  0.02360  0.66420  Biso   1.000  C
  C109     1.0000 0.16140  0.86000  0.69690  Biso   1.000  C
  H61      1.0000 0.17120  0.85830  0.70840  Biso   1.000  H
  C110     1.0000 0.15290  0.78240  0.70290  Biso   1.000  C
  H62      1.0000 0.15680  0.72560  0.71520  Biso   1.000  H
  C111     1.0000 0.13740  0.79270  0.68890  Biso   1.000  C
  H63      1.0000 0.13110  0.74020  0.69290  Biso   1.000  H
  C112     1.0000 0.13130  0.87420  0.67030  Biso   1.000  C
  H64      1.0000 0.12100  0.87600  0.66450  Biso   1.000  H
  C113     1.0000 0.13910  0.20860  0.61830  Biso   1.000  C
  H65      1.0000 0.12890  0.21500  0.61270  Biso   1.000  H
  C114     1.0000 0.14860  0.28580  0.60800  Biso   1.000  C
  H66      1.0000 0.14480  0.34340  0.59650  Biso   1.000  H
  C115     1.0000 0.16520  0.27160  0.61660  Biso   1.000  C
  H67      1.0000 0.17190  0.32030  0.60840  Biso   1.000  H
  C116     1.0000 0.17050  0.19250  0.63520  Biso   1.000  C
  H68      1.0000 0.18070  0.18750  0.64230  Biso   1.000  H
  C117     1.0000 0.11830  0.04850  0.63160  Biso   1.000  C
  C118     1.0000 0.10720  0.05600  0.67110  Biso   1.000  C
  C119     1.0000 0.09170  0.05240  0.66020  Biso   1.000  C
  C120     1.0000 0.08620  0.04350  0.61120  Biso   1.000  C
  C121     1.0000 0.09780  0.04590  0.57290  Biso   1.000  C
  C122     1.0000 0.11290  0.04570  0.58870  Biso   1.000  C
  C123     1.0000 0.12430  0.04410  0.54580  Biso   1.000  C
  H69      1.0000 0.13460  0.04570  0.55120  Biso   1.000  H
  C124     1.0000 0.11880  0.04030  0.50070  Biso   1.000  C
  H70      1.0000 0.12570  0.03900  0.47570  Biso   1.000  H
  C125     1.0000 0.10330  0.03820  0.48870  Biso   1.000  C
  H71      1.0000 0.10030  0.03190  0.45690  Biso   1.000  H
  C126     1.0000 0.09370  0.04510  0.52180  Biso   1.000  C
  H72      1.0000 0.08360  0.04980  0.51360  Biso   1.000  H
  C127     1.0000 0.11130  0.06140  0.72130  Biso   1.000  C
  H73      1.0000 0.12140  0.05920  0.73000  Biso   1.000  H
  C128     1.0000 0.10090  0.06930  0.75500  Biso   1.000  C
  H74      1.0000 0.10360  0.08080  0.78660  Biso   1.000  H
  C129     1.0000 0.08590  0.06060  0.74300  Biso   1.000  C
  H75      1.0000 0.07910  0.05540  0.76830  Biso   1.000  H
  C130     1.0000 0.08030  0.05870  0.70060  Biso   1.000  C
  H76      1.0000 0.07000  0.06110  0.69510  Biso   1.000  H
  C131     1.0000 0.07030  0.03340  0.59710  Biso   1.000  C
  C132     1.0000 0.06440  0.94930  0.59890  Biso   1.000  C
  H77      1.0000 0.07000  0.89880  0.61140  Biso   1.000  H
  C133     1.0000 0.04990  0.93270  0.58260  Biso   1.000  C
  H78      1.0000 0.04650  0.87010  0.58010  Biso   1.000  H
  C134     1.0000 0.04030  0.00640  0.56980  Biso   1.000  C
  C135     1.0000 0.04710  0.09650  0.56990  Biso   1.000  C
  H79      1.0000 0.04180  0.14850  0.55780  Biso   1.000  H
  C136     1.0000 0.06130  0.11100  0.58710  Biso   1.000  C
  H80      1.0000 0.06490  0.17270  0.59200  Biso   1.000  H
  C137     1.0000 0.02470  0.98670  0.55320  Biso   1.000  C
  C138     1.0000 0.16670  0.80290  0.83770  Biso   1.000  C
  C139     1.0000 0.16060  0.72180  0.85410  Biso   1.000  C
  C140     1.0000 0.14410  0.71450  0.86740  Biso   1.000  C
  C141     1.0000 0.13510  0.79060  0.85960  Biso   1.000  C
  C142     1.0000 0.14070  0.87590  0.83720  Biso   1.000  C
  C143     1.0000 0.15760  0.88600  0.82770  Biso   1.000  C
  C144     1.0000 0.16230  0.97440  0.80580  Biso   1.000  C
  H81      1.0000 0.17220  0.98250  0.79570  Biso   1.000  H
  C145     1.0000 0.15230  0.04410  0.80010  Biso   1.000  C
  H82      1.0000 0.15560  0.10000  0.78550  Biso   1.000  H
  C146     1.0000 0.13780  0.04020  0.81380  Biso   1.000  C
  H83      1.0000 0.13170  0.09370  0.81000  Biso   1.000  H
  C147     1.0000 0.13230  0.96480  0.83200  Biso   1.000  C
  H84      1.0000 0.12240  0.96620  0.84250  Biso   1.000  H
  C148     1.0000 0.11910  0.78300  0.87110  Biso   1.000  C
  C149     1.0000 0.11430  0.78480  0.92150  Biso   1.000  C
  C150     1.0000 0.09920  0.78540  0.93490  Biso   1.000  C
  C151     1.0000 0.08810  0.78350  0.90030  Biso   1.000  C
  C152     1.0000 0.09110  0.78210  0.84990  Biso   1.000  C
  C153     1.0000 0.10740  0.78430  0.83910  Biso   1.000  C
  C154     1.0000 0.11180  0.77600  0.78870  Biso   1.000  C
  H85      1.0000 0.12190  0.77230  0.78010  Biso   1.000  H
  C155     1.0000 0.09990  0.77490  0.75230  Biso   1.000  C
  H86      1.0000 0.10250  0.77020  0.72000  Biso   1.000  H
  C156     1.0000 0.08500  0.78050  0.76580  Biso   1.000  C
  H87      1.0000 0.07750  0.78460  0.74280  Biso   1.000  H
  C157     1.0000 0.08150  0.77990  0.81500  Biso   1.000  C
  H88      1.0000 0.07130  0.77790  0.82310  Biso   1.000  H
  C158     1.0000 0.09490  0.78680  0.98340  Biso   1.000  C
  H89      1.0000 0.08480  0.78210  0.99210  Biso   1.000  H
  C159     1.0000 0.10660  0.79580  0.01960  Biso   1.000  C
  H90      1.0000 0.10430  0.80040  0.05210  Biso   1.000  H
  C160     1.0000 0.12200  0.79720  0.00300  Biso   1.000  C
  H91      1.0000 0.12940  0.80080  0.02640  Biso   1.000  H
  C161     1.0000 0.12640  0.79420  0.96010  Biso   1.000  C
  H92      1.0000 0.13660  0.79750  0.95230  Biso   1.000  H
  C162     1.0000 0.07090  0.79090  0.91580  Biso   1.000  C
  C163     1.0000 0.06450  0.71270  0.93470  Biso   1.000  C
  H93      1.0000 0.06970  0.65500  0.93660  Biso   1.000  H
  C164     1.0000 0.04940  0.72190  0.95180  Biso   1.000  C
  H94      1.0000 0.04490  0.67010  0.96710  Biso   1.000  H
  C165     1.0000 0.04150  0.80270  0.94640  Biso   1.000  C
  C166     1.0000 0.04910  0.87830  0.92430  Biso   1.000  C
  H95      1.0000 0.04370  0.93350  0.91740  Biso   1.000  H
  C167     1.0000 0.06390  0.87590  0.91240  Biso   1.000  C
  H96      1.0000 0.06900  0.93050  0.90230  Biso   1.000  H
  C168     1.0000 0.02530  0.81510  0.96450  Biso   1.000  C
  O9       1.0000 0.23670  0.00820  0.72880  Biso   1.000  O
  O10      1.0000 0.23460  0.86980  0.68190  Biso   1.000  O
  O11      1.0000 0.01650  0.06160  0.55510  Biso   1.000  O
  O12      1.0000 0.02026  0.91240  0.54520  Biso   1.000  O
  O13      1.0000 0.01851  0.88880  0.95790  Biso   1.000  O
  O14      1.0000 0.01990  0.74280  0.98650  Biso   1.000  O
  O15      1.0000 0.23660  0.94070  0.82140  Biso   1.000  O
  O16      1.0000 0.23750  0.81490  0.77580  Biso   1.000  O
  Tb2      1.0000 0.25101  0.06192  0.78702  Biso   1.000  Tb
  C169     1.0000 0.63950  0.12920  0.89180  Biso   1.000  C
  H97      1.0000 0.62960  0.12490  0.90270  Biso   1.000  H
  C170     1.0000 0.64850  0.05660  0.89950  Biso   1.000  C
  H98      1.0000 0.64460  0.99910  0.91040  Biso   1.000  H
  C171     1.0000 0.66470  0.06390  0.89140  Biso   1.000  C
  H99      1.0000 0.67120  0.01660  0.90220  Biso   1.000  H
  C172     1.0000 0.67010  0.14350  0.86700  Biso   1.000  C
  H100     1.0000 0.68020  0.14580  0.85880  Biso   1.000  H
  C173     1.0000 0.68260  0.31960  0.82840  Biso   1.000  C
  C174     1.0000 0.69110  0.26750  0.79300  Biso   1.000  C
  H101     1.0000 0.68620  0.22000  0.77560  Biso   1.000  H
  C175     1.0000 0.70620  0.28480  0.78320  Biso   1.000  C
  H102     1.0000 0.71090  0.25410  0.75760  Biso   1.000  H
  C176     1.0000 0.71420  0.34660  0.81120  Biso   1.000  C
  C177     1.0000 0.70610  0.39880  0.85040  Biso   1.000  C
  H103     1.0000 0.71130  0.44210  0.86970  Biso   1.000  H
  C178     1.0000 0.69160  0.38260  0.85720  Biso   1.000  C
  H104     1.0000 0.68680  0.41420  0.88240  Biso   1.000  H
  C179     1.0000 0.72980  0.36810  0.80180  Biso   1.000  C
  C180     1.0000 0.73070  0.44810  0.69950  Biso   1.000  C
  C181     1.0000 0.71280  0.47180  0.68590  Biso   1.000  C
  C182     1.0000 0.70560  0.43180  0.65480  Biso   1.000  C
  H105     1.0000 0.71050  0.38390  0.63770  Biso   1.000  H
  C183     1.0000 0.69140  0.45000  0.64300  Biso   1.000  C
  H106     1.0000 0.68730  0.42170  0.61580  Biso   1.000  H
  C184     1.0000 0.68240  0.51280  0.67150  Biso   1.000  C
  C185     1.0000 0.69060  0.55880  0.70920  Biso   1.000  C
  H107     1.0000 0.68540  0.59970  0.72960  Biso   1.000  H
  C186     1.0000 0.70550  0.54650  0.71700  Biso   1.000  C
  H108     1.0000 0.71080  0.58140  0.73980  Biso   1.000  H
  C187     1.0000 0.65630  0.44720  0.67370  Biso   1.000  C
  C188     1.0000 0.64030  0.45910  0.65930  Biso   1.000  C
  C189     1.0000 0.63510  0.54210  0.64410  Biso   1.000  C
  C190     1.0000 0.64460  0.62170  0.63690  Biso   1.000  C
  C191     1.0000 0.66110  0.61730  0.64410  Biso   1.000  C
  C192     1.0000 0.66600  0.52360  0.66420  Biso   1.000  C
  C193     1.0000 0.66140  0.36000  0.69690  Biso   1.000  C
  H109     1.0000 0.67120  0.35830  0.70840  Biso   1.000  H
  C194     1.0000 0.65290  0.28240  0.70290  Biso   1.000  C
  H110     1.0000 0.65680  0.22560  0.71520  Biso   1.000  H
  C195     1.0000 0.63740  0.29270  0.68890  Biso   1.000  C
  H111     1.0000 0.63110  0.24020  0.69290  Biso   1.000  H
  C196     1.0000 0.63130  0.37420  0.67030  Biso   1.000  C
  H112     1.0000 0.62100  0.37600  0.66450  Biso   1.000  H
  C197     1.0000 0.63910  0.70860  0.61830  Biso   1.000  C
  H113     1.0000 0.62890  0.71500  0.61270  Biso   1.000  H
  C198     1.0000 0.64860  0.78580  0.60800  Biso   1.000  C
  H114     1.0000 0.64480  0.84340  0.59650  Biso   1.000  H
  C199     1.0000 0.66520  0.77160  0.61660  Biso   1.000  C
  H115     1.0000 0.67190  0.82030  0.60840  Biso   1.000  H
  C200     1.0000 0.67050  0.69250  0.63520  Biso   1.000  C
  H116     1.0000 0.68070  0.68750  0.64230  Biso   1.000  H
  C201     1.0000 0.61830  0.54850  0.63160  Biso   1.000  C
  C202     1.0000 0.60720  0.55600  0.67110  Biso   1.000  C
  C203     1.0000 0.59170  0.55240  0.66020  Biso   1.000  C
  C204     1.0000 0.58620  0.54350  0.61120  Biso   1.000  C
  C205     1.0000 0.59780  0.54590  0.57290  Biso   1.000  C
  C206     1.0000 0.61290  0.54570  0.58870  Biso   1.000  C
  C207     1.0000 0.62430  0.54410  0.54580  Biso   1.000  C
  H117     1.0000 0.63460  0.54570  0.55120  Biso   1.000  H
  C208     1.0000 0.61880  0.54030  0.50070  Biso   1.000  C
  H118     1.0000 0.62570  0.53900  0.47570  Biso   1.000  H
  C209     1.0000 0.60330  0.53820  0.48870  Biso   1.000  C
  H119     1.0000 0.60030  0.53190  0.45690  Biso   1.000  H
  C210     1.0000 0.59370  0.54510  0.52180  Biso   1.000  C
  H120     1.0000 0.58360  0.54980  0.51360  Biso   1.000  H
  C211     1.0000 0.61130  0.56140  0.72130  Biso   1.000  C
  H121     1.0000 0.62140  0.55920  0.73000  Biso   1.000  H
  C212     1.0000 0.60090  0.56930  0.75500  Biso   1.000  C
  H122     1.0000 0.60360  0.58080  0.78660  Biso   1.000  H
  C213     1.0000 0.58590  0.56060  0.74300  Biso   1.000  C
  H123     1.0000 0.57910  0.55540  0.76830  Biso   1.000  H
  C214     1.0000 0.58030  0.55870  0.70060  Biso   1.000  C
  H124     1.0000 0.57000  0.56110  0.69510  Biso   1.000  H
  C215     1.0000 0.57030  0.53340  0.59710  Biso   1.000  C
  C216     1.0000 0.56440  0.44930  0.59890  Biso   1.000  C
  H125     1.0000 0.57000  0.39880  0.61140  Biso   1.000  H
  C217     1.0000 0.54990  0.43270  0.58260  Biso   1.000  C
  H126     1.0000 0.54650  0.37010  0.58010  Biso   1.000  H
  C218     1.0000 0.54030  0.50640  0.56980  Biso   1.000  C
  C219     1.0000 0.54710  0.59650  0.56990  Biso   1.000  C
  H127     1.0000 0.54180  0.64850  0.55780  Biso   1.000  H
  C220     1.0000 0.56130  0.61100  0.58710  Biso   1.000  C
  H128     1.0000 0.56490  0.67270  0.59200  Biso   1.000  H
  C221     1.0000 0.52470  0.48670  0.55320  Biso   1.000  C
  C222     1.0000 0.66670  0.30290  0.83770  Biso   1.000  C
  C223     1.0000 0.66060  0.22180  0.85410  Biso   1.000  C
  C224     1.0000 0.64410  0.21450  0.86740  Biso   1.000  C
  C225     1.0000 0.63510  0.29060  0.85960  Biso   1.000  C
  C226     1.0000 0.64070  0.37590  0.83720  Biso   1.000  C
  C227     1.0000 0.65760  0.38600  0.82770  Biso   1.000  C
  C228     1.0000 0.66230  0.47440  0.80580  Biso   1.000  C
  H129     1.0000 0.67220  0.48250  0.79570  Biso   1.000  H
  C229     1.0000 0.65230  0.54410  0.80010  Biso   1.000  C
  H130     1.0000 0.65560  0.60000  0.78550  Biso   1.000  H
  C230     1.0000 0.63780  0.54020  0.81380  Biso   1.000  C
  H131     1.0000 0.63170  0.59370  0.81000  Biso   1.000  H
  C231     1.0000 0.63230  0.46480  0.83200  Biso   1.000  C
  H132     1.0000 0.62240  0.46620  0.84250  Biso   1.000  H
  C232     1.0000 0.61910  0.28300  0.87110  Biso   1.000  C
  C233     1.0000 0.61430  0.28480  0.92150  Biso   1.000  C
  C234     1.0000 0.59920  0.28540  0.93490  Biso   1.000  C
  C235     1.0000 0.58810  0.28350  0.90030  Biso   1.000  C
  C236     1.0000 0.59110  0.28210  0.84990  Biso   1.000  C
  C237     1.0000 0.60740  0.28430  0.83910  Biso   1.000  C
  C238     1.0000 0.61180  0.27600  0.78870  Biso   1.000  C
  H133     1.0000 0.62190  0.27230  0.78010  Biso   1.000  H
  C239     1.0000 0.59990  0.27490  0.75230  Biso   1.000  C
  H134     1.0000 0.60250  0.27020  0.72000  Biso   1.000  H
  C240     1.0000 0.58500  0.28050  0.76580  Biso   1.000  C
  H135     1.0000 0.57750  0.28460  0.74280  Biso   1.000  H
  C241     1.0000 0.58150  0.27990  0.81500  Biso   1.000  C
  H136     1.0000 0.57130  0.27790  0.82310  Biso   1.000  H
  C242     1.0000 0.59490  0.28680  0.98340  Biso   1.000  C
  H137     1.0000 0.58480  0.28210  0.99210  Biso   1.000  H
  C243     1.0000 0.60660  0.29580  0.01960  Biso   1.000  C
  H138     1.0000 0.60430  0.30040  0.05210  Biso   1.000  H
  C244     1.0000 0.62200  0.29720  0.00300  Biso   1.000  C
  H139     1.0000 0.62940  0.30080  0.02640  Biso   1.000  H
  C245     1.0000 0.62640  0.29420  0.96010  Biso   1.000  C
  H140     1.0000 0.63660  0.29750  0.95230  Biso   1.000  H
  C246     1.0000 0.57090  0.29090  0.91580  Biso   1.000  C
  C247     1.0000 0.56450  0.21270  0.93470  Biso   1.000  C
  H141     1.0000 0.56970  0.15500  0.93660  Biso   1.000  H
  C248     1.0000 0.54940  0.22190  0.95180  Biso   1.000  C
  H142     1.0000 0.54490  0.17010  0.96710  Biso   1.000  H
  C249     1.0000 0.54150  0.30270  0.94640  Biso   1.000  C
  C250     1.0000 0.54910  0.37830  0.92430  Biso   1.000  C
  H143     1.0000 0.54370  0.43350  0.91740  Biso   1.000  H
  C251     1.0000 0.56390  0.37590  0.91240  Biso   1.000  C
  H144     1.0000 0.56900  0.43050  0.90230  Biso   1.000  H
  C252     1.0000 0.52530  0.31510  0.96450  Biso   1.000  C
  O17      1.0000 0.73670  0.50820  0.72880  Biso   1.000  O
  O18      1.0000 0.73460  0.36980  0.68190  Biso   1.000  O
  O19      1.0000 0.51650  0.56160  0.55510  Biso   1.000  O
  O20      1.0000 0.52026  0.41240  0.54520  Biso   1.000  O
  O21      1.0000 0.51851  0.38880  0.95790  Biso   1.000  O
  O22      1.0000 0.51990  0.24280  0.98650  Biso   1.000  O
  O23      1.0000 0.73660  0.44070  0.82140  Biso   1.000  O
  O24      1.0000 0.73750  0.31490  0.77580  Biso   1.000  O
  Tb3      1.0000 0.75101  0.56192  0.78702  Biso   1.000  Tb
  C253     1.0000 0.63950  0.62920  0.39180  Biso   1.000  C
  H145     1.0000 0.62960  0.62490  0.40270  Biso   1.000  H
  C254     1.0000 0.64850  0.55660  0.39950  Biso   1.000  C
  H146     1.0000 0.64460  0.49910  0.41040  Biso   1.000  H
  C255     1.0000 0.66470  0.56390  0.39140  Biso   1.000  C
  H147     1.0000 0.67120  0.51660  0.40220  Biso   1.000  H
  C256     1.0000 0.67010  0.64350  0.36700  Biso   1.000  C
  H148     1.0000 0.68020  0.64580  0.35880  Biso   1.000  H
  C257     1.0000 0.68260  0.81960  0.32840  Biso   1.000  C
  C258     1.0000 0.69110  0.76750  0.29300  Biso   1.000  C
  H149     1.0000 0.68620  0.72000  0.27560  Biso   1.000  H
  C259     1.0000 0.70620  0.78480  0.28320  Biso   1.000  C
  H150     1.0000 0.71090  0.75410  0.25760  Biso   1.000  H
  C260     1.0000 0.71420  0.84660  0.31120  Biso   1.000  C
  C261     1.0000 0.70610  0.89880  0.35040  Biso   1.000  C
  H151     1.0000 0.71130  0.94210  0.36970  Biso   1.000  H
  C262     1.0000 0.69160  0.88260  0.35720  Biso   1.000  C
  H152     1.0000 0.68680  0.91420  0.38240  Biso   1.000  H
  C263     1.0000 0.72980  0.86810  0.30180  Biso   1.000  C
  C264     1.0000 0.73070  0.94810  0.19950  Biso   1.000  C
  C265     1.0000 0.71280  0.97180  0.18590  Biso   1.000  C
  C266     1.0000 0.70560  0.93180  0.15480  Biso   1.000  C
  H153     1.0000 0.71050  0.88390  0.13770  Biso   1.000  H
  C267     1.0000 0.69140  0.95000  0.14300  Biso   1.000  C
  H154     1.0000 0.68730  0.92170  0.11580  Biso   1.000  H
  C268     1.0000 0.68240  0.01280  0.17150  Biso   1.000  C
  C269     1.0000 0.69060  0.05880  0.20920  Biso   1.000  C
  H155     1.0000 0.68540  0.09970  0.22960  Biso   1.000  H
  C270     1.0000 0.70550  0.04650  0.21700  Biso   1.000  C
  H156     1.0000 0.71080  0.08140  0.23980  Biso   1.000  H
  C271     1.0000 0.65630  0.94720  0.17370  Biso   1.000  C
  C272     1.0000 0.64030  0.95910  0.15930  Biso   1.000  C
  C273     1.0000 0.63510  0.04210  0.14410  Biso   1.000  C
  C274     1.0000 0.64460  0.12170  0.13690  Biso   1.000  C
  C275     1.0000 0.66110  0.11730  0.14410  Biso   1.000  C
  C276     1.0000 0.66600  0.02360  0.16420  Biso   1.000  C
  C277     1.0000 0.66140  0.86000  0.19690  Biso   1.000  C
  H157     1.0000 0.67120  0.85830  0.20840  Biso   1.000  H
  C278     1.0000 0.65290  0.78240  0.20290  Biso   1.000  C
  H158     1.0000 0.65680  0.72560  0.21520  Biso   1.000  H
  C279     1.0000 0.63740  0.79270  0.18890  Biso   1.000  C
  H159     1.0000 0.63110  0.74020  0.19290  Biso   1.000  H
  C280     1.0000 0.63130  0.87420  0.17030  Biso   1.000  C
  H160     1.0000 0.62100  0.87600  0.16450  Biso   1.000  H
  C281     1.0000 0.63910  0.20860  0.11830  Biso   1.000  C
  H161     1.0000 0.62890  0.21500  0.11270  Biso   1.000  H
  C282     1.0000 0.64860  0.28580  0.10800  Biso   1.000  C
  H162     1.0000 0.64480  0.34340  0.09650  Biso   1.000  H
  C283     1.0000 0.66520  0.27160  0.11660  Biso   1.000  C
  H163     1.0000 0.67190  0.32030  0.10840  Biso   1.000  H
  C284     1.0000 0.67050  0.19250  0.13520  Biso   1.000  C
  H164     1.0000 0.68070  0.18750  0.14230  Biso   1.000  H
  C285     1.0000 0.61830  0.04850  0.13160  Biso   1.000  C
  C286     1.0000 0.60720  0.05600  0.17110  Biso   1.000  C
  C287     1.0000 0.59170  0.05240  0.16020  Biso   1.000  C
  C288     1.0000 0.58620  0.04350  0.11120  Biso   1.000  C
  C289     1.0000 0.59780  0.04590  0.07290  Biso   1.000  C
  C290     1.0000 0.61290  0.04570  0.08870  Biso   1.000  C
  C291     1.0000 0.62430  0.04410  0.04580  Biso   1.000  C
  H165     1.0000 0.63460  0.04570  0.05120  Biso   1.000  H
  C292     1.0000 0.61880  0.04030  0.00070  Biso   1.000  C
  H166     1.0000 0.62570  0.03900  0.97570  Biso   1.000  H
  C293     1.0000 0.60330  0.03820  0.98870  Biso   1.000  C
  H167     1.0000 0.60030  0.03190  0.95690  Biso   1.000  H
  C294     1.0000 0.59370  0.04510  0.02180  Biso   1.000  C
  H168     1.0000 0.58360  0.04980  0.01360  Biso   1.000  H
  C295     1.0000 0.61130  0.06140  0.22130  Biso   1.000  C
  H169     1.0000 0.62140  0.05920  0.23000  Biso   1.000  H
  C296     1.0000 0.60090  0.06930  0.25500  Biso   1.000  C
  H170     1.0000 0.60360  0.08080  0.28660  Biso   1.000  H
  C297     1.0000 0.58590  0.06060  0.24300  Biso   1.000  C
  H171     1.0000 0.57910  0.05540  0.26830  Biso   1.000  H
  C298     1.0000 0.58030  0.05870  0.20060  Biso   1.000  C
  H172     1.0000 0.57000  0.06110  0.19510  Biso   1.000  H
  C299     1.0000 0.57030  0.03340  0.09710  Biso   1.000  C
  C300     1.0000 0.56440  0.94930  0.09890  Biso   1.000  C
  H173     1.0000 0.57000  0.89880  0.11140  Biso   1.000  H
  C301     1.0000 0.54990  0.93270  0.08260  Biso   1.000  C
  H174     1.0000 0.54650  0.87010  0.08010  Biso   1.000  H
  C302     1.0000 0.54030  0.00640  0.06980  Biso   1.000  C
  C303     1.0000 0.54710  0.09650  0.06990  Biso   1.000  C
  H175     1.0000 0.54180  0.14850  0.05780  Biso   1.000  H
  C304     1.0000 0.56130  0.11100  0.08710  Biso   1.000  C
  H176     1.0000 0.56490  0.17270  0.09200  Biso   1.000  H
  C305     1.0000 0.52470  0.98670  0.05320  Biso   1.000  C
  C306     1.0000 0.66670  0.80290  0.33770  Biso   1.000  C
  C307     1.0000 0.66060  0.72180  0.35410  Biso   1.000  C
  C308     1.0000 0.64410  0.71450  0.36740  Biso   1.000  C
  C309     1.0000 0.63510  0.79060  0.35960  Biso   1.000  C
  C310     1.0000 0.64070  0.87590  0.33720  Biso   1.000  C
  C311     1.0000 0.65760  0.88600  0.32770  Biso   1.000  C
  C312     1.0000 0.66230  0.97440  0.30580  Biso   1.000  C
  H177     1.0000 0.67220  0.98250  0.29570  Biso   1.000  H
  C313     1.0000 0.65230  0.04410  0.30010  Biso   1.000  C
  H178     1.0000 0.65560  0.10000  0.28550  Biso   1.000  H
  C314     1.0000 0.63780  0.04020  0.31380  Biso   1.000  C
  H179     1.0000 0.63170  0.09370  0.31000  Biso   1.000  H
  C315     1.0000 0.63230  0.96480  0.33200  Biso   1.000  C
  H180     1.0000 0.62240  0.96620  0.34250  Biso   1.000  H
  C316     1.0000 0.61910  0.78300  0.37110  Biso   1.000  C
  C317     1.0000 0.61430  0.78480  0.42150  Biso   1.000  C
  C318     1.0000 0.59920  0.78540  0.43490  Biso   1.000  C
  C319     1.0000 0.58810  0.78350  0.40030  Biso   1.000  C
  C320     1.0000 0.59110  0.78210  0.34990  Biso   1.000  C
  C321     1.0000 0.60740  0.78430  0.33910  Biso   1.000  C
  C322     1.0000 0.61180  0.77600  0.28870  Biso   1.000  C
  H181     1.0000 0.62190  0.77230  0.28010  Biso   1.000  H
  C323     1.0000 0.59990  0.77490  0.25230  Biso   1.000  C
  H182     1.0000 0.60250  0.77020  0.22000  Biso   1.000  H
  C324     1.0000 0.58500  0.78050  0.26580  Biso   1.000  C
  H183     1.0000 0.57750  0.78460  0.24280  Biso   1.000  H
  C325     1.0000 0.58150  0.77990  0.31500  Biso   1.000  C
  H184     1.0000 0.57130  0.77790  0.32310  Biso   1.000  H
  C326     1.0000 0.59490  0.78680  0.48340  Biso   1.000  C
  H185     1.0000 0.58480  0.78210  0.49210  Biso   1.000  H
  C327     1.0000 0.60660  0.79580  0.51960  Biso   1.000  C
  H186     1.0000 0.60430  0.80040  0.55210  Biso   1.000  H
  C328     1.0000 0.62200  0.79720  0.50300  Biso   1.000  C
  H187     1.0000 0.62940  0.80080  0.52640  Biso   1.000  H
  C329     1.0000 0.62640  0.79420  0.46010  Biso   1.000  C
  H188     1.0000 0.63660  0.79750  0.45230  Biso   1.000  H
  C330     1.0000 0.57090  0.79090  0.41580  Biso   1.000  C
  C331     1.0000 0.56450  0.71270  0.43470  Biso   1.000  C
  H189     1.0000 0.56970  0.65500  0.43660  Biso   1.000  H
  C332     1.0000 0.54940  0.72190  0.45180  Biso   1.000  C
  H190     1.0000 0.54490  0.67010  0.46710  Biso   1.000  H
  C333     1.0000 0.54150  0.80270  0.44640  Biso   1.000  C
  C334     1.0000 0.54910  0.87830  0.42430  Biso   1.000  C
  H191     1.0000 0.54370  0.93350  0.41740  Biso   1.000  H
  C335     1.0000 0.56390  0.87590  0.41240  Biso   1.000  C
  H192     1.0000 0.56900  0.93050  0.40230  Biso   1.000  H
  C336     1.0000 0.52530  0.81510  0.46450  Biso   1.000  C
  O25      1.0000 0.73670  0.00820  0.22880  Biso   1.000  O
  O26      1.0000 0.73460  0.86980  0.18190  Biso   1.000  O
  O27      1.0000 0.51650  0.06160  0.05510  Biso   1.000  O
  O28      1.0000 0.52026  0.91240  0.04520  Biso   1.000  O
  O29      1.0000 0.51851  0.88880  0.45790  Biso   1.000  O
  O30      1.0000 0.51990  0.74280  0.48650  Biso   1.000  O
  O31      1.0000 0.73660  0.94070  0.32140  Biso   1.000  O
  O32      1.0000 0.73750  0.81490  0.27580  Biso   1.000  O
  Tb4      1.0000 0.75101  0.06192  0.28702  Biso   1.000  Tb
  C337     1.0000 0.86050  0.87080  0.39180  Biso   1.000  C
  H193     1.0000 0.87040  0.87510  0.40270  Biso   1.000  H
  C338     1.0000 0.85150  0.94340  0.39950  Biso   1.000  C
  H194     1.0000 0.85540  0.00090  0.41040  Biso   1.000  H
  C339     1.0000 0.83530  0.93610  0.39140  Biso   1.000  C
  H195     1.0000 0.82880  0.98340  0.40220  Biso   1.000  H
  C340     1.0000 0.82990  0.85650  0.36700  Biso   1.000  C
  H196     1.0000 0.81980  0.85420  0.35880  Biso   1.000  H
  C341     1.0000 0.81740  0.68040  0.32840  Biso   1.000  C
  C342     1.0000 0.80890  0.73250  0.29300  Biso   1.000  C
  H197     1.0000 0.81380  0.78000  0.27560  Biso   1.000  H
  C343     1.0000 0.79380  0.71520  0.28320  Biso   1.000  C
  H198     1.0000 0.78910  0.74590  0.25760  Biso   1.000  H
  C344     1.0000 0.78580  0.65340  0.31120  Biso   1.000  C
  C345     1.0000 0.79390  0.60120  0.35040  Biso   1.000  C
  H199     1.0000 0.78870  0.55790  0.36970  Biso   1.000  H
  C346     1.0000 0.80840  0.61740  0.35720  Biso   1.000  C
  H200     1.0000 0.81320  0.58580  0.38240  Biso   1.000  H
  C347     1.0000 0.77020  0.63190  0.30180  Biso   1.000  C
  C348     1.0000 0.76930  0.55190  0.19950  Biso   1.000  C
  C349     1.0000 0.78720  0.52820  0.18590  Biso   1.000  C
  C350     1.0000 0.79440  0.56820  0.15480  Biso   1.000  C
  H201     1.0000 0.78950  0.61610  0.13770  Biso   1.000  H
  C351     1.0000 0.80860  0.55000  0.14300  Biso   1.000  C
  H202     1.0000 0.81270  0.57830  0.11580  Biso   1.000  H
  C352     1.0000 0.81760  0.48720  0.17150  Biso   1.000  C
  C353     1.0000 0.80940  0.44120  0.20920  Biso   1.000  C
  H203     1.0000 0.81460  0.40030  0.22960  Biso   1.000  H
  C354     1.0000 0.79450  0.45350  0.21700  Biso   1.000  C
  H204     1.0000 0.78920  0.41860  0.23980  Biso   1.000  H
  C355     1.0000 0.84370  0.55280  0.17370  Biso   1.000  C
  C356     1.0000 0.85970  0.54090  0.15930  Biso   1.000  C
  C357     1.0000 0.86490  0.45790  0.14410  Biso   1.000  C
  C358     1.0000 0.85540  0.37830  0.13690  Biso   1.000  C
  C359     1.0000 0.83890  0.38270  0.14410  Biso   1.000  C
  C360     1.0000 0.83400  0.47640  0.16420  Biso   1.000  C
  C361     1.0000 0.83860  0.64000  0.19690  Biso   1.000  C
  H205     1.0000 0.82880  0.64170  0.20840  Biso   1.000  H
  C362     1.0000 0.84710  0.71760  0.20290  Biso   1.000  C
  H206     1.0000 0.84320  0.77440  0.21520  Biso   1.000  H
  C363     1.0000 0.86260  0.70730  0.18890  Biso   1.000  C
  H207     1.0000 0.86890  0.75980  0.19290  Biso   1.000  H
  C364     1.0000 0.86870  0.62580  0.17030  Biso   1.000  C
  H208     1.0000 0.87900  0.62400  0.16450  Biso   1.000  H
  C365     1.0000 0.86090  0.29140  0.11830  Biso   1.000  C
  H209     1.0000 0.87110  0.28500  0.11270  Biso   1.000  H
  C366     1.0000 0.85140  0.21420  0.10800  Biso   1.000  C
  H210     1.0000 0.85520  0.15660  0.09650  Biso   1.000  H
  C367     1.0000 0.83480  0.22840  0.11660  Biso   1.000  C
  H211     1.0000 0.82810  0.17970  0.10840  Biso   1.000  H
  C368     1.0000 0.82950  0.30750  0.13520  Biso   1.000  C
  H212     1.0000 0.81930  0.31250  0.14230  Biso   1.000  H
  C369     1.0000 0.88170  0.45150  0.13160  Biso   1.000  C
  C370     1.0000 0.89280  0.44400  0.17110  Biso   1.000  C
  C371     1.0000 0.90830  0.44760  0.16020  Biso   1.000  C
  C372     1.0000 0.91380  0.45650  0.11120  Biso   1.000  C
  C373     1.0000 0.90220  0.45410  0.07290  Biso   1.000  C
  C374     1.0000 0.88710  0.45430  0.08870  Biso   1.000  C
  C375     1.0000 0.87570  0.45590  0.04580  Biso   1.000  C
  H213     1.0000 0.86540  0.45430  0.05120  Biso   1.000  H
  C376     1.0000 0.88120  0.45970  0.00070  Biso   1.000  C
  H214     1.0000 0.87430  0.46100  0.97570  Biso   1.000  H
  C377     1.0000 0.89670  0.46180  0.98870  Biso   1.000  C
  H215     1.0000 0.89970  0.46810  0.95690  Biso   1.000  H
  C378     1.0000 0.90630  0.45490  0.02180  Biso   1.000  C
  H216     1.0000 0.91640  0.45020  0.01360  Biso   1.000  H
  C379     1.0000 0.88870  0.43860  0.22130  Biso   1.000  C
  H217     1.0000 0.87860  0.44080  0.23000  Biso   1.000  H
  C380     1.0000 0.89910  0.43070  0.25500  Biso   1.000  C
  H218     1.0000 0.89640  0.41920  0.28660  Biso   1.000  H
  C381     1.0000 0.91410  0.43940  0.24300  Biso   1.000  C
  H219     1.0000 0.92090  0.44460  0.26830  Biso   1.000  H
  C382     1.0000 0.91970  0.44130  0.20060  Biso   1.000  C
  H220     1.0000 0.93000  0.43890  0.19510  Biso   1.000  H
  C383     1.0000 0.92970  0.46660  0.09710  Biso   1.000  C
  C384     1.0000 0.93560  0.55070  0.09890  Biso   1.000  C
  H221     1.0000 0.93000  0.60120  0.11140  Biso   1.000  H
  C385     1.0000 0.95010  0.56730  0.08260  Biso   1.000  C
  H222     1.0000 0.95350  0.62990  0.08010  Biso   1.000  H
  C386     1.0000 0.95970  0.49360  0.06980  Biso   1.000  C
  C387     1.0000 0.95290  0.40350  0.06990  Biso   1.000  C
  H223     1.0000 0.95820  0.35150  0.05780  Biso   1.000  H
  C388     1.0000 0.93870  0.38900  0.08710  Biso   1.000  C
  H224     1.0000 0.93510  0.32730  0.09200  Biso   1.000  H
  C389     1.0000 0.97530  0.51330  0.05320  Biso   1.000  C
  C390     1.0000 0.83330  0.69710  0.33770  Biso   1.000  C
  C391     1.0000 0.83940  0.77820  0.35410  Biso   1.000  C
  C392     1.0000 0.85590  0.78550  0.36740  Biso   1.000  C
  C393     1.0000 0.86490  0.70940  0.35960  Biso   1.000  C
  C394     1.0000 0.85930  0.62410  0.33720  Biso   1.000  C
  C395     1.0000 0.84240  0.61400  0.32770  Biso   1.000  C
  C396     1.0000 0.83770  0.52560  0.30580  Biso   1.000  C
  H225     1.0000 0.82780  0.51750  0.29570  Biso   1.000  H
  C397     1.0000 0.84770  0.45590  0.30010  Biso   1.000  C
  H226     1.0000 0.84440  0.40000  0.28550  Biso   1.000  H
  C398     1.0000 0.86220  0.45980  0.31380  Biso   1.000  C
  H227     1.0000 0.86830  0.40630  0.31000  Biso   1.000  H
  C399     1.0000 0.86770  0.53520  0.33200  Biso   1.000  C
  H228     1.0000 0.87760  0.53380  0.34250  Biso   1.000  H
  C400     1.0000 0.88090  0.71700  0.37110  Biso   1.000  C
  C401     1.0000 0.88570  0.71520  0.42150  Biso   1.000  C
  C402     1.0000 0.90080  0.71460  0.43490  Biso   1.000  C
  C403     1.0000 0.91190  0.71650  0.40030  Biso   1.000  C
  C404     1.0000 0.90890  0.71790  0.34990  Biso   1.000  C
  C405     1.0000 0.89260  0.71570  0.33910  Biso   1.000  C
  C406     1.0000 0.88820  0.72400  0.28870  Biso   1.000  C
  H229     1.0000 0.87810  0.72770  0.28010  Biso   1.000  H
  C407     1.0000 0.90010  0.72510  0.25230  Biso   1.000  C
  H230     1.0000 0.89750  0.72980  0.22000  Biso   1.000  H
  C408     1.0000 0.91500  0.71950  0.26580  Biso   1.000  C
  H231     1.0000 0.92250  0.71540  0.24280  Biso   1.000  H
  C409     1.0000 0.91850  0.72010  0.31500  Biso   1.000  C
  H232     1.0000 0.92870  0.72210  0.32310  Biso   1.000  H
  C410     1.0000 0.90510  0.71320  0.48340  Biso   1.000  C
  H233     1.0000 0.91520  0.71790  0.49210  Biso   1.000  H
  C411     1.0000 0.89340  0.70420  0.51960  Biso   1.000  C
  H234     1.0000 0.89570  0.69960  0.55210  Biso   1.000  H
  C412     1.0000 0.87800  0.70280  0.50300  Biso   1.000  C
  H235     1.0000 0.87060  0.69920  0.52640  Biso   1.000  H
  C413     1.0000 0.87360  0.70580  0.46010  Biso   1.000  C
  H236     1.0000 0.86340  0.70250  0.45230  Biso   1.000  H
  C414     1.0000 0.92910  0.70910  0.41580  Biso   1.000  C
  C415     1.0000 0.93550  0.78730  0.43470  Biso   1.000  C
  H237     1.0000 0.93030  0.84500  0.43660  Biso   1.000  H
  C416     1.0000 0.95060  0.77810  0.45180  Biso   1.000  C
  H238     1.0000 0.95510  0.82990  0.46710  Biso   1.000  H
  C417     1.0000 0.95850  0.69730  0.44640  Biso   1.000  C
  C418     1.0000 0.95090  0.62170  0.42430  Biso   1.000  C
  H239     1.0000 0.95630  0.56650  0.41740  Biso   1.000  H
  C419     1.0000 0.93610  0.62410  0.41240  Biso   1.000  C
  H240     1.0000 0.93100  0.56950  0.40230  Biso   1.000  H
  C420     1.0000 0.97470  0.68490  0.46450  Biso   1.000  C
  O33      1.0000 0.76330  0.49180  0.22880  Biso   1.000  O
  O34      1.0000 0.76540  0.63020  0.18190  Biso   1.000  O
  O35      1.0000 0.98350  0.43840  0.05510  Biso   1.000  O
  O36      1.0000 0.97974  0.58760  0.04520  Biso   1.000  O
  O37      1.0000 0.98149  0.61120  0.45790  Biso   1.000  O
  O38      1.0000 0.98010  0.75720  0.48650  Biso   1.000  O
  O39      1.0000 0.76340  0.55930  0.32140  Biso   1.000  O
  O40      1.0000 0.76250  0.68510  0.27580  Biso   1.000  O
  Tb5      1.0000 0.74899  0.43808  0.28702  Biso   1.000  Tb
  C421     1.0000 0.86050  0.37080  0.89180  Biso   1.000  C
  H241     1.0000 0.87040  0.37510  0.90270  Biso   1.000  H
  C422     1.0000 0.85150  0.44340  0.89950  Biso   1.000  C
  H242     1.0000 0.85540  0.50090  0.91040  Biso   1.000  H
  C423     1.0000 0.83530  0.43610  0.89140  Biso   1.000  C
  H243     1.0000 0.82880  0.48340  0.90220  Biso   1.000  H
  C424     1.0000 0.82990  0.35650  0.86700  Biso   1.000  C
  H244     1.0000 0.81980  0.35420  0.85880  Biso   1.000  H
  C425     1.0000 0.81740  0.18040  0.82840  Biso   1.000  C
  C426     1.0000 0.80890  0.23250  0.79300  Biso   1.000  C
  H245     1.0000 0.81380  0.28000  0.77560  Biso   1.000  H
  C427     1.0000 0.79380  0.21520  0.78320  Biso   1.000  C
  H246     1.0000 0.78910  0.24590  0.75760  Biso   1.000  H
  C428     1.0000 0.78580  0.15340  0.81120  Biso   1.000  C
  C429     1.0000 0.79390  0.10120  0.85040  Biso   1.000  C
  H247     1.0000 0.78870  0.05790  0.86970  Biso   1.000  H
  C430     1.0000 0.80840  0.11740  0.85720  Biso   1.000  C
  H248     1.0000 0.81320  0.08580  0.88240  Biso   1.000  H
  C431     1.0000 0.77020  0.13190  0.80180  Biso   1.000  C
  C432     1.0000 0.76930  0.05190  0.69950  Biso   1.000  C
  C433     1.0000 0.78720  0.02820  0.68590  Biso   1.000  C
  C434     1.0000 0.79440  0.06820  0.65480  Biso   1.000  C
  H249     1.0000 0.78950  0.11610  0.63770  Biso   1.000  H
  C435     1.0000 0.80860  0.05000  0.64300  Biso   1.000  C
  H250     1.0000 0.81270  0.07830  0.61580  Biso   1.000  H
  C436     1.0000 0.81760  0.98720  0.67150  Biso   1.000  C
  C437     1.0000 0.80940  0.94120  0.70920  Biso   1.000  C
  H251     1.0000 0.81460  0.90030  0.72960  Biso   1.000  H
  C438     1.0000 0.79450  0.95350  0.71700  Biso   1.000  C
  H252     1.0000 0.78920  0.91860  0.73980  Biso   1.000  H
  C439     1.0000 0.84370  0.05280  0.67370  Biso   1.000  C
  C440     1.0000 0.85970  0.04090  0.65930  Biso   1.000  C
  C441     1.0000 0.86490  0.95790  0.64410  Biso   1.000  C
  C442     1.0000 0.85540  0.87830  0.63690  Biso   1.000  C
  C443     1.0000 0.83890  0.88270  0.64410  Biso   1.000  C
  C444     1.0000 0.83400  0.97640  0.66420  Biso   1.000  C
  C445     1.0000 0.83860  0.14000  0.69690  Biso   1.000  C
  H253     1.0000 0.82880  0.14170  0.70840  Biso   1.000  H
  C446     1.0000 0.84710  0.21760  0.70290  Biso   1.000  C
  H254     1.0000 0.84320  0.27440  0.71520  Biso   1.000  H
  C447     1.0000 0.86260  0.20730  0.68890  Biso   1.000  C
  H255     1.0000 0.86890  0.25980  0.69290  Biso   1.000  H
  C448     1.0000 0.86870  0.12580  0.67030  Biso   1.000  C
  H256     1.0000 0.87900  0.12400  0.66450  Biso   1.000  H
  C449     1.0000 0.86090  0.79140  0.61830  Biso   1.000  C
  H257     1.0000 0.87110  0.78500  0.61270  Biso   1.000  H
  C450     1.0000 0.85140  0.71420  0.60800  Biso   1.000  C
  H258     1.0000 0.85520  0.65660  0.59650  Biso   1.000  H
  C451     1.0000 0.83480  0.72840  0.61660  Biso   1.000  C
  H259     1.0000 0.82810  0.67970  0.60840  Biso   1.000  H
  C452     1.0000 0.82950  0.80750  0.63520  Biso   1.000  C
  H260     1.0000 0.81930  0.81250  0.64230  Biso   1.000  H
  C453     1.0000 0.88170  0.95150  0.63160  Biso   1.000  C
  C454     1.0000 0.89280  0.94400  0.67110  Biso   1.000  C
  C455     1.0000 0.90830  0.94760  0.66020  Biso   1.000  C
  C456     1.0000 0.91380  0.95650  0.61120  Biso   1.000  C
  C457     1.0000 0.90220  0.95410  0.57290  Biso   1.000  C
  C458     1.0000 0.88710  0.95430  0.58870  Biso   1.000  C
  C459     1.0000 0.87570  0.95590  0.54580  Biso   1.000  C
  H261     1.0000 0.86540  0.95430  0.55120  Biso   1.000  H
  C460     1.0000 0.88120  0.95970  0.50070  Biso   1.000  C
  H262     1.0000 0.87430  0.96100  0.47570  Biso   1.000  H
  C461     1.0000 0.89670  0.96180  0.48870  Biso   1.000  C
  H263     1.0000 0.89970  0.96810  0.45690  Biso   1.000  H
  C462     1.0000 0.90630  0.95490  0.52180  Biso   1.000  C
  H264     1.0000 0.91640  0.95020  0.51360  Biso   1.000  H
  C463     1.0000 0.88870  0.93860  0.72130  Biso   1.000  C
  H265     1.0000 0.87860  0.94080  0.73000  Biso   1.000  H
  C464     1.0000 0.89910  0.93070  0.75500  Biso   1.000  C
  H266     1.0000 0.89640  0.91920  0.78660  Biso   1.000  H
  C465     1.0000 0.91410  0.93940  0.74300  Biso   1.000  C
  H267     1.0000 0.92090  0.94460  0.76830  Biso   1.000  H
  C466     1.0000 0.91970  0.94130  0.70060  Biso   1.000  C
  H268     1.0000 0.93000  0.93890  0.69510  Biso   1.000  H
  C467     1.0000 0.92970  0.96660  0.59710  Biso   1.000  C
  C468     1.0000 0.93560  0.05070  0.59890  Biso   1.000  C
  H269     1.0000 0.93000  0.10120  0.61140  Biso   1.000  H
  C469     1.0000 0.95010  0.06730  0.58260  Biso   1.000  C
  H270     1.0000 0.95350  0.12990  0.58010  Biso   1.000  H
  C470     1.0000 0.95970  0.99360  0.56980  Biso   1.000  C
  C471     1.0000 0.95290  0.90350  0.56990  Biso   1.000  C
  H271     1.0000 0.95820  0.85150  0.55780  Biso   1.000  H
  C472     1.0000 0.93870  0.88900  0.58710  Biso   1.000  C
  H272     1.0000 0.93510  0.82730  0.59200  Biso   1.000  H
  C473     1.0000 0.97530  0.01330  0.55320  Biso   1.000  C
  C474     1.0000 0.83330  0.19710  0.83770  Biso   1.000  C
  C475     1.0000 0.83940  0.27820  0.85410  Biso   1.000  C
  C476     1.0000 0.85590  0.28550  0.86740  Biso   1.000  C
  C477     1.0000 0.86490  0.20940  0.85960  Biso   1.000  C
  C478     1.0000 0.85930  0.12410  0.83720  Biso   1.000  C
  C479     1.0000 0.84240  0.11400  0.82770  Biso   1.000  C
  C480     1.0000 0.83770  0.02560  0.80580  Biso   1.000  C
  H273     1.0000 0.82780  0.01750  0.79570  Biso   1.000  H
  C481     1.0000 0.84770  0.95590  0.80010  Biso   1.000  C
  H274     1.0000 0.84440  0.90000  0.78550  Biso   1.000  H
  C482     1.0000 0.86220  0.95980  0.81380  Biso   1.000  C
  H275     1.0000 0.86830  0.90630  0.81000  Biso   1.000  H
  C483     1.0000 0.86770  0.03520  0.83200  Biso   1.000  C
  H276     1.0000 0.87760  0.03380  0.84250  Biso   1.000  H
  C484     1.0000 0.88090  0.21700  0.87110  Biso   1.000  C
  C485     1.0000 0.88570  0.21520  0.92150  Biso   1.000  C
  C486     1.0000 0.90080  0.21460  0.93490  Biso   1.000  C
  C487     1.0000 0.91190  0.21650  0.90030  Biso   1.000  C
  C488     1.0000 0.90890  0.21790  0.84990  Biso   1.000  C
  C489     1.0000 0.89260  0.21570  0.83910  Biso   1.000  C
  C490     1.0000 0.88820  0.22400  0.78870  Biso   1.000  C
  H277     1.0000 0.87810  0.22770  0.78010  Biso   1.000  H
  C491     1.0000 0.90010  0.22510  0.75230  Biso   1.000  C
  H278     1.0000 0.89750  0.22980  0.72000  Biso   1.000  H
  C492     1.0000 0.91500  0.21950  0.76580  Biso   1.000  C
  H279     1.0000 0.92250  0.21540  0.74280  Biso   1.000  H
  C493     1.0000 0.91850  0.22010  0.81500  Biso   1.000  C
  H280     1.0000 0.92870  0.22210  0.82310  Biso   1.000  H
  C494     1.0000 0.90510  0.21320  0.98340  Biso   1.000  C
  H281     1.0000 0.91520  0.21790  0.99210  Biso   1.000  H
  C495     1.0000 0.89340  0.20420  0.01960  Biso   1.000  C
  H282     1.0000 0.89570  0.19960  0.05210  Biso   1.000  H
  C496     1.0000 0.87800  0.20280  0.00300  Biso   1.000  C
  H283     1.0000 0.87060  0.19920  0.02640  Biso   1.000  H
  C497     1.0000 0.87360  0.20580  0.96010  Biso   1.000  C
  H284     1.0000 0.86340  0.20250  0.95230  Biso   1.000  H
  C498     1.0000 0.92910  0.20910  0.91580  Biso   1.000  C
  C499     1.0000 0.93550  0.28730  0.93470  Biso   1.000  C
  H285     1.0000 0.93030  0.34500  0.93660  Biso   1.000  H
  C500     1.0000 0.95060  0.27810  0.95180  Biso   1.000  C
  H286     1.0000 0.95510  0.32990  0.96710  Biso   1.000  H
  C501     1.0000 0.95850  0.19730  0.94640  Biso   1.000  C
  C502     1.0000 0.95090  0.12170  0.92430  Biso   1.000  C
  H287     1.0000 0.95630  0.06650  0.91740  Biso   1.000  H
  C503     1.0000 0.93610  0.12410  0.91240  Biso   1.000  C
  H288     1.0000 0.93100  0.06950  0.90230  Biso   1.000  H
  C504     1.0000 0.97470  0.18490  0.96450  Biso   1.000  C
  O41      1.0000 0.76330  0.99180  0.72880  Biso   1.000  O
  O42      1.0000 0.76540  0.13020  0.68190  Biso   1.000  O
  O43      1.0000 0.98350  0.93840  0.55510  Biso   1.000  O
  O44      1.0000 0.97974  0.08760  0.54520  Biso   1.000  O
  O45      1.0000 0.98149  0.11120  0.95790  Biso   1.000  O
  O46      1.0000 0.98010  0.25720  0.98650  Biso   1.000  O
  O47      1.0000 0.76340  0.05930  0.82140  Biso   1.000  O
  O48      1.0000 0.76250  0.18510  0.77580  Biso   1.000  O
  Tb6      1.0000 0.74899  0.93808  0.78702  Biso   1.000  Tb
  C505     1.0000 0.36050  0.87080  0.89180  Biso   1.000  C
  H289     1.0000 0.37040  0.87510  0.90270  Biso   1.000  H
  C506     1.0000 0.35150  0.94340  0.89950  Biso   1.000  C
  H290     1.0000 0.35540  0.00090  0.91040  Biso   1.000  H
  C507     1.0000 0.33530  0.93610  0.89140  Biso   1.000  C
  H291     1.0000 0.32880  0.98340  0.90220  Biso   1.000  H
  C508     1.0000 0.32990  0.85650  0.86700  Biso   1.000  C
  H292     1.0000 0.31980  0.85420  0.85880  Biso   1.000  H
  C509     1.0000 0.31740  0.68040  0.82840  Biso   1.000  C
  C510     1.0000 0.30890  0.73250  0.79300  Biso   1.000  C
  H293     1.0000 0.31380  0.78000  0.77560  Biso   1.000  H
  C511     1.0000 0.29380  0.71520  0.78320  Biso   1.000  C
  H294     1.0000 0.28910  0.74590  0.75760  Biso   1.000  H
  C512     1.0000 0.28580  0.65340  0.81120  Biso   1.000  C
  C513     1.0000 0.29390  0.60120  0.85040  Biso   1.000  C
  H295     1.0000 0.28870  0.55790  0.86970  Biso   1.000  H
  C514     1.0000 0.30840  0.61740  0.85720  Biso   1.000  C
  H296     1.0000 0.31320  0.58580  0.88240  Biso   1.000  H
  C515     1.0000 0.27020  0.63190  0.80180  Biso   1.000  C
  C516     1.0000 0.26930  0.55190  0.69950  Biso   1.000  C
  C517     1.0000 0.28720  0.52820  0.68590  Biso   1.000  C
  C518     1.0000 0.29440  0.56820  0.65480  Biso   1.000  C
  H297     1.0000 0.28950  0.61610  0.63770  Biso   1.000  H
  C519     1.0000 0.30860  0.55000  0.64300  Biso   1.000  C
  H298     1.0000 0.31270  0.57830  0.61580  Biso   1.000  H
  C520     1.0000 0.31760  0.48720  0.67150  Biso   1.000  C
  C521     1.0000 0.30940  0.44120  0.70920  Biso   1.000  C
  H299     1.0000 0.31460  0.40030  0.72960  Biso   1.000  H
  C522     1.0000 0.29450  0.45350  0.71700  Biso   1.000  C
  H300     1.0000 0.28920  0.41860  0.73980  Biso   1.000  H
  C523     1.0000 0.34370  0.55280  0.67370  Biso   1.000  C
  C524     1.0000 0.35970  0.54090  0.65930  Biso   1.000  C
  C525     1.0000 0.36490  0.45790  0.64410  Biso   1.000  C
  C526     1.0000 0.35540  0.37830  0.63690  Biso   1.000  C
  C527     1.0000 0.33890  0.38270  0.64410  Biso   1.000  C
  C528     1.0000 0.33400  0.47640  0.66420  Biso   1.000  C
  C529     1.0000 0.33860  0.64000  0.69690  Biso   1.000  C
  H301     1.0000 0.32880  0.64170  0.70840  Biso   1.000  H
  C530     1.0000 0.34710  0.71760  0.70290  Biso   1.000  C
  H302     1.0000 0.34320  0.77440  0.71520  Biso   1.000  H
  C531     1.0000 0.36260  0.70730  0.68890  Biso   1.000  C
  H303     1.0000 0.36890  0.75980  0.69290  Biso   1.000  H
  C532     1.0000 0.36870  0.62580  0.67030  Biso   1.000  C
  H304     1.0000 0.37900  0.62400  0.66450  Biso   1.000  H
  C533     1.0000 0.36090  0.29140  0.61830  Biso   1.000  C
  H305     1.0000 0.37110  0.28500  0.61270  Biso   1.000  H
  C534     1.0000 0.35140  0.21420  0.60800  Biso   1.000  C
  H306     1.0000 0.35520  0.15660  0.59650  Biso   1.000  H
  C535     1.0000 0.33480  0.22840  0.61660  Biso   1.000  C
  H307     1.0000 0.32810  0.17970  0.60840  Biso   1.000  H
  C536     1.0000 0.32950  0.30750  0.63520  Biso   1.000  C
  H308     1.0000 0.31930  0.31250  0.64230  Biso   1.000  H
  C537     1.0000 0.38170  0.45150  0.63160  Biso   1.000  C
  C538     1.0000 0.39280  0.44400  0.67110  Biso   1.000  C
  C539     1.0000 0.40830  0.44760  0.66020  Biso   1.000  C
  C540     1.0000 0.41380  0.45650  0.61120  Biso   1.000  C
  C541     1.0000 0.40220  0.45410  0.57290  Biso   1.000  C
  C542     1.0000 0.38710  0.45430  0.58870  Biso   1.000  C
  C543     1.0000 0.37570  0.45590  0.54580  Biso   1.000  C
  H309     1.0000 0.36540  0.45430  0.55120  Biso   1.000  H
  C544     1.0000 0.38120  0.45970  0.50070  Biso   1.000  C
  H310     1.0000 0.37430  0.46100  0.47570  Biso   1.000  H
  C545     1.0000 0.39670  0.46180  0.48870  Biso   1.000  C
  H311     1.0000 0.39970  0.46810  0.45690  Biso   1.000  H
  C546     1.0000 0.40630  0.45490  0.52180  Biso   1.000  C
  H312     1.0000 0.41640  0.45020  0.51360  Biso   1.000  H
  C547     1.0000 0.38870  0.43860  0.72130  Biso   1.000  C
  H313     1.0000 0.37860  0.44080  0.73000  Biso   1.000  H
  C548     1.0000 0.39910  0.43070  0.75500  Biso   1.000  C
  H314     1.0000 0.39640  0.41920  0.78660  Biso   1.000  H
  C549     1.0000 0.41410  0.43940  0.74300  Biso   1.000  C
  H315     1.0000 0.42090  0.44460  0.76830  Biso   1.000  H
  C550     1.0000 0.41970  0.44130  0.70060  Biso   1.000  C
  H316     1.0000 0.43000  0.43890  0.69510  Biso   1.000  H
  C551     1.0000 0.42970  0.46660  0.59710  Biso   1.000  C
  C552     1.0000 0.43560  0.55070  0.59890  Biso   1.000  C
  H317     1.0000 0.43000  0.60120  0.61140  Biso   1.000  H
  C553     1.0000 0.45010  0.56730  0.58260  Biso   1.000  C
  H318     1.0000 0.45350  0.62990  0.58010  Biso   1.000  H
  C554     1.0000 0.45970  0.49360  0.56980  Biso   1.000  C
  C555     1.0000 0.45290  0.40350  0.56990  Biso   1.000  C
  H319     1.0000 0.45820  0.35150  0.55780  Biso   1.000  H
  C556     1.0000 0.43870  0.38900  0.58710  Biso   1.000  C
  H320     1.0000 0.43510  0.32730  0.59200  Biso   1.000  H
  C557     1.0000 0.47530  0.51330  0.55320  Biso   1.000  C
  C558     1.0000 0.33330  0.69710  0.83770  Biso   1.000  C
  C559     1.0000 0.33940  0.77820  0.85410  Biso   1.000  C
  C560     1.0000 0.35590  0.78550  0.86740  Biso   1.000  C
  C561     1.0000 0.36490  0.70940  0.85960  Biso   1.000  C
  C562     1.0000 0.35930  0.62410  0.83720  Biso   1.000  C
  C563     1.0000 0.34240  0.61400  0.82770  Biso   1.000  C
  C564     1.0000 0.33770  0.52560  0.80580  Biso   1.000  C
  H321     1.0000 0.32780  0.51750  0.79570  Biso   1.000  H
  C565     1.0000 0.34770  0.45590  0.80010  Biso   1.000  C
  H322     1.0000 0.34440  0.40000  0.78550  Biso   1.000  H
  C566     1.0000 0.36220  0.45980  0.81380  Biso   1.000  C
  H323     1.0000 0.36830  0.40630  0.81000  Biso   1.000  H
  C567     1.0000 0.36770  0.53520  0.83200  Biso   1.000  C
  H324     1.0000 0.37760  0.53380  0.84250  Biso   1.000  H
  C568     1.0000 0.38090  0.71700  0.87110  Biso   1.000  C
  C569     1.0000 0.38570  0.71520  0.92150  Biso   1.000  C
  C570     1.0000 0.40080  0.71460  0.93490  Biso   1.000  C
  C571     1.0000 0.41190  0.71650  0.90030  Biso   1.000  C
  C572     1.0000 0.40890  0.71790  0.84990  Biso   1.000  C
  C573     1.0000 0.39260  0.71570  0.83910  Biso   1.000  C
  C574     1.0000 0.38820  0.72400  0.78870  Biso   1.000  C
  H325     1.0000 0.37810  0.72770  0.78010  Biso   1.000  H
  C575     1.0000 0.40010  0.72510  0.75230  Biso   1.000  C
  H326     1.0000 0.39750  0.72980  0.72000  Biso   1.000  H
  C576     1.0000 0.41500  0.71950  0.76580  Biso   1.000  C
  H327     1.0000 0.42250  0.71540  0.74280  Biso   1.000  H
  C577     1.0000 0.41850  0.72010  0.81500  Biso   1.000  C
  H328     1.0000 0.42870  0.72210  0.82310  Biso   1.000  H
  C578     1.0000 0.40510  0.71320  0.98340  Biso   1.000  C
  H329     1.0000 0.41520  0.71790  0.99210  Biso   1.000  H
  C579     1.0000 0.39340  0.70420  0.01960  Biso   1.000  C
  H330     1.0000 0.39570  0.69960  0.05210  Biso   1.000  H
  C580     1.0000 0.37800  0.70280  0.00300  Biso   1.000  C
  H331     1.0000 0.37060  0.69920  0.02640  Biso   1.000  H
  C581     1.0000 0.37360  0.70580  0.96010  Biso   1.000  C
  H332     1.0000 0.36340  0.70250  0.95230  Biso   1.000  H
  C582     1.0000 0.42910  0.70910  0.91580  Biso   1.000  C
  C583     1.0000 0.43550  0.78730  0.93470  Biso   1.000  C
  H333     1.0000 0.43030  0.84500  0.93660  Biso   1.000  H
  C584     1.0000 0.45060  0.77810  0.95180  Biso   1.000  C
  H334     1.0000 0.45510  0.82990  0.96710  Biso   1.000  H
  C585     1.0000 0.45850  0.69730  0.94640  Biso   1.000  C
  C586     1.0000 0.45090  0.62170  0.92430  Biso   1.000  C
  H335     1.0000 0.45630  0.56650  0.91740  Biso   1.000  H
  C587     1.0000 0.43610  0.62410  0.91240  Biso   1.000  C
  H336     1.0000 0.43100  0.56950  0.90230  Biso   1.000  H
  C588     1.0000 0.47470  0.68490  0.96450  Biso   1.000  C
  O49      1.0000 0.26330  0.49180  0.72880  Biso   1.000  O
  O50      1.0000 0.26540  0.63020  0.68190  Biso   1.000  O
  O51      1.0000 0.48350  0.43840  0.55510  Biso   1.000  O
  O52      1.0000 0.47974  0.58760  0.54520  Biso   1.000  O
  O53      1.0000 0.48149  0.61120  0.95790  Biso   1.000  O
  O54      1.0000 0.48010  0.75720  0.98650  Biso   1.000  O
  O55      1.0000 0.26340  0.55930  0.82140  Biso   1.000  O
  O56      1.0000 0.26250  0.68510  0.77580  Biso   1.000  O
  Tb7      1.0000 0.24899  0.43808  0.78702  Biso   1.000  Tb
  C589     1.0000 0.36050  0.37080  0.39180  Biso   1.000  C
  H337     1.0000 0.37040  0.37510  0.40270  Biso   1.000  H
  C590     1.0000 0.35150  0.44340  0.39950  Biso   1.000  C
  H338     1.0000 0.35540  0.50090  0.41040  Biso   1.000  H
  C591     1.0000 0.33530  0.43610  0.39140  Biso   1.000  C
  H339     1.0000 0.32880  0.48340  0.40220  Biso   1.000  H
  C592     1.0000 0.32990  0.35650  0.36700  Biso   1.000  C
  H340     1.0000 0.31980  0.35420  0.35880  Biso   1.000  H
  C593     1.0000 0.31740  0.18040  0.32840  Biso   1.000  C
  C594     1.0000 0.30890  0.23250  0.29300  Biso   1.000  C
  H341     1.0000 0.31380  0.28000  0.27560  Biso   1.000  H
  C595     1.0000 0.29380  0.21520  0.28320  Biso   1.000  C
  H342     1.0000 0.28910  0.24590  0.25760  Biso   1.000  H
  C596     1.0000 0.28580  0.15340  0.31120  Biso   1.000  C
  C597     1.0000 0.29390  0.10120  0.35040  Biso   1.000  C
  H343     1.0000 0.28870  0.05790  0.36970  Biso   1.000  H
  C598     1.0000 0.30840  0.11740  0.35720  Biso   1.000  C
  H344     1.0000 0.31320  0.08580  0.38240  Biso   1.000  H
  C599     1.0000 0.27020  0.13190  0.30180  Biso   1.000  C
  C600     1.0000 0.26930  0.05190  0.19950  Biso   1.000  C
  C601     1.0000 0.28720  0.02820  0.18590  Biso   1.000  C
  C602     1.0000 0.29440  0.06820  0.15480  Biso   1.000  C
  H345     1.0000 0.28950  0.11610  0.13770  Biso   1.000  H
  C603     1.0000 0.30860  0.05000  0.14300  Biso   1.000  C
  H346     1.0000 0.31270  0.07830  0.11580  Biso   1.000  H
  C604     1.0000 0.31760  0.98720  0.17150  Biso   1.000  C
  C605     1.0000 0.30940  0.94120  0.20920  Biso   1.000  C
  H347     1.0000 0.31460  0.90030  0.22960  Biso   1.000  H
  C606     1.0000 0.29450  0.95350  0.21700  Biso   1.000  C
  H348     1.0000 0.28920  0.91860  0.23980  Biso   1.000  H
  C607     1.0000 0.34370  0.05280  0.17370  Biso   1.000  C
  C608     1.0000 0.35970  0.04090  0.15930  Biso   1.000  C
  C609     1.0000 0.36490  0.95790  0.14410  Biso   1.000  C
  C610     1.0000 0.35540  0.87830  0.13690  Biso   1.000  C
  C611     1.0000 0.33890  0.88270  0.14410  Biso   1.000  C
  C612     1.0000 0.33400  0.97640  0.16420  Biso   1.000  C
  C613     1.0000 0.33860  0.14000  0.19690  Biso   1.000  C
  H349     1.0000 0.32880  0.14170  0.20840  Biso   1.000  H
  C614     1.0000 0.34710  0.21760  0.20290  Biso   1.000  C
  H350     1.0000 0.34320  0.27440  0.21520  Biso   1.000  H
  C615     1.0000 0.36260  0.20730  0.18890  Biso   1.000  C
  H351     1.0000 0.36890  0.25980  0.19290  Biso   1.000  H
  C616     1.0000 0.36870  0.12580  0.17030  Biso   1.000  C
  H352     1.0000 0.37900  0.12400  0.16450  Biso   1.000  H
  C617     1.0000 0.36090  0.79140  0.11830  Biso   1.000  C
  H353     1.0000 0.37110  0.78500  0.11270  Biso   1.000  H
  C618     1.0000 0.35140  0.71420  0.10800  Biso   1.000  C
  H354     1.0000 0.35520  0.65660  0.09650  Biso   1.000  H
  C619     1.0000 0.33480  0.72840  0.11660  Biso   1.000  C
  H355     1.0000 0.32810  0.67970  0.10840  Biso   1.000  H
  C620     1.0000 0.32950  0.80750  0.13520  Biso   1.000  C
  H356     1.0000 0.31930  0.81250  0.14230  Biso   1.000  H
  C621     1.0000 0.38170  0.95150  0.13160  Biso   1.000  C
  C622     1.0000 0.39280  0.94400  0.17110  Biso   1.000  C
  C623     1.0000 0.40830  0.94760  0.16020  Biso   1.000  C
  C624     1.0000 0.41380  0.95650  0.11120  Biso   1.000  C
  C625     1.0000 0.40220  0.95410  0.07290  Biso   1.000  C
  C626     1.0000 0.38710  0.95430  0.08870  Biso   1.000  C
  C627     1.0000 0.37570  0.95590  0.04580  Biso   1.000  C
  H357     1.0000 0.36540  0.95430  0.05120  Biso   1.000  H
  C628     1.0000 0.38120  0.95970  0.00070  Biso   1.000  C
  H358     1.0000 0.37430  0.96100  0.97570  Biso   1.000  H
  C629     1.0000 0.39670  0.96180  0.98870  Biso   1.000  C
  H359     1.0000 0.39970  0.96810  0.95690  Biso   1.000  H
  C630     1.0000 0.40630  0.95490  0.02180  Biso   1.000  C
  H360     1.0000 0.41640  0.95020  0.01360  Biso   1.000  H
  C631     1.0000 0.38870  0.93860  0.22130  Biso   1.000  C
  H361     1.0000 0.37860  0.94080  0.23000  Biso   1.000  H
  C632     1.0000 0.39910  0.93070  0.25500  Biso   1.000  C
  H362     1.0000 0.39640  0.91920  0.28660  Biso   1.000  H
  C633     1.0000 0.41410  0.93940  0.24300  Biso   1.000  C
  H363     1.0000 0.42090  0.94460  0.26830  Biso   1.000  H
  C634     1.0000 0.41970  0.94130  0.20060  Biso   1.000  C
  H364     1.0000 0.43000  0.93890  0.19510  Biso   1.000  H
  C635     1.0000 0.42970  0.96660  0.09710  Biso   1.000  C
  C636     1.0000 0.43560  0.05070  0.09890  Biso   1.000  C
  H365     1.0000 0.43000  0.10120  0.11140  Biso   1.000  H
  C637     1.0000 0.45010  0.06730  0.08260  Biso   1.000  C
  H366     1.0000 0.45350  0.12990  0.08010  Biso   1.000  H
  C638     1.0000 0.45970  0.99360  0.06980  Biso   1.000  C
  C639     1.0000 0.45290  0.90350  0.06990  Biso   1.000  C
  H367     1.0000 0.45820  0.85150  0.05780  Biso   1.000  H
  C640     1.0000 0.43870  0.88900  0.08710  Biso   1.000  C
  H368     1.0000 0.43510  0.82730  0.09200  Biso   1.000  H
  C641     1.0000 0.47530  0.01330  0.05320  Biso   1.000  C
  C642     1.0000 0.33330  0.19710  0.33770  Biso   1.000  C
  C643     1.0000 0.33940  0.27820  0.35410  Biso   1.000  C
  C644     1.0000 0.35590  0.28550  0.36740  Biso   1.000  C
  C645     1.0000 0.36490  0.20940  0.35960  Biso   1.000  C
  C646     1.0000 0.35930  0.12410  0.33720  Biso   1.000  C
  C647     1.0000 0.34240  0.11400  0.32770  Biso   1.000  C
  C648     1.0000 0.33770  0.02560  0.30580  Biso   1.000  C
  H369     1.0000 0.32780  0.01750  0.29570  Biso   1.000  H
  C649     1.0000 0.34770  0.95590  0.30010  Biso   1.000  C
  H370     1.0000 0.34440  0.90000  0.28550  Biso   1.000  H
  C650     1.0000 0.36220  0.95980  0.31380  Biso   1.000  C
  H371     1.0000 0.36830  0.90630  0.31000  Biso   1.000  H
  C651     1.0000 0.36770  0.03520  0.33200  Biso   1.000  C
  H372     1.0000 0.37760  0.03380  0.34250  Biso   1.000  H
  C652     1.0000 0.38090  0.21700  0.37110  Biso   1.000  C
  C653     1.0000 0.38570  0.21520  0.42150  Biso   1.000  C
  C654     1.0000 0.40080  0.21460  0.43490  Biso   1.000  C
  C655     1.0000 0.41190  0.21650  0.40030  Biso   1.000  C
  C656     1.0000 0.40890  0.21790  0.34990  Biso   1.000  C
  C657     1.0000 0.39260  0.21570  0.33910  Biso   1.000  C
  C658     1.0000 0.38820  0.22400  0.28870  Biso   1.000  C
  H373     1.0000 0.37810  0.22770  0.28010  Biso   1.000  H
  C659     1.0000 0.40010  0.22510  0.25230  Biso   1.000  C
  H374     1.0000 0.39750  0.22980  0.22000  Biso   1.000  H
  C660     1.0000 0.41500  0.21950  0.26580  Biso   1.000  C
  H375     1.0000 0.42250  0.21540  0.24280  Biso   1.000  H
  C661     1.0000 0.41850  0.22010  0.31500  Biso   1.000  C
  H376     1.0000 0.42870  0.22210  0.32310  Biso   1.000  H
  C662     1.0000 0.40510  0.21320  0.48340  Biso   1.000  C
  H377     1.0000 0.41520  0.21790  0.49210  Biso   1.000  H
  C663     1.0000 0.39340  0.20420  0.51960  Biso   1.000  C
  H378     1.0000 0.39570  0.19960  0.55210  Biso   1.000  H
  C664     1.0000 0.37800  0.20280  0.50300  Biso   1.000  C
  H379     1.0000 0.37060  0.19920  0.52640  Biso   1.000  H
  C665     1.0000 0.37360  0.20580  0.46010  Biso   1.000  C
  H380     1.0000 0.36340  0.20250  0.45230  Biso   1.000  H
  C666     1.0000 0.42910  0.20910  0.41580  Biso   1.000  C
  C667     1.0000 0.43550  0.28730  0.43470  Biso   1.000  C
  H381     1.0000 0.43030  0.34500  0.43660  Biso   1.000  H
  C668     1.0000 0.45060  0.27810  0.45180  Biso   1.000  C
  H382     1.0000 0.45510  0.32990  0.46710  Biso   1.000  H
  C669     1.0000 0.45850  0.19730  0.44640  Biso   1.000  C
  C670     1.0000 0.45090  0.12170  0.42430  Biso   1.000  C
  H383     1.0000 0.45630  0.06650  0.41740  Biso   1.000  H
  C671     1.0000 0.43610  0.12410  0.41240  Biso   1.000  C
  H384     1.0000 0.43100  0.06950  0.40230  Biso   1.000  H
  C672     1.0000 0.47470  0.18490  0.46450  Biso   1.000  C
  O57      1.0000 0.26330  0.99180  0.22880  Biso   1.000  O
  O58      1.0000 0.26540  0.13020  0.18190  Biso   1.000  O
  O59      1.0000 0.48350  0.93840  0.05510  Biso   1.000  O
  O60      1.0000 0.47974  0.08760  0.04520  Biso   1.000  O
  O61      1.0000 0.48149  0.11120  0.45790  Biso   1.000  O
  O62      1.0000 0.48010  0.25720  0.48650  Biso   1.000  O
  O63      1.0000 0.26340  0.05930  0.32140  Biso   1.000  O
  O64      1.0000 0.26250  0.18510  0.27580  Biso   1.000  O
  Tb8      1.0000 0.24899  0.93808  0.28702  Biso   1.000  Tb
  C673     1.0000 0.38950  0.12080  0.64180  Biso   1.000  C
  H385     1.0000 0.37960  0.12510  0.65270  Biso   1.000  H
  C674     1.0000 0.39850  0.19340  0.64950  Biso   1.000  C
  H386     1.0000 0.39460  0.25090  0.66040  Biso   1.000  H
  C675     1.0000 0.41470  0.18610  0.64140  Biso   1.000  C
  H387     1.0000 0.42120  0.23340  0.65220  Biso   1.000  H
  C676     1.0000 0.42010  0.10650  0.61700  Biso   1.000  C
  H388     1.0000 0.43020  0.10420  0.60880  Biso   1.000  H
  C677     1.0000 0.43260  0.93040  0.57840  Biso   1.000  C
  C678     1.0000 0.44110  0.98250  0.54300  Biso   1.000  C
  H389     1.0000 0.43620  0.03000  0.52560  Biso   1.000  H
  C679     1.0000 0.45620  0.96520  0.53320  Biso   1.000  C
  H390     1.0000 0.46090  0.99590  0.50760  Biso   1.000  H
  C680     1.0000 0.46420  0.90340  0.56120  Biso   1.000  C
  C681     1.0000 0.45610  0.85120  0.60040  Biso   1.000  C
  H391     1.0000 0.46130  0.80790  0.61970  Biso   1.000  H
  C682     1.0000 0.44160  0.86740  0.60720  Biso   1.000  C
  H392     1.0000 0.43680  0.83580  0.63240  Biso   1.000  H
  C683     1.0000 0.47980  0.88190  0.55180  Biso   1.000  C
  C684     1.0000 0.48070  0.80190  0.44950  Biso   1.000  C
  C685     1.0000 0.46280  0.77820  0.43590  Biso   1.000  C
  C686     1.0000 0.45560  0.81820  0.40480  Biso   1.000  C
  H393     1.0000 0.46050  0.86610  0.38770  Biso   1.000  H
  C687     1.0000 0.44140  0.80000  0.39300  Biso   1.000  C
  H394     1.0000 0.43730  0.82830  0.36580  Biso   1.000  H
  C688     1.0000 0.43240  0.73720  0.42150  Biso   1.000  C
  C689     1.0000 0.44060  0.69120  0.45920  Biso   1.000  C
  H395     1.0000 0.43540  0.65030  0.47960  Biso   1.000  H
  C690     1.0000 0.45550  0.70350  0.46700  Biso   1.000  C
  H396     1.0000 0.46080  0.66860  0.48980  Biso   1.000  H
  C691     1.0000 0.40630  0.80280  0.42370  Biso   1.000  C
  C692     1.0000 0.39030  0.79090  0.40930  Biso   1.000  C
  C693     1.0000 0.38510  0.70790  0.39410  Biso   1.000  C
  C694     1.0000 0.39460  0.62830  0.38690  Biso   1.000  C
  C695     1.0000 0.41110  0.63270  0.39410  Biso   1.000  C
  C696     1.0000 0.41600  0.72640  0.41420  Biso   1.000  C
  C697     1.0000 0.41140  0.89000  0.44690  Biso   1.000  C
  H397     1.0000 0.42120  0.89170  0.45840  Biso   1.000  H
  C698     1.0000 0.40290  0.96760  0.45290  Biso   1.000  C
  H398     1.0000 0.40680  0.02440  0.46520  Biso   1.000  H
  C699     1.0000 0.38740  0.95730  0.43890  Biso   1.000  C
  H399     1.0000 0.38110  0.00980  0.44290  Biso   1.000  H
  C700     1.0000 0.38130  0.87580  0.42030  Biso   1.000  C
  H400     1.0000 0.37100  0.87400  0.41450  Biso   1.000  H
  C701     1.0000 0.38910  0.54140  0.36830  Biso   1.000  C
  H401     1.0000 0.37890  0.53500  0.36270  Biso   1.000  H
  C702     1.0000 0.39860  0.46420  0.35800  Biso   1.000  C
  H402     1.0000 0.39480  0.40660  0.34650  Biso   1.000  H
  C703     1.0000 0.41520  0.47840  0.36660  Biso   1.000  C
  H403     1.0000 0.42190  0.42970  0.35840  Biso   1.000  H
  C704     1.0000 0.42050  0.55750  0.38520  Biso   1.000  C
  H404     1.0000 0.43070  0.56250  0.39230  Biso   1.000  H
  C705     1.0000 0.36830  0.70150  0.38160  Biso   1.000  C
  C706     1.0000 0.35720  0.69400  0.42110  Biso   1.000  C
  C707     1.0000 0.34170  0.69760  0.41020  Biso   1.000  C
  C708     1.0000 0.33620  0.70650  0.36120  Biso   1.000  C
  C709     1.0000 0.34780  0.70410  0.32290  Biso   1.000  C
  C710     1.0000 0.36290  0.70430  0.33870  Biso   1.000  C
  C711     1.0000 0.37430  0.70590  0.29580  Biso   1.000  C
  H405     1.0000 0.38460  0.70430  0.30120  Biso   1.000  H
  C712     1.0000 0.36880  0.70970  0.25070  Biso   1.000  C
  H406     1.0000 0.37570  0.71100  0.22570  Biso   1.000  H
  C713     1.0000 0.35330  0.71180  0.23870  Biso   1.000  C
  H407     1.0000 0.35030  0.71810  0.20690  Biso   1.000  H
  C714     1.0000 0.34370  0.70490  0.27180  Biso   1.000  C
  H408     1.0000 0.33360  0.70020  0.26360  Biso   1.000  H
  C715     1.0000 0.36130  0.68860  0.47130  Biso   1.000  C
  H409     1.0000 0.37140  0.69080  0.48000  Biso   1.000  H
  C716     1.0000 0.35090  0.68070  0.50500  Biso   1.000  C
  H410     1.0000 0.35360  0.66920  0.53660  Biso   1.000  H
  C717     1.0000 0.33590  0.68940  0.49300  Biso   1.000  C
  H411     1.0000 0.32910  0.69460  0.51830  Biso   1.000  H
  C718     1.0000 0.33030  0.69130  0.45060  Biso   1.000  C
  H412     1.0000 0.32000  0.68890  0.44510  Biso   1.000  H
  C719     1.0000 0.32030  0.71660  0.34710  Biso   1.000  C
  C720     1.0000 0.31440  0.80070  0.34890  Biso   1.000  C
  H413     1.0000 0.32000  0.85120  0.36140  Biso   1.000  H
  C721     1.0000 0.29990  0.81730  0.33260  Biso   1.000  C
  H414     1.0000 0.29650  0.87990  0.33010  Biso   1.000  H
  C722     1.0000 0.29030  0.74360  0.31980  Biso   1.000  C
  C723     1.0000 0.29710  0.65350  0.31990  Biso   1.000  C
  H415     1.0000 0.29180  0.60150  0.30780  Biso   1.000  H
  C724     1.0000 0.31130  0.63900  0.33710  Biso   1.000  C
  H416     1.0000 0.31490  0.57730  0.34200  Biso   1.000  H
  C725     1.0000 0.27470  0.76330  0.30320  Biso   1.000  C
  C726     1.0000 0.41670  0.94710  0.58770  Biso   1.000  C
  C727     1.0000 0.41060  0.02820  0.60410  Biso   1.000  C
  C728     1.0000 0.39410  0.03550  0.61740  Biso   1.000  C
  C729     1.0000 0.38510  0.95940  0.60960  Biso   1.000  C
  C730     1.0000 0.39070  0.87410  0.58720  Biso   1.000  C
  C731     1.0000 0.40760  0.86400  0.57770  Biso   1.000  C
  C732     1.0000 0.41230  0.77560  0.55580  Biso   1.000  C
  H417     1.0000 0.42220  0.76750  0.54570  Biso   1.000  H
  C733     1.0000 0.40230  0.70590  0.55010  Biso   1.000  C
  H418     1.0000 0.40560  0.65000  0.53550  Biso   1.000  H
  C734     1.0000 0.38780  0.70980  0.56380  Biso   1.000  C
  H419     1.0000 0.38170  0.65630  0.56000  Biso   1.000  H
  C735     1.0000 0.38230  0.78520  0.58200  Biso   1.000  C
  H420     1.0000 0.37240  0.78380  0.59250  Biso   1.000  H
  C736     1.0000 0.36910  0.96700  0.62110  Biso   1.000  C
  C737     1.0000 0.36430  0.96520  0.67150  Biso   1.000  C
  C738     1.0000 0.34920  0.96460  0.68490  Biso   1.000  C
  C739     1.0000 0.33810  0.96650  0.65030  Biso   1.000  C
  C740     1.0000 0.34110  0.96790  0.59990  Biso   1.000  C
  C741     1.0000 0.35740  0.96570  0.58910  Biso   1.000  C
  C742     1.0000 0.36180  0.97400  0.53870  Biso   1.000  C
  H421     1.0000 0.37190  0.97770  0.53010  Biso   1.000  H
  C743     1.0000 0.34990  0.97510  0.50230  Biso   1.000  C
  H422     1.0000 0.35250  0.97980  0.47000  Biso   1.000  H
  C744     1.0000 0.33500  0.96950  0.51580  Biso   1.000  C
  H423     1.0000 0.32750  0.96540  0.49280  Biso   1.000  H
  C745     1.0000 0.33150  0.97010  0.56500  Biso   1.000  C
  H424     1.0000 0.32130  0.97210  0.57310  Biso   1.000  H
  C746     1.0000 0.34490  0.96320  0.73340  Biso   1.000  C
  H425     1.0000 0.33480  0.96790  0.74210  Biso   1.000  H
  C747     1.0000 0.35660  0.95420  0.76960  Biso   1.000  C
  H426     1.0000 0.35430  0.94960  0.80210  Biso   1.000  H
  C748     1.0000 0.37200  0.95280  0.75300  Biso   1.000  C
  H427     1.0000 0.37940  0.94920  0.77640  Biso   1.000  H
  C749     1.0000 0.37640  0.95580  0.71010  Biso   1.000  C
  H428     1.0000 0.38660  0.95250  0.70230  Biso   1.000  H
  C750     1.0000 0.32090  0.95910  0.66580  Biso   1.000  C
  C751     1.0000 0.31450  0.03730  0.68470  Biso   1.000  C
  H429     1.0000 0.31970  0.09500  0.68660  Biso   1.000  H
  C752     1.0000 0.29940  0.02810  0.70180  Biso   1.000  C
  H430     1.0000 0.29490  0.07990  0.71710  Biso   1.000  H
  C753     1.0000 0.29150  0.94730  0.69640  Biso   1.000  C
  C754     1.0000 0.29910  0.87170  0.67430  Biso   1.000  C
  H431     1.0000 0.29370  0.81650  0.66740  Biso   1.000  H
  C755     1.0000 0.31390  0.87410  0.66240  Biso   1.000  C
  H432     1.0000 0.31900  0.81950  0.65230  Biso   1.000  H
  C756     1.0000 0.27530  0.93490  0.71450  Biso   1.000  C
  O65      1.0000 0.48670  0.74180  0.47880  Biso   1.000  O
  O66      1.0000 0.48460  0.88020  0.43190  Biso   1.000  O
  O67      1.0000 0.26650  0.68840  0.30510  Biso   1.000  O
  O68      1.0000 0.27026  0.83760  0.29520  Biso   1.000  O
  O69      1.0000 0.26851  0.86120  0.70790  Biso   1.000  O
  O70      1.0000 0.26990  0.00720  0.73650  Biso   1.000  O
  O71      1.0000 0.48660  0.80930  0.57140  Biso   1.000  O
  O72      1.0000 0.48750  0.93510  0.52580  Biso   1.000  O
  Tb9      1.0000 0.50101  0.68808  0.53702  Biso   1.000  Tb
  C757     1.0000 0.38950  0.62080  0.14180  Biso   1.000  C
  H433     1.0000 0.37960  0.62510  0.15270  Biso   1.000  H
  C758     1.0000 0.39850  0.69340  0.14950  Biso   1.000  C
  H434     1.0000 0.39460  0.75090  0.16040  Biso   1.000  H
  C759     1.0000 0.41470  0.68610  0.14140  Biso   1.000  C
  H435     1.0000 0.42120  0.73340  0.15220  Biso   1.000  H
  C760     1.0000 0.42010  0.60650  0.11700  Biso   1.000  C
  H436     1.0000 0.43020  0.60420  0.10880  Biso   1.000  H
  C761     1.0000 0.43260  0.43040  0.07840  Biso   1.000  C
  C762     1.0000 0.44110  0.48250  0.04300  Biso   1.000  C
  H437     1.0000 0.43620  0.53000  0.02560  Biso   1.000  H
  C763     1.0000 0.45620  0.46520  0.03320  Biso   1.000  C
  H438     1.0000 0.46090  0.49590  0.00760  Biso   1.000  H
  C764     1.0000 0.46420  0.40340  0.06120  Biso   1.000  C
  C765     1.0000 0.45610  0.35120  0.10040  Biso   1.000  C
  H439     1.0000 0.46130  0.30790  0.11970  Biso   1.000  H
  C766     1.0000 0.44160  0.36740  0.10720  Biso   1.000  C
  H440     1.0000 0.43680  0.33580  0.13240  Biso   1.000  H
  C767     1.0000 0.47980  0.38190  0.05180  Biso   1.000  C
  C768     1.0000 0.48070  0.30190  0.94950  Biso   1.000  C
  C769     1.0000 0.46280  0.27820  0.93590  Biso   1.000  C
  C770     1.0000 0.45560  0.31820  0.90480  Biso   1.000  C
  H441     1.0000 0.46050  0.36610  0.88770  Biso   1.000  H
  C771     1.0000 0.44140  0.30000  0.89300  Biso   1.000  C
  H442     1.0000 0.43730  0.32830  0.86580  Biso   1.000  H
  C772     1.0000 0.43240  0.23720  0.92150  Biso   1.000  C
  C773     1.0000 0.44060  0.19120  0.95920  Biso   1.000  C
  H443     1.0000 0.43540  0.15030  0.97960  Biso   1.000  H
  C774     1.0000 0.45550  0.20350  0.96700  Biso   1.000  C
  H444     1.0000 0.46080  0.16860  0.98980  Biso   1.000  H
  C775     1.0000 0.40630  0.30280  0.92370  Biso   1.000  C
  C776     1.0000 0.39030  0.29090  0.90930  Biso   1.000  C
  C777     1.0000 0.38510  0.20790  0.89410  Biso   1.000  C
  C778     1.0000 0.39460  0.12830  0.88690  Biso   1.000  C
  C779     1.0000 0.41110  0.13270  0.89410  Biso   1.000  C
  C780     1.0000 0.41600  0.22640  0.91420  Biso   1.000  C
  C781     1.0000 0.41140  0.39000  0.94690  Biso   1.000  C
  H445     1.0000 0.42120  0.39170  0.95840  Biso   1.000  H
  C782     1.0000 0.40290  0.46760  0.95290  Biso   1.000  C
  H446     1.0000 0.40680  0.52440  0.96520  Biso   1.000  H
  C783     1.0000 0.38740  0.45730  0.93890  Biso   1.000  C
  H447     1.0000 0.38110  0.50980  0.94290  Biso   1.000  H
  C784     1.0000 0.38130  0.37580  0.92030  Biso   1.000  C
  H448     1.0000 0.37100  0.37400  0.91450  Biso   1.000  H
  C785     1.0000 0.38910  0.04140  0.86830  Biso   1.000  C
  H449     1.0000 0.37890  0.03500  0.86270  Biso   1.000  H
  C786     1.0000 0.39860  0.96420  0.85800  Biso   1.000  C
  H450     1.0000 0.39480  0.90660  0.84650  Biso   1.000  H
  C787     1.0000 0.41520  0.97840  0.86660  Biso   1.000  C
  H451     1.0000 0.42190  0.92970  0.85840  Biso   1.000  H
  C788     1.0000 0.42050  0.05750  0.88520  Biso   1.000  C
  H452     1.0000 0.43070  0.06250  0.89230  Biso   1.000  H
  C789     1.0000 0.36830  0.20150  0.88160  Biso   1.000  C
  C790     1.0000 0.35720  0.19400  0.92110  Biso   1.000  C
  C791     1.0000 0.34170  0.19760  0.91020  Biso   1.000  C
  C792     1.0000 0.33620  0.20650  0.86120  Biso   1.000  C
  C793     1.0000 0.34780  0.20410  0.82290  Biso   1.000  C
  C794     1.0000 0.36290  0.20430  0.83870  Biso   1.000  C
  C795     1.0000 0.37430  0.20590  0.79580  Biso   1.000  C
  H453     1.0000 0.38460  0.20430  0.80120  Biso   1.000  H
  C796     1.0000 0.36880  0.20970  0.75070  Biso   1.000  C
  H454     1.0000 0.37570  0.21100  0.72570  Biso   1.000  H
  C797     1.0000 0.35330  0.21180  0.73870  Biso   1.000  C
  H455     1.0000 0.35030  0.21810  0.70690  Biso   1.000  H
  C798     1.0000 0.34370  0.20490  0.77180  Biso   1.000  C
  H456     1.0000 0.33360  0.20020  0.76360  Biso   1.000  H
  C799     1.0000 0.36130  0.18860  0.97130  Biso   1.000  C
  H457     1.0000 0.37140  0.19080  0.98000  Biso   1.000  H
  C800     1.0000 0.35090  0.18070  0.00500  Biso   1.000  C
  H458     1.0000 0.35360  0.16920  0.03660  Biso   1.000  H
  C801     1.0000 0.33590  0.18940  0.99300  Biso   1.000  C
  H459     1.0000 0.32910  0.19460  0.01830  Biso   1.000  H
  C802     1.0000 0.33030  0.19130  0.95060  Biso   1.000  C
  H460     1.0000 0.32000  0.18890  0.94510  Biso   1.000  H
  C803     1.0000 0.32030  0.21660  0.84710  Biso   1.000  C
  C804     1.0000 0.31440  0.30070  0.84890  Biso   1.000  C
  H461     1.0000 0.32000  0.35120  0.86140  Biso   1.000  H
  C805     1.0000 0.29990  0.31730  0.83260  Biso   1.000  C
  H462     1.0000 0.29650  0.37990  0.83010  Biso   1.000  H
  C806     1.0000 0.29030  0.24360  0.81980  Biso   1.000  C
  C807     1.0000 0.29710  0.15350  0.81990  Biso   1.000  C
  H463     1.0000 0.29180  0.10150  0.80780  Biso   1.000  H
  C808     1.0000 0.31130  0.13900  0.83710  Biso   1.000  C
  H464     1.0000 0.31490  0.07730  0.84200  Biso   1.000  H
  C809     1.0000 0.27470  0.26330  0.80320  Biso   1.000  C
  C810     1.0000 0.41670  0.44710  0.08770  Biso   1.000  C
  C811     1.0000 0.41060  0.52820  0.10410  Biso   1.000  C
  C812     1.0000 0.39410  0.53550  0.11740  Biso   1.000  C
  C813     1.0000 0.38510  0.45940  0.10960  Biso   1.000  C
  C814     1.0000 0.39070  0.37410  0.08720  Biso   1.000  C
  C815     1.0000 0.40760  0.36400  0.07770  Biso   1.000  C
  C816     1.0000 0.41230  0.27560  0.05580  Biso   1.000  C
  H465     1.0000 0.42220  0.26750  0.04570  Biso   1.000  H
  C817     1.0000 0.40230  0.20590  0.05010  Biso   1.000  C
  H466     1.0000 0.40560  0.15000  0.03550  Biso   1.000  H
  C818     1.0000 0.38780  0.20980  0.06380  Biso   1.000  C
  H467     1.0000 0.38170  0.15630  0.06000  Biso   1.000  H
  C819     1.0000 0.38230  0.28520  0.08200  Biso   1.000  C
  H468     1.0000 0.37240  0.28380  0.09250  Biso   1.000  H
  C820     1.0000 0.36910  0.46700  0.12110  Biso   1.000  C
  C821     1.0000 0.36430  0.46520  0.17150  Biso   1.000  C
  C822     1.0000 0.34920  0.46460  0.18490  Biso   1.000  C
  C823     1.0000 0.33810  0.46650  0.15030  Biso   1.000  C
  C824     1.0000 0.34110  0.46790  0.09990  Biso   1.000  C
  C825     1.0000 0.35740  0.46570  0.08910  Biso   1.000  C
  C826     1.0000 0.36180  0.47400  0.03870  Biso   1.000  C
  H469     1.0000 0.37190  0.47770  0.03010  Biso   1.000  H
  C827     1.0000 0.34990  0.47510  0.00230  Biso   1.000  C
  H470     1.0000 0.35250  0.47980  0.97000  Biso   1.000  H
  C828     1.0000 0.33500  0.46950  0.01580  Biso   1.000  C
  H471     1.0000 0.32750  0.46540  0.99280  Biso   1.000  H
  C829     1.0000 0.33150  0.47010  0.06500  Biso   1.000  C
  H472     1.0000 0.32130  0.47210  0.07310  Biso   1.000  H
  C830     1.0000 0.34490  0.46320  0.23340  Biso   1.000  C
  H473     1.0000 0.33480  0.46790  0.24210  Biso   1.000  H
  C831     1.0000 0.35660  0.45420  0.26960  Biso   1.000  C
  H474     1.0000 0.35430  0.44960  0.30210  Biso   1.000  H
  C832     1.0000 0.37200  0.45280  0.25300  Biso   1.000  C
  H475     1.0000 0.37940  0.44920  0.27640  Biso   1.000  H
  C833     1.0000 0.37640  0.45580  0.21010  Biso   1.000  C
  H476     1.0000 0.38660  0.45250  0.20230  Biso   1.000  H
  C834     1.0000 0.32090  0.45910  0.16580  Biso   1.000  C
  C835     1.0000 0.31450  0.53730  0.18470  Biso   1.000  C
  H477     1.0000 0.31970  0.59500  0.18660  Biso   1.000  H
  C836     1.0000 0.29940  0.52810  0.20180  Biso   1.000  C
  H478     1.0000 0.29490  0.57990  0.21710  Biso   1.000  H
  C837     1.0000 0.29150  0.44730  0.19640  Biso   1.000  C
  C838     1.0000 0.29910  0.37170  0.17430  Biso   1.000  C
  H479     1.0000 0.29370  0.31650  0.16740  Biso   1.000  H
  C839     1.0000 0.31390  0.37410  0.16240  Biso   1.000  C
  H480     1.0000 0.31900  0.31950  0.15230  Biso   1.000  H
  C840     1.0000 0.27530  0.43490  0.21450  Biso   1.000  C
  O73      1.0000 0.48670  0.24180  0.97880  Biso   1.000  O
  O74      1.0000 0.48460  0.38020  0.93190  Biso   1.000  O
  O75      1.0000 0.26650  0.18840  0.80510  Biso   1.000  O
  O76      1.0000 0.27026  0.33760  0.79520  Biso   1.000  O
  O77      1.0000 0.26851  0.36120  0.20790  Biso   1.000  O
  O78      1.0000 0.26990  0.50720  0.23650  Biso   1.000  O
  O79      1.0000 0.48660  0.30930  0.07140  Biso   1.000  O
  O80      1.0000 0.48750  0.43510  0.02580  Biso   1.000  O
  Tb10     1.0000 0.50101  0.18808  0.03702  Biso   1.000  Tb
  C841     1.0000 0.88950  0.12080  0.14180  Biso   1.000  C
  H481     1.0000 0.87960  0.12510  0.15270  Biso   1.000  H
  C842     1.0000 0.89850  0.19340  0.14950  Biso   1.000  C
  H482     1.0000 0.89460  0.25090  0.16040  Biso   1.000  H
  C843     1.0000 0.91470  0.18610  0.14140  Biso   1.000  C
  H483     1.0000 0.92120  0.23340  0.15220  Biso   1.000  H
  C844     1.0000 0.92010  0.10650  0.11700  Biso   1.000  C
  H484     1.0000 0.93020  0.10420  0.10880  Biso   1.000  H
  C845     1.0000 0.93260  0.93040  0.07840  Biso   1.000  C
  C846     1.0000 0.94110  0.98250  0.04300  Biso   1.000  C
  H485     1.0000 0.93620  0.03000  0.02560  Biso   1.000  H
  C847     1.0000 0.95620  0.96520  0.03320  Biso   1.000  C
  H486     1.0000 0.96090  0.99590  0.00760  Biso   1.000  H
  C848     1.0000 0.96420  0.90340  0.06120  Biso   1.000  C
  C849     1.0000 0.95610  0.85120  0.10040  Biso   1.000  C
  H487     1.0000 0.96130  0.80790  0.11970  Biso   1.000  H
  C850     1.0000 0.94160  0.86740  0.10720  Biso   1.000  C
  H488     1.0000 0.93680  0.83580  0.13240  Biso   1.000  H
  C851     1.0000 0.97980  0.88190  0.05180  Biso   1.000  C
  C852     1.0000 0.98070  0.80190  0.94950  Biso   1.000  C
  C853     1.0000 0.96280  0.77820  0.93590  Biso   1.000  C
  C854     1.0000 0.95560  0.81820  0.90480  Biso   1.000  C
  H489     1.0000 0.96050  0.86610  0.88770  Biso   1.000  H
  C855     1.0000 0.94140  0.80000  0.89300  Biso   1.000  C
  H490     1.0000 0.93730  0.82830  0.86580  Biso   1.000  H
  C856     1.0000 0.93240  0.73720  0.92150  Biso   1.000  C
  C857     1.0000 0.94060  0.69120  0.95920  Biso   1.000  C
  H491     1.0000 0.93540  0.65030  0.97960  Biso   1.000  H
  C858     1.0000 0.95550  0.70350  0.96700  Biso   1.000  C
  H492     1.0000 0.96080  0.66860  0.98980  Biso   1.000  H
  C859     1.0000 0.90630  0.80280  0.92370  Biso   1.000  C
  C860     1.0000 0.89030  0.79090  0.90930  Biso   1.000  C
  C861     1.0000 0.88510  0.70790  0.89410  Biso   1.000  C
  C862     1.0000 0.89460  0.62830  0.88690  Biso   1.000  C
  C863     1.0000 0.91110  0.63270  0.89410  Biso   1.000  C
  C864     1.0000 0.91600  0.72640  0.91420  Biso   1.000  C
  C865     1.0000 0.91140  0.89000  0.94690  Biso   1.000  C
  H493     1.0000 0.92120  0.89170  0.95840  Biso   1.000  H
  C866     1.0000 0.90290  0.96760  0.95290  Biso   1.000  C
  H494     1.0000 0.90680  0.02440  0.96520  Biso   1.000  H
  C867     1.0000 0.88740  0.95730  0.93890  Biso   1.000  C
  H495     1.0000 0.88110  0.00980  0.94290  Biso   1.000  H
  C868     1.0000 0.88130  0.87580  0.92030  Biso   1.000  C
  H496     1.0000 0.87100  0.87400  0.91450  Biso   1.000  H
  C869     1.0000 0.88910  0.54140  0.86830  Biso   1.000  C
  H497     1.0000 0.87890  0.53500  0.86270  Biso   1.000  H
  C870     1.0000 0.89860  0.46420  0.85800  Biso   1.000  C
  H498     1.0000 0.89480  0.40660  0.84650  Biso   1.000  H
  C871     1.0000 0.91520  0.47840  0.86660  Biso   1.000  C
  H499     1.0000 0.92190  0.42970  0.85840  Biso   1.000  H
  C872     1.0000 0.92050  0.55750  0.88520  Biso   1.000  C
  H500     1.0000 0.93070  0.56250  0.89230  Biso   1.000  H
  C873     1.0000 0.86830  0.70150  0.88160  Biso   1.000  C
  C874     1.0000 0.85720  0.69400  0.92110  Biso   1.000  C
  C875     1.0000 0.84170  0.69760  0.91020  Biso   1.000  C
  C876     1.0000 0.83620  0.70650  0.86120  Biso   1.000  C
  C877     1.0000 0.84780  0.70410  0.82290  Biso   1.000  C
  C878     1.0000 0.86290  0.70430  0.83870  Biso   1.000  C
  C879     1.0000 0.87430  0.70590  0.79580  Biso   1.000  C
  H501     1.0000 0.88460  0.70430  0.80120  Biso   1.000  H
  C880     1.0000 0.86880  0.70970  0.75070  Biso   1.000  C
  H502     1.0000 0.87570  0.71100  0.72570  Biso   1.000  H
  C881     1.0000 0.85330  0.71180  0.73870  Biso   1.000  C
  H503     1.0000 0.85030  0.71810  0.70690  Biso   1.000  H
  C882     1.0000 0.84370  0.70490  0.77180  Biso   1.000  C
  H504     1.0000 0.83360  0.70020  0.76360  Biso   1.000  H
  C883     1.0000 0.86130  0.68860  0.97130  Biso   1.000  C
  H505     1.0000 0.87140  0.69080  0.98000  Biso   1.000  H
  C884     1.0000 0.85090  0.68070  0.00500  Biso   1.000  C
  H506     1.0000 0.85360  0.66920  0.03660  Biso   1.000  H
  C885     1.0000 0.83590  0.68940  0.99300  Biso   1.000  C
  H507     1.0000 0.82910  0.69460  0.01830  Biso   1.000  H
  C886     1.0000 0.83030  0.69130  0.95060  Biso   1.000  C
  H508     1.0000 0.82000  0.68890  0.94510  Biso   1.000  H
  C887     1.0000 0.82030  0.71660  0.84710  Biso   1.000  C
  C888     1.0000 0.81440  0.80070  0.84890  Biso   1.000  C
  H509     1.0000 0.82000  0.85120  0.86140  Biso   1.000  H
  C889     1.0000 0.79990  0.81730  0.83260  Biso   1.000  C
  H510     1.0000 0.79650  0.87990  0.83010  Biso   1.000  H
  C890     1.0000 0.79030  0.74360  0.81980  Biso   1.000  C
  C891     1.0000 0.79710  0.65350  0.81990  Biso   1.000  C
  H511     1.0000 0.79180  0.60150  0.80780  Biso   1.000  H
  C892     1.0000 0.81130  0.63900  0.83710  Biso   1.000  C
  H512     1.0000 0.81490  0.57730  0.84200  Biso   1.000  H
  C893     1.0000 0.77470  0.76330  0.80320  Biso   1.000  C
  C894     1.0000 0.91670  0.94710  0.08770  Biso   1.000  C
  C895     1.0000 0.91060  0.02820  0.10410  Biso   1.000  C
  C896     1.0000 0.89410  0.03550  0.11740  Biso   1.000  C
  C897     1.0000 0.88510  0.95940  0.10960  Biso   1.000  C
  C898     1.0000 0.89070  0.87410  0.08720  Biso   1.000  C
  C899     1.0000 0.90760  0.86400  0.07770  Biso   1.000  C
  C900     1.0000 0.91230  0.77560  0.05580  Biso   1.000  C
  H513     1.0000 0.92220  0.76750  0.04570  Biso   1.000  H
  C901     1.0000 0.90230  0.70590  0.05010  Biso   1.000  C
  H514     1.0000 0.90560  0.65000  0.03550  Biso   1.000  H
  C902     1.0000 0.88780  0.70980  0.06380  Biso   1.000  C
  H515     1.0000 0.88170  0.65630  0.06000  Biso   1.000  H
  C903     1.0000 0.88230  0.78520  0.08200  Biso   1.000  C
  H516     1.0000 0.87240  0.78380  0.09250  Biso   1.000  H
  C904     1.0000 0.86910  0.96700  0.12110  Biso   1.000  C
  C905     1.0000 0.86430  0.96520  0.17150  Biso   1.000  C
  C906     1.0000 0.84920  0.96460  0.18490  Biso   1.000  C
  C907     1.0000 0.83810  0.96650  0.15030  Biso   1.000  C
  C908     1.0000 0.84110  0.96790  0.09990  Biso   1.000  C
  C909     1.0000 0.85740  0.96570  0.08910  Biso   1.000  C
  C910     1.0000 0.86180  0.97400  0.03870  Biso   1.000  C
  H517     1.0000 0.87190  0.97770  0.03010  Biso   1.000  H
  C911     1.0000 0.84990  0.97510  0.00230  Biso   1.000  C
  H518     1.0000 0.85250  0.97980  0.97000  Biso   1.000  H
  C912     1.0000 0.83500  0.96950  0.01580  Biso   1.000  C
  H519     1.0000 0.82750  0.96540  0.99280  Biso   1.000  H
  C913     1.0000 0.83150  0.97010  0.06500  Biso   1.000  C
  H520     1.0000 0.82130  0.97210  0.07310  Biso   1.000  H
  C914     1.0000 0.84490  0.96320  0.23340  Biso   1.000  C
  H521     1.0000 0.83480  0.96790  0.24210  Biso   1.000  H
  C915     1.0000 0.85660  0.95420  0.26960  Biso   1.000  C
  H522     1.0000 0.85430  0.94960  0.30210  Biso   1.000  H
  C916     1.0000 0.87200  0.95280  0.25300  Biso   1.000  C
  H523     1.0000 0.87940  0.94920  0.27640  Biso   1.000  H
  C917     1.0000 0.87640  0.95580  0.21010  Biso   1.000  C
  H524     1.0000 0.88660  0.95250  0.20230  Biso   1.000  H
  C918     1.0000 0.82090  0.95910  0.16580  Biso   1.000  C
  C919     1.0000 0.81450  0.03730  0.18470  Biso   1.000  C
  H525     1.0000 0.81970  0.09500  0.18660  Biso   1.000  H
  C920     1.0000 0.79940  0.02810  0.20180  Biso   1.000  C
  H526     1.0000 0.79490  0.07990  0.21710  Biso   1.000  H
  C921     1.0000 0.79150  0.94730  0.19640  Biso   1.000  C
  C922     1.0000 0.79910  0.87170  0.17430  Biso   1.000  C
  H527     1.0000 0.79370  0.81650  0.16740  Biso   1.000  H
  C923     1.0000 0.81390  0.87410  0.16240  Biso   1.000  C
  H528     1.0000 0.81900  0.81950  0.15230  Biso   1.000  H
  C924     1.0000 0.77530  0.93490  0.21450  Biso   1.000  C
  O81      1.0000 0.98670  0.74180  0.97880  Biso   1.000  O
  O82      1.0000 0.98460  0.88020  0.93190  Biso   1.000  O
  O83      1.0000 0.76650  0.68840  0.80510  Biso   1.000  O
  O84      1.0000 0.77026  0.83760  0.79520  Biso   1.000  O
  O85      1.0000 0.76851  0.86120  0.20790  Biso   1.000  O
  O86      1.0000 0.76990  0.00720  0.23650  Biso   1.000  O
  O87      1.0000 0.98660  0.80930  0.07140  Biso   1.000  O
  O88      1.0000 0.98750  0.93510  0.02580  Biso   1.000  O
  Tb11     1.0000 0.00101  0.68808  0.03702  Biso   1.000  Tb
  C925     1.0000 0.88950  0.62080  0.64180  Biso   1.000  C
  H529     1.0000 0.87960  0.62510  0.65270  Biso   1.000  H
  C926     1.0000 0.89850  0.69340  0.64950  Biso   1.000  C
  H530     1.0000 0.89460  0.75090  0.66040  Biso   1.000  H
  C927     1.0000 0.91470  0.68610  0.64140  Biso   1.000  C
  H531     1.0000 0.92120  0.73340  0.65220  Biso   1.000  H
  C928     1.0000 0.92010  0.60650  0.61700  Biso   1.000  C
  H532     1.0000 0.93020  0.60420  0.60880  Biso   1.000  H
  C929     1.0000 0.93260  0.43040  0.57840  Biso   1.000  C
  C930     1.0000 0.94110  0.48250  0.54300  Biso   1.000  C
  H533     1.0000 0.93620  0.53000  0.52560  Biso   1.000  H
  C931     1.0000 0.95620  0.46520  0.53320  Biso   1.000  C
  H534     1.0000 0.96090  0.49590  0.50760  Biso   1.000  H
  C932     1.0000 0.96420  0.40340  0.56120  Biso   1.000  C
  C933     1.0000 0.95610  0.35120  0.60040  Biso   1.000  C
  H535     1.0000 0.96130  0.30790  0.61970  Biso   1.000  H
  C934     1.0000 0.94160  0.36740  0.60720  Biso   1.000  C
  H536     1.0000 0.93680  0.33580  0.63240  Biso   1.000  H
  C935     1.0000 0.97980  0.38190  0.55180  Biso   1.000  C
  C936     1.0000 0.98070  0.30190  0.44950  Biso   1.000  C
  C937     1.0000 0.96280  0.27820  0.43590  Biso   1.000  C
  C938     1.0000 0.95560  0.31820  0.40480  Biso   1.000  C
  H537     1.0000 0.96050  0.36610  0.38770  Biso   1.000  H
  C939     1.0000 0.94140  0.30000  0.39300  Biso   1.000  C
  H538     1.0000 0.93730  0.32830  0.36580  Biso   1.000  H
  C940     1.0000 0.93240  0.23720  0.42150  Biso   1.000  C
  C941     1.0000 0.94060  0.19120  0.45920  Biso   1.000  C
  H539     1.0000 0.93540  0.15030  0.47960  Biso   1.000  H
  C942     1.0000 0.95550  0.20350  0.46700  Biso   1.000  C
  H540     1.0000 0.96080  0.16860  0.48980  Biso   1.000  H
  C943     1.0000 0.90630  0.30280  0.42370  Biso   1.000  C
  C944     1.0000 0.89030  0.29090  0.40930  Biso   1.000  C
  C945     1.0000 0.88510  0.20790  0.39410  Biso   1.000  C
  C946     1.0000 0.89460  0.12830  0.38690  Biso   1.000  C
  C947     1.0000 0.91110  0.13270  0.39410  Biso   1.000  C
  C948     1.0000 0.91600  0.22640  0.41420  Biso   1.000  C
  C949     1.0000 0.91140  0.39000  0.44690  Biso   1.000  C
  H541     1.0000 0.92120  0.39170  0.45840  Biso   1.000  H
  C950     1.0000 0.90290  0.46760  0.45290  Biso   1.000  C
  H542     1.0000 0.90680  0.52440  0.46520  Biso   1.000  H
  C951     1.0000 0.88740  0.45730  0.43890  Biso   1.000  C
  H543     1.0000 0.88110  0.50980  0.44290  Biso   1.000  H
  C952     1.0000 0.88130  0.37580  0.42030  Biso   1.000  C
  H544     1.0000 0.87100  0.37400  0.41450  Biso   1.000  H
  C953     1.0000 0.88910  0.04140  0.36830  Biso   1.000  C
  H545     1.0000 0.87890  0.03500  0.36270  Biso   1.000  H
  C954     1.0000 0.89860  0.96420  0.35800  Biso   1.000  C
  H546     1.0000 0.89480  0.90660  0.34650  Biso   1.000  H
  C955     1.0000 0.91520  0.97840  0.36660  Biso   1.000  C
  H547     1.0000 0.92190  0.92970  0.35840  Biso   1.000  H
  C956     1.0000 0.92050  0.05750  0.38520  Biso   1.000  C
  H548     1.0000 0.93070  0.06250  0.39230  Biso   1.000  H
  C957     1.0000 0.86830  0.20150  0.38160  Biso   1.000  C
  C958     1.0000 0.85720  0.19400  0.42110  Biso   1.000  C
  C959     1.0000 0.84170  0.19760  0.41020  Biso   1.000  C
  C960     1.0000 0.83620  0.20650  0.36120  Biso   1.000  C
  C961     1.0000 0.84780  0.20410  0.32290  Biso   1.000  C
  C962     1.0000 0.86290  0.20430  0.33870  Biso   1.000  C
  C963     1.0000 0.87430  0.20590  0.29580  Biso   1.000  C
  H549     1.0000 0.88460  0.20430  0.30120  Biso   1.000  H
  C964     1.0000 0.86880  0.20970  0.25070  Biso   1.000  C
  H550     1.0000 0.87570  0.21100  0.22570  Biso   1.000  H
  C965     1.0000 0.85330  0.21180  0.23870  Biso   1.000  C
  H551     1.0000 0.85030  0.21810  0.20690  Biso   1.000  H
  C966     1.0000 0.84370  0.20490  0.27180  Biso   1.000  C
  H552     1.0000 0.83360  0.20020  0.26360  Biso   1.000  H
  C967     1.0000 0.86130  0.18860  0.47130  Biso   1.000  C
  H553     1.0000 0.87140  0.19080  0.48000  Biso   1.000  H
  C968     1.0000 0.85090  0.18070  0.50500  Biso   1.000  C
  H554     1.0000 0.85360  0.16920  0.53660  Biso   1.000  H
  C969     1.0000 0.83590  0.18940  0.49300  Biso   1.000  C
  H555     1.0000 0.82910  0.19460  0.51830  Biso   1.000  H
  C970     1.0000 0.83030  0.19130  0.45060  Biso   1.000  C
  H556     1.0000 0.82000  0.18890  0.44510  Biso   1.000  H
  C971     1.0000 0.82030  0.21660  0.34710  Biso   1.000  C
  C972     1.0000 0.81440  0.30070  0.34890  Biso   1.000  C
  H557     1.0000 0.82000  0.35120  0.36140  Biso   1.000  H
  C973     1.0000 0.79990  0.31730  0.33260  Biso   1.000  C
  H558     1.0000 0.79650  0.37990  0.33010  Biso   1.000  H
  C974     1.0000 0.79030  0.24360  0.31980  Biso   1.000  C
  C975     1.0000 0.79710  0.15350  0.31990  Biso   1.000  C
  H559     1.0000 0.79180  0.10150  0.30780  Biso   1.000  H
  C976     1.0000 0.81130  0.13900  0.33710  Biso   1.000  C
  H560     1.0000 0.81490  0.07730  0.34200  Biso   1.000  H
  C977     1.0000 0.77470  0.26330  0.30320  Biso   1.000  C
  C978     1.0000 0.91670  0.44710  0.58770  Biso   1.000  C
  C979     1.0000 0.91060  0.52820  0.60410  Biso   1.000  C
  C980     1.0000 0.89410  0.53550  0.61740  Biso   1.000  C
  C981     1.0000 0.88510  0.45940  0.60960  Biso   1.000  C
  C982     1.0000 0.89070  0.37410  0.58720  Biso   1.000  C
  C983     1.0000 0.90760  0.36400  0.57770  Biso   1.000  C
  C984     1.0000 0.91230  0.27560  0.55580  Biso   1.000  C
  H561     1.0000 0.92220  0.26750  0.54570  Biso   1.000  H
  C985     1.0000 0.90230  0.20590  0.55010  Biso   1.000  C
  H562     1.0000 0.90560  0.15000  0.53550  Biso   1.000  H
  C986     1.0000 0.88780  0.20980  0.56380  Biso   1.000  C
  H563     1.0000 0.88170  0.15630  0.56000  Biso   1.000  H
  C987     1.0000 0.88230  0.28520  0.58200  Biso   1.000  C
  H564     1.0000 0.87240  0.28380  0.59250  Biso   1.000  H
  C988     1.0000 0.86910  0.46700  0.62110  Biso   1.000  C
  C989     1.0000 0.86430  0.46520  0.67150  Biso   1.000  C
  C990     1.0000 0.84920  0.46460  0.68490  Biso   1.000  C
  C991     1.0000 0.83810  0.46650  0.65030  Biso   1.000  C
  C992     1.0000 0.84110  0.46790  0.59990  Biso   1.000  C
  C993     1.0000 0.85740  0.46570  0.58910  Biso   1.000  C
  C994     1.0000 0.86180  0.47400  0.53870  Biso   1.000  C
  H565     1.0000 0.87190  0.47770  0.53010  Biso   1.000  H
  C995     1.0000 0.84990  0.47510  0.50230  Biso   1.000  C
  H566     1.0000 0.85250  0.47980  0.47000  Biso   1.000  H
  C996     1.0000 0.83500  0.46950  0.51580  Biso   1.000  C
  H567     1.0000 0.82750  0.46540  0.49280  Biso   1.000  H
  C997     1.0000 0.83150  0.47010  0.56500  Biso   1.000  C
  H568     1.0000 0.82130  0.47210  0.57310  Biso   1.000  H
  C998     1.0000 0.84490  0.46320  0.73340  Biso   1.000  C
  H569     1.0000 0.83480  0.46790  0.74210  Biso   1.000  H
  C999     1.0000 0.85660  0.45420  0.76960  Biso   1.000  C
  H570     1.0000 0.85430  0.44960  0.80210  Biso   1.000  H
  C1000    1.0000 0.87200  0.45280  0.75300  Biso   1.000  C
  H571     1.0000 0.87940  0.44920  0.77640  Biso   1.000  H
  C1001    1.0000 0.87640  0.45580  0.71010  Biso   1.000  C
  H572     1.0000 0.88660  0.45250  0.70230  Biso   1.000  H
  C1002    1.0000 0.82090  0.45910  0.66580  Biso   1.000  C
  C1003    1.0000 0.81450  0.53730  0.68470  Biso   1.000  C
  H573     1.0000 0.81970  0.59500  0.68660  Biso   1.000  H
  C1004    1.0000 0.79940  0.52810  0.70180  Biso   1.000  C
  H574     1.0000 0.79490  0.57990  0.71710  Biso   1.000  H
  C1005    1.0000 0.79150  0.44730  0.69640  Biso   1.000  C
  C1006    1.0000 0.79910  0.37170  0.67430  Biso   1.000  C
  H575     1.0000 0.79370  0.31650  0.66740  Biso   1.000  H
  C1007    1.0000 0.81390  0.37410  0.66240  Biso   1.000  C
  H576     1.0000 0.81900  0.31950  0.65230  Biso   1.000  H
  C1008    1.0000 0.77530  0.43490  0.71450  Biso   1.000  C
  O89      1.0000 0.98670  0.24180  0.47880  Biso   1.000  O
  O90      1.0000 0.98460  0.38020  0.43190  Biso   1.000  O
  O91      1.0000 0.76650  0.18840  0.30510  Biso   1.000  O
  O92      1.0000 0.77026  0.33760  0.29520  Biso   1.000  O
  O93      1.0000 0.76851  0.36120  0.70790  Biso   1.000  O
  O94      1.0000 0.76990  0.50720  0.73650  Biso   1.000  O
  O95      1.0000 0.98660  0.30930  0.57140  Biso   1.000  O
  O96      1.0000 0.98750  0.43510  0.52580  Biso   1.000  O
  Tb12     1.0000 0.00101  0.18808  0.53702  Biso   1.000  Tb
  C1009    1.0000 0.11050  0.37920  0.64180  Biso   1.000  C
  H577     1.0000 0.12040  0.37490  0.65270  Biso   1.000  H
  C1010    1.0000 0.10150  0.30660  0.64950  Biso   1.000  C
  H578     1.0000 0.10540  0.24910  0.66040  Biso   1.000  H
  C1011    1.0000 0.08530  0.31390  0.64140  Biso   1.000  C
  H579     1.0000 0.07880  0.26660  0.65220  Biso   1.000  H
  C1012    1.0000 0.07990  0.39350  0.61700  Biso   1.000  C
  H580     1.0000 0.06980  0.39580  0.60880  Biso   1.000  H
  C1013    1.0000 0.06740  0.56960  0.57840  Biso   1.000  C
  C1014    1.0000 0.05890  0.51750  0.54300  Biso   1.000  C
  H581     1.0000 0.06380  0.47000  0.52560  Biso   1.000  H
  C1015    1.0000 0.04380  0.53480  0.53320  Biso   1.000  C
  H582     1.0000 0.03910  0.50410  0.50760  Biso   1.000  H
  C1016    1.0000 0.03580  0.59660  0.56120  Biso   1.000  C
  C1017    1.0000 0.04390  0.64880  0.60040  Biso   1.000  C
  H583     1.0000 0.03870  0.69210  0.61970  Biso   1.000  H
  C1018    1.0000 0.05840  0.63260  0.60720  Biso   1.000  C
  H584     1.0000 0.06320  0.66420  0.63240  Biso   1.000  H
  C1019    1.0000 0.02020  0.61810  0.55180  Biso   1.000  C
  C1020    1.0000 0.01930  0.69810  0.44950  Biso   1.000  C
  C1021    1.0000 0.03720  0.72180  0.43590  Biso   1.000  C
  C1022    1.0000 0.04440  0.68180  0.40480  Biso   1.000  C
  H585     1.0000 0.03950  0.63390  0.38770  Biso   1.000  H
  C1023    1.0000 0.05860  0.70000  0.39300  Biso   1.000  C
  H586     1.0000 0.06270  0.67170  0.36580  Biso   1.000  H
  C1024    1.0000 0.06760  0.76280  0.42150  Biso   1.000  C
  C1025    1.0000 0.05940  0.80880  0.45920  Biso   1.000  C
  H587     1.0000 0.06460  0.84970  0.47960  Biso   1.000  H
  C1026    1.0000 0.04450  0.79650  0.46700  Biso   1.000  C
  H588     1.0000 0.03920  0.83140  0.48980  Biso   1.000  H
  C1027    1.0000 0.09370  0.69720  0.42370  Biso   1.000  C
  C1028    1.0000 0.10970  0.70910  0.40930  Biso   1.000  C
  C1029    1.0000 0.11490  0.79210  0.39410  Biso   1.000  C
  C1030    1.0000 0.10540  0.87170  0.38690  Biso   1.000  C
  C1031    1.0000 0.08890  0.86730  0.39410  Biso   1.000  C
  C1032    1.0000 0.08400  0.77360  0.41420  Biso   1.000  C
  C1033    1.0000 0.08860  0.61000  0.44690  Biso   1.000  C
  H589     1.0000 0.07880  0.60830  0.45840  Biso   1.000  H
  C1034    1.0000 0.09710  0.53240  0.45290  Biso   1.000  C
  H590     1.0000 0.09320  0.47560  0.46520  Biso   1.000  H
  C1035    1.0000 0.11260  0.54270  0.43890  Biso   1.000  C
  H591     1.0000 0.11890  0.49020  0.44290  Biso   1.000  H
  C1036    1.0000 0.11870  0.62420  0.42030  Biso   1.000  C
  H592     1.0000 0.12900  0.62600  0.41450  Biso   1.000  H
  C1037    1.0000 0.11090  0.95860  0.36830  Biso   1.000  C
  H593     1.0000 0.12110  0.96500  0.36270  Biso   1.000  H
  C1038    1.0000 0.10140  0.03580  0.35800  Biso   1.000  C
  H594     1.0000 0.10520  0.09340  0.34650  Biso   1.000  H
  C1039    1.0000 0.08480  0.02160  0.36660  Biso   1.000  C
  H595     1.0000 0.07810  0.07030  0.35840  Biso   1.000  H
  C1040    1.0000 0.07950  0.94250  0.38520  Biso   1.000  C
  H596     1.0000 0.06930  0.93750  0.39230  Biso   1.000  H
  C1041    1.0000 0.13170  0.79850  0.38160  Biso   1.000  C
  C1042    1.0000 0.14280  0.80600  0.42110  Biso   1.000  C
  C1043    1.0000 0.15830  0.80240  0.41020  Biso   1.000  C
  C1044    1.0000 0.16380  0.79350  0.36120  Biso   1.000  C
  C1045    1.0000 0.15220  0.79590  0.32290  Biso   1.000  C
  C1046    1.0000 0.13710  0.79570  0.33870  Biso   1.000  C
  C1047    1.0000 0.12570  0.79410  0.29580  Biso   1.000  C
  H597     1.0000 0.11540  0.79570  0.30120  Biso   1.000  H
  C1048    1.0000 0.13120  0.79030  0.25070  Biso   1.000  C
  H598     1.0000 0.12430  0.78900  0.22570  Biso   1.000  H
  C1049    1.0000 0.14670  0.78820  0.23870  Biso   1.000  C
  H599     1.0000 0.14970  0.78190  0.20690  Biso   1.000  H
  C1050    1.0000 0.15630  0.79510  0.27180  Biso   1.000  C
  H600     1.0000 0.16640  0.79980  0.26360  Biso   1.000  H
  C1051    1.0000 0.13870  0.81140  0.47130  Biso   1.000  C
  H601     1.0000 0.12860  0.80920  0.48000  Biso   1.000  H
  C1052    1.0000 0.14910  0.81930  0.50500  Biso   1.000  C
  H602     1.0000 0.14640  0.83080  0.53660  Biso   1.000  H
  C1053    1.0000 0.16410  0.81060  0.49300  Biso   1.000  C
  H603     1.0000 0.17090  0.80540  0.51830  Biso   1.000  H
  C1054    1.0000 0.16970  0.80870  0.45060  Biso   1.000  C
  H604     1.0000 0.18000  0.81110  0.44510  Biso   1.000  H
  C1055    1.0000 0.17970  0.78340  0.34710  Biso   1.000  C
  C1056    1.0000 0.18560  0.69930  0.34890  Biso   1.000  C
  H605     1.0000 0.18000  0.64880  0.36140  Biso   1.000  H
  C1057    1.0000 0.20010  0.68270  0.33260  Biso   1.000  C
  H606     1.0000 0.20350  0.62010  0.33010  Biso   1.000  H
  C1058    1.0000 0.20970  0.75640  0.31980  Biso   1.000  C
  C1059    1.0000 0.20290  0.84650  0.31990  Biso   1.000  C
  H607     1.0000 0.20820  0.89850  0.30780  Biso   1.000  H
  C1060    1.0000 0.18870  0.86100  0.33710  Biso   1.000  C
  H608     1.0000 0.18510  0.92270  0.34200  Biso   1.000  H
  C1061    1.0000 0.22530  0.73670  0.30320  Biso   1.000  C
  C1062    1.0000 0.08330  0.55290  0.58770  Biso   1.000  C
  C1063    1.0000 0.08940  0.47180  0.60410  Biso   1.000  C
  C1064    1.0000 0.10590  0.46450  0.61740  Biso   1.000  C
  C1065    1.0000 0.11490  0.54060  0.60960  Biso   1.000  C
  C1066    1.0000 0.10930  0.62590  0.58720  Biso   1.000  C
  C1067    1.0000 0.09240  0.63600  0.57770  Biso   1.000  C
  C1068    1.0000 0.08770  0.72440  0.55580  Biso   1.000  C
  H609     1.0000 0.07780  0.73250  0.54570  Biso   1.000  H
  C1069    1.0000 0.09770  0.79410  0.55010  Biso   1.000  C
  H610     1.0000 0.09440  0.85000  0.53550  Biso   1.000  H
  C1070    1.0000 0.11220  0.79020  0.56380  Biso   1.000  C
  H611     1.0000 0.11830  0.84370  0.56000  Biso   1.000  H
  C1071    1.0000 0.11770  0.71480  0.58200  Biso   1.000  C
  H612     1.0000 0.12760  0.71620  0.59250  Biso   1.000  H
  C1072    1.0000 0.13090  0.53300  0.62110  Biso   1.000  C
  C1073    1.0000 0.13570  0.53480  0.67150  Biso   1.000  C
  C1074    1.0000 0.15080  0.53540  0.68490  Biso   1.000  C
  C1075    1.0000 0.16190  0.53350  0.65030  Biso   1.000  C
  C1076    1.0000 0.15890  0.53210  0.59990  Biso   1.000  C
  C1077    1.0000 0.14260  0.53430  0.58910  Biso   1.000  C
  C1078    1.0000 0.13820  0.52600  0.53870  Biso   1.000  C
  H613     1.0000 0.12810  0.52230  0.53010  Biso   1.000  H
  C1079    1.0000 0.15010  0.52490  0.50230  Biso   1.000  C
  H614     1.0000 0.14750  0.52020  0.47000  Biso   1.000  H
  C1080    1.0000 0.16500  0.53050  0.51580  Biso   1.000  C
  H615     1.0000 0.17250  0.53460  0.49280  Biso   1.000  H
  C1081    1.0000 0.16850  0.52990  0.56500  Biso   1.000  C
  H616     1.0000 0.17870  0.52790  0.57310  Biso   1.000  H
  C1082    1.0000 0.15510  0.53680  0.73340  Biso   1.000  C
  H617     1.0000 0.16520  0.53210  0.74210  Biso   1.000  H
  C1083    1.0000 0.14340  0.54580  0.76960  Biso   1.000  C
  H618     1.0000 0.14570  0.55040  0.80210  Biso   1.000  H
  C1084    1.0000 0.12800  0.54720  0.75300  Biso   1.000  C
  H619     1.0000 0.12060  0.55080  0.77640  Biso   1.000  H
  C1085    1.0000 0.12360  0.54420  0.71010  Biso   1.000  C
  H620     1.0000 0.11340  0.54750  0.70230  Biso   1.000  H
  C1086    1.0000 0.17910  0.54090  0.66580  Biso   1.000  C
  C1087    1.0000 0.18550  0.46270  0.68470  Biso   1.000  C
  H621     1.0000 0.18030  0.40500  0.68660  Biso   1.000  H
  C1088    1.0000 0.20060  0.47190  0.70180  Biso   1.000  C
  H622     1.0000 0.20510  0.42010  0.71710  Biso   1.000  H
  C1089    1.0000 0.20850  0.55270  0.69640  Biso   1.000  C
  C1090    1.0000 0.20090  0.62830  0.67430  Biso   1.000  C
  H623     1.0000 0.20630  0.68350  0.66740  Biso   1.000  H
  C1091    1.0000 0.18610  0.62590  0.66240  Biso   1.000  C
  H624     1.0000 0.18100  0.68050  0.65230  Biso   1.000  H
  C1092    1.0000 0.22470  0.56510  0.71450  Biso   1.000  C
  O97      1.0000 0.01330  0.75820  0.47880  Biso   1.000  O
  O98      1.0000 0.01540  0.61980  0.43190  Biso   1.000  O
  O99      1.0000 0.23350  0.81160  0.30510  Biso   1.000  O
  O100     1.0000 0.22974  0.66240  0.29520  Biso   1.000  O
  O101     1.0000 0.23149  0.63880  0.70790  Biso   1.000  O
  O102     1.0000 0.23010  0.49280  0.73650  Biso   1.000  O
  O103     1.0000 0.01340  0.69070  0.57140  Biso   1.000  O
  O104     1.0000 0.01250  0.56490  0.52580  Biso   1.000  O
  Tb13     1.0000 0.99899  0.81192  0.53702  Biso   1.000  Tb
  C1093    1.0000 0.11050  0.87920  0.14180  Biso   1.000  C
  H625     1.0000 0.12040  0.87490  0.15270  Biso   1.000  H
  C1094    1.0000 0.10150  0.80660  0.14950  Biso   1.000  C
  H626     1.0000 0.10540  0.74910  0.16040  Biso   1.000  H
  C1095    1.0000 0.08530  0.81390  0.14140  Biso   1.000  C
  H627     1.0000 0.07880  0.76660  0.15220  Biso   1.000  H
  C1096    1.0000 0.07990  0.89350  0.11700  Biso   1.000  C
  H628     1.0000 0.06980  0.89580  0.10880  Biso   1.000  H
  C1097    1.0000 0.06740  0.06960  0.07840  Biso   1.000  C
  C1098    1.0000 0.05890  0.01750  0.04300  Biso   1.000  C
  H629     1.0000 0.06380  0.97000  0.02560  Biso   1.000  H
  C1099    1.0000 0.04380  0.03480  0.03320  Biso   1.000  C
  H630     1.0000 0.03910  0.00410  0.00760  Biso   1.000  H
  C1100    1.0000 0.03580  0.09660  0.06120  Biso   1.000  C
  C1101    1.0000 0.04390  0.14880  0.10040  Biso   1.000  C
  H631     1.0000 0.03870  0.19210  0.11970  Biso   1.000  H
  C1102    1.0000 0.05840  0.13260  0.10720  Biso   1.000  C
  H632     1.0000 0.06320  0.16420  0.13240  Biso   1.000  H
  C1103    1.0000 0.02020  0.11810  0.05180  Biso   1.000  C
  C1104    1.0000 0.01930  0.19810  0.94950  Biso   1.000  C
  C1105    1.0000 0.03720  0.22180  0.93590  Biso   1.000  C
  C1106    1.0000 0.04440  0.18180  0.90480  Biso   1.000  C
  H633     1.0000 0.03950  0.13390  0.88770  Biso   1.000  H
  C1107    1.0000 0.05860  0.20000  0.89300  Biso   1.000  C
  H634     1.0000 0.06270  0.17170  0.86580  Biso   1.000  H
  C1108    1.0000 0.06760  0.26280  0.92150  Biso   1.000  C
  C1109    1.0000 0.05940  0.30880  0.95920  Biso   1.000  C
  H635     1.0000 0.06460  0.34970  0.97960  Biso   1.000  H
  C1110    1.0000 0.04450  0.29650  0.96700  Biso   1.000  C
  H636     1.0000 0.03920  0.33140  0.98980  Biso   1.000  H
  C1111    1.0000 0.09370  0.19720  0.92370  Biso   1.000  C
  C1112    1.0000 0.10970  0.20910  0.90930  Biso   1.000  C
  C1113    1.0000 0.11490  0.29210  0.89410  Biso   1.000  C
  C1114    1.0000 0.10540  0.37170  0.88690  Biso   1.000  C
  C1115    1.0000 0.08890  0.36730  0.89410  Biso   1.000  C
  C1116    1.0000 0.08400  0.27360  0.91420  Biso   1.000  C
  C1117    1.0000 0.08860  0.11000  0.94690  Biso   1.000  C
  H637     1.0000 0.07880  0.10830  0.95840  Biso   1.000  H
  C1118    1.0000 0.09710  0.03240  0.95290  Biso   1.000  C
  H638     1.0000 0.09320  0.97560  0.96520  Biso   1.000  H
  C1119    1.0000 0.11260  0.04270  0.93890  Biso   1.000  C
  H639     1.0000 0.11890  0.99020  0.94290  Biso   1.000  H
  C1120    1.0000 0.11870  0.12420  0.92030  Biso   1.000  C
  H640     1.0000 0.12900  0.12600  0.91450  Biso   1.000  H
  C1121    1.0000 0.11090  0.45860  0.86830  Biso   1.000  C
  H641     1.0000 0.12110  0.46500  0.86270  Biso   1.000  H
  C1122    1.0000 0.10140  0.53580  0.85800  Biso   1.000  C
  H642     1.0000 0.10520  0.59340  0.84650  Biso   1.000  H
  C1123    1.0000 0.08480  0.52160  0.86660  Biso   1.000  C
  H643     1.0000 0.07810  0.57030  0.85840  Biso   1.000  H
  C1124    1.0000 0.07950  0.44250  0.88520  Biso   1.000  C
  H644     1.0000 0.06930  0.43750  0.89230  Biso   1.000  H
  C1125    1.0000 0.13170  0.29850  0.88160  Biso   1.000  C
  C1126    1.0000 0.14280  0.30600  0.92110  Biso   1.000  C
  C1127    1.0000 0.15830  0.30240  0.91020  Biso   1.000  C
  C1128    1.0000 0.16380  0.29350  0.86120  Biso   1.000  C
  C1129    1.0000 0.15220  0.29590  0.82290  Biso   1.000  C
  C1130    1.0000 0.13710  0.29570  0.83870  Biso   1.000  C
  C1131    1.0000 0.12570  0.29410  0.79580  Biso   1.000  C
  H645     1.0000 0.11540  0.29570  0.80120  Biso   1.000  H
  C1132    1.0000 0.13120  0.29030  0.75070  Biso   1.000  C
  H646     1.0000 0.12430  0.28900  0.72570  Biso   1.000  H
  C1133    1.0000 0.14670  0.28820  0.73870  Biso   1.000  C
  H647     1.0000 0.14970  0.28190  0.70690  Biso   1.000  H
  C1134    1.0000 0.15630  0.29510  0.77180  Biso   1.000  C
  H648     1.0000 0.16640  0.29980  0.76360  Biso   1.000  H
  C1135    1.0000 0.13870  0.31140  0.97130  Biso   1.000  C
  H649     1.0000 0.12860  0.30920  0.98000  Biso   1.000  H
  C1136    1.0000 0.14910  0.31930  0.00500  Biso   1.000  C
  H650     1.0000 0.14640  0.33080  0.03660  Biso   1.000  H
  C1137    1.0000 0.16410  0.31060  0.99300  Biso   1.000  C
  H651     1.0000 0.17090  0.30540  0.01830  Biso   1.000  H
  C1138    1.0000 0.16970  0.30870  0.95060  Biso   1.000  C
  H652     1.0000 0.18000  0.31110  0.94510  Biso   1.000  H
  C1139    1.0000 0.17970  0.28340  0.84710  Biso   1.000  C
  C1140    1.0000 0.18560  0.19930  0.84890  Biso   1.000  C
  H653     1.0000 0.18000  0.14880  0.86140  Biso   1.000  H
  C1141    1.0000 0.20010  0.18270  0.83260  Biso   1.000  C
  H654     1.0000 0.20350  0.12010  0.83010  Biso   1.000  H
  C1142    1.0000 0.20970  0.25640  0.81980  Biso   1.000  C
  C1143    1.0000 0.20290  0.34650  0.81990  Biso   1.000  C
  H655     1.0000 0.20820  0.39850  0.80780  Biso   1.000  H
  C1144    1.0000 0.18870  0.36100  0.83710  Biso   1.000  C
  H656     1.0000 0.18510  0.42270  0.84200  Biso   1.000  H
  C1145    1.0000 0.22530  0.23670  0.80320  Biso   1.000  C
  C1146    1.0000 0.08330  0.05290  0.08770  Biso   1.000  C
  C1147    1.0000 0.08940  0.97180  0.10410  Biso   1.000  C
  C1148    1.0000 0.10590  0.96450  0.11740  Biso   1.000  C
  C1149    1.0000 0.11490  0.04060  0.10960  Biso   1.000  C
  C1150    1.0000 0.10930  0.12590  0.08720  Biso   1.000  C
  C1151    1.0000 0.09240  0.13600  0.07770  Biso   1.000  C
  C1152    1.0000 0.08770  0.22440  0.05580  Biso   1.000  C
  H657     1.0000 0.07780  0.23250  0.04570  Biso   1.000  H
  C1153    1.0000 0.09770  0.29410  0.05010  Biso   1.000  C
  H658     1.0000 0.09440  0.35000  0.03550  Biso   1.000  H
  C1154    1.0000 0.11220  0.29020  0.06380  Biso   1.000  C
  H659     1.0000 0.11830  0.34370  0.06000  Biso   1.000  H
  C1155    1.0000 0.11770  0.21480  0.08200  Biso   1.000  C
  H660     1.0000 0.12760  0.21620  0.09250  Biso   1.000  H
  C1156    1.0000 0.13090  0.03300  0.12110  Biso   1.000  C
  C1157    1.0000 0.13570  0.03480  0.17150  Biso   1.000  C
  C1158    1.0000 0.15080  0.03540  0.18490  Biso   1.000  C
  C1159    1.0000 0.16190  0.03350  0.15030  Biso   1.000  C
  C1160    1.0000 0.15890  0.03210  0.09990  Biso   1.000  C
  C1161    1.0000 0.14260  0.03430  0.08910  Biso   1.000  C
  C1162    1.0000 0.13820  0.02600  0.03870  Biso   1.000  C
  H661     1.0000 0.12810  0.02230  0.03010  Biso   1.000  H
  C1163    1.0000 0.15010  0.02490  0.00230  Biso   1.000  C
  H662     1.0000 0.14750  0.02020  0.97000  Biso   1.000  H
  C1164    1.0000 0.16500  0.03050  0.01580  Biso   1.000  C
  H663     1.0000 0.17250  0.03460  0.99280  Biso   1.000  H
  C1165    1.0000 0.16850  0.02990  0.06500  Biso   1.000  C
  H664     1.0000 0.17870  0.02790  0.07310  Biso   1.000  H
  C1166    1.0000 0.15510  0.03680  0.23340  Biso   1.000  C
  H665     1.0000 0.16520  0.03210  0.24210  Biso   1.000  H
  C1167    1.0000 0.14340  0.04580  0.26960  Biso   1.000  C
  H666     1.0000 0.14570  0.05040  0.30210  Biso   1.000  H
  C1168    1.0000 0.12800  0.04720  0.25300  Biso   1.000  C
  H667     1.0000 0.12060  0.05080  0.27640  Biso   1.000  H
  C1169    1.0000 0.12360  0.04420  0.21010  Biso   1.000  C
  H668     1.0000 0.11340  0.04750  0.20230  Biso   1.000  H
  C1170    1.0000 0.17910  0.04090  0.16580  Biso   1.000  C
  C1171    1.0000 0.18550  0.96270  0.18470  Biso   1.000  C
  H669     1.0000 0.18030  0.90500  0.18660  Biso   1.000  H
  C1172    1.0000 0.20060  0.97190  0.20180  Biso   1.000  C
  H670     1.0000 0.20510  0.92010  0.21710  Biso   1.000  H
  C1173    1.0000 0.20850  0.05270  0.19640  Biso   1.000  C
  C1174    1.0000 0.20090  0.12830  0.17430  Biso   1.000  C
  H671     1.0000 0.20630  0.18350  0.16740  Biso   1.000  H
  C1175    1.0000 0.18610  0.12590  0.16240  Biso   1.000  C
  H672     1.0000 0.18100  0.18050  0.15230  Biso   1.000  H
  C1176    1.0000 0.22470  0.06510  0.21450  Biso   1.000  C
  O105     1.0000 0.01330  0.25820  0.97880  Biso   1.000  O
  O106     1.0000 0.01540  0.11980  0.93190  Biso   1.000  O
  O107     1.0000 0.23350  0.31160  0.80510  Biso   1.000  O
  O108     1.0000 0.22974  0.16240  0.79520  Biso   1.000  O
  O109     1.0000 0.23149  0.13880  0.20790  Biso   1.000  O
  O110     1.0000 0.23010  0.99280  0.23650  Biso   1.000  O
  O111     1.0000 0.01340  0.19070  0.07140  Biso   1.000  O
  O112     1.0000 0.01250  0.06490  0.02580  Biso   1.000  O
  Tb14     1.0000 0.99899  0.31192  0.03702  Biso   1.000  Tb
  C1177    1.0000 0.61050  0.37920  0.14180  Biso   1.000  C
  H673     1.0000 0.62040  0.37490  0.15270  Biso   1.000  H
  C1178    1.0000 0.60150  0.30660  0.14950  Biso   1.000  C
  H674     1.0000 0.60540  0.24910  0.16040  Biso   1.000  H
  C1179    1.0000 0.58530  0.31390  0.14140  Biso   1.000  C
  H675     1.0000 0.57880  0.26660  0.15220  Biso   1.000  H
  C1180    1.0000 0.57990  0.39350  0.11700  Biso   1.000  C
  H676     1.0000 0.56980  0.39580  0.10880  Biso   1.000  H
  C1181    1.0000 0.56740  0.56960  0.07840  Biso   1.000  C
  C1182    1.0000 0.55890  0.51750  0.04300  Biso   1.000  C
  H677     1.0000 0.56380  0.47000  0.02560  Biso   1.000  H
  C1183    1.0000 0.54380  0.53480  0.03320  Biso   1.000  C
  H678     1.0000 0.53910  0.50410  0.00760  Biso   1.000  H
  C1184    1.0000 0.53580  0.59660  0.06120  Biso   1.000  C
  C1185    1.0000 0.54390  0.64880  0.10040  Biso   1.000  C
  H679     1.0000 0.53870  0.69210  0.11970  Biso   1.000  H
  C1186    1.0000 0.55840  0.63260  0.10720  Biso   1.000  C
  H680     1.0000 0.56320  0.66420  0.13240  Biso   1.000  H
  C1187    1.0000 0.52020  0.61810  0.05180  Biso   1.000  C
  C1188    1.0000 0.51930  0.69810  0.94950  Biso   1.000  C
  C1189    1.0000 0.53720  0.72180  0.93590  Biso   1.000  C
  C1190    1.0000 0.54440  0.68180  0.90480  Biso   1.000  C
  H681     1.0000 0.53950  0.63390  0.88770  Biso   1.000  H
  C1191    1.0000 0.55860  0.70000  0.89300  Biso   1.000  C
  H682     1.0000 0.56270  0.67170  0.86580  Biso   1.000  H
  C1192    1.0000 0.56760  0.76280  0.92150  Biso   1.000  C
  C1193    1.0000 0.55940  0.80880  0.95920  Biso   1.000  C
  H683     1.0000 0.56460  0.84970  0.97960  Biso   1.000  H
  C1194    1.0000 0.54450  0.79650  0.96700  Biso   1.000  C
  H684     1.0000 0.53920  0.83140  0.98980  Biso   1.000  H
  C1195    1.0000 0.59370  0.69720  0.92370  Biso   1.000  C
  C1196    1.0000 0.60970  0.70910  0.90930  Biso   1.000  C
  C1197    1.0000 0.61490  0.79210  0.89410  Biso   1.000  C
  C1198    1.0000 0.60540  0.87170  0.88690  Biso   1.000  C
  C1199    1.0000 0.58890  0.86730  0.89410  Biso   1.000  C
  C1200    1.0000 0.58400  0.77360  0.91420  Biso   1.000  C
  C1201    1.0000 0.58860  0.61000  0.94690  Biso   1.000  C
  H685     1.0000 0.57880  0.60830  0.95840  Biso   1.000  H
  C1202    1.0000 0.59710  0.53240  0.95290  Biso   1.000  C
  H686     1.0000 0.59320  0.47560  0.96520  Biso   1.000  H
  C1203    1.0000 0.61260  0.54270  0.93890  Biso   1.000  C
  H687     1.0000 0.61890  0.49020  0.94290  Biso   1.000  H
  C1204    1.0000 0.61870  0.62420  0.92030  Biso   1.000  C
  H688     1.0000 0.62900  0.62600  0.91450  Biso   1.000  H
  C1205    1.0000 0.61090  0.95860  0.86830  Biso   1.000  C
  H689     1.0000 0.62110  0.96500  0.86270  Biso   1.000  H
  C1206    1.0000 0.60140  0.03580  0.85800  Biso   1.000  C
  H690     1.0000 0.60520  0.09340  0.84650  Biso   1.000  H
  C1207    1.0000 0.58480  0.02160  0.86660  Biso   1.000  C
  H691     1.0000 0.57810  0.07030  0.85840  Biso   1.000  H
  C1208    1.0000 0.57950  0.94250  0.88520  Biso   1.000  C
  H692     1.0000 0.56930  0.93750  0.89230  Biso   1.000  H
  C1209    1.0000 0.63170  0.79850  0.88160  Biso   1.000  C
  C1210    1.0000 0.64280  0.80600  0.92110  Biso   1.000  C
  C1211    1.0000 0.65830  0.80240  0.91020  Biso   1.000  C
  C1212    1.0000 0.66380  0.79350  0.86120  Biso   1.000  C
  C1213    1.0000 0.65220  0.79590  0.82290  Biso   1.000  C
  C1214    1.0000 0.63710  0.79570  0.83870  Biso   1.000  C
  C1215    1.0000 0.62570  0.79410  0.79580  Biso   1.000  C
  H693     1.0000 0.61540  0.79570  0.80120  Biso   1.000  H
  C1216    1.0000 0.63120  0.79030  0.75070  Biso   1.000  C
  H694     1.0000 0.62430  0.78900  0.72570  Biso   1.000  H
  C1217    1.0000 0.64670  0.78820  0.73870  Biso   1.000  C
  H695     1.0000 0.64970  0.78190  0.70690  Biso   1.000  H
  C1218    1.0000 0.65630  0.79510  0.77180  Biso   1.000  C
  H696     1.0000 0.66640  0.79980  0.76360  Biso   1.000  H
  C1219    1.0000 0.63870  0.81140  0.97130  Biso   1.000  C
  H697     1.0000 0.62860  0.80920  0.98000  Biso   1.000  H
  C1220    1.0000 0.64910  0.81930  0.00500  Biso   1.000  C
  H698     1.0000 0.64640  0.83080  0.03660  Biso   1.000  H
  C1221    1.0000 0.66410  0.81060  0.99300  Biso   1.000  C
  H699     1.0000 0.67090  0.80540  0.01830  Biso   1.000  H
  C1222    1.0000 0.66970  0.80870  0.95060  Biso   1.000  C
  H700     1.0000 0.68000  0.81110  0.94510  Biso   1.000  H
  C1223    1.0000 0.67970  0.78340  0.84710  Biso   1.000  C
  C1224    1.0000 0.68560  0.69930  0.84890  Biso   1.000  C
  H701     1.0000 0.68000  0.64880  0.86140  Biso   1.000  H
  C1225    1.0000 0.70010  0.68270  0.83260  Biso   1.000  C
  H702     1.0000 0.70350  0.62010  0.83010  Biso   1.000  H
  C1226    1.0000 0.70970  0.75640  0.81980  Biso   1.000  C
  C1227    1.0000 0.70290  0.84650  0.81990  Biso   1.000  C
  H703     1.0000 0.70820  0.89850  0.80780  Biso   1.000  H
  C1228    1.0000 0.68870  0.86100  0.83710  Biso   1.000  C
  H704     1.0000 0.68510  0.92270  0.84200  Biso   1.000  H
  C1229    1.0000 0.72530  0.73670  0.80320  Biso   1.000  C
  C1230    1.0000 0.58330  0.55290  0.08770  Biso   1.000  C
  C1231    1.0000 0.58940  0.47180  0.10410  Biso   1.000  C
  C1232    1.0000 0.60590  0.46450  0.11740  Biso   1.000  C
  C1233    1.0000 0.61490  0.54060  0.10960  Biso   1.000  C
  C1234    1.0000 0.60930  0.62590  0.08720  Biso   1.000  C
  C1235    1.0000 0.59240  0.63600  0.07770  Biso   1.000  C
  C1236    1.0000 0.58770  0.72440  0.05580  Biso   1.000  C
  H705     1.0000 0.57780  0.73250  0.04570  Biso   1.000  H
  C1237    1.0000 0.59770  0.79410  0.05010  Biso   1.000  C
  H706     1.0000 0.59440  0.85000  0.03550  Biso   1.000  H
  C1238    1.0000 0.61220  0.79020  0.06380  Biso   1.000  C
  H707     1.0000 0.61830  0.84370  0.06000  Biso   1.000  H
  C1239    1.0000 0.61770  0.71480  0.08200  Biso   1.000  C
  H708     1.0000 0.62760  0.71620  0.09250  Biso   1.000  H
  C1240    1.0000 0.63090  0.53300  0.12110  Biso   1.000  C
  C1241    1.0000 0.63570  0.53480  0.17150  Biso   1.000  C
  C1242    1.0000 0.65080  0.53540  0.18490  Biso   1.000  C
  C1243    1.0000 0.66190  0.53350  0.15030  Biso   1.000  C
  C1244    1.0000 0.65890  0.53210  0.09990  Biso   1.000  C
  C1245    1.0000 0.64260  0.53430  0.08910  Biso   1.000  C
  C1246    1.0000 0.63820  0.52600  0.03870  Biso   1.000  C
  H709     1.0000 0.62810  0.52230  0.03010  Biso   1.000  H
  C1247    1.0000 0.65010  0.52490  0.00230  Biso   1.000  C
  H710     1.0000 0.64750  0.52020  0.97000  Biso   1.000  H
  C1248    1.0000 0.66500  0.53050  0.01580  Biso   1.000  C
  H711     1.0000 0.67250  0.53460  0.99280  Biso   1.000  H
  C1249    1.0000 0.66850  0.52990  0.06500  Biso   1.000  C
  H712     1.0000 0.67870  0.52790  0.07310  Biso   1.000  H
  C1250    1.0000 0.65510  0.53680  0.23340  Biso   1.000  C
  H713     1.0000 0.66520  0.53210  0.24210  Biso   1.000  H
  C1251    1.0000 0.64340  0.54580  0.26960  Biso   1.000  C
  H714     1.0000 0.64570  0.55040  0.30210  Biso   1.000  H
  C1252    1.0000 0.62800  0.54720  0.25300  Biso   1.000  C
  H715     1.0000 0.62060  0.55080  0.27640  Biso   1.000  H
  C1253    1.0000 0.62360  0.54420  0.21010  Biso   1.000  C
  H716     1.0000 0.61340  0.54750  0.20230  Biso   1.000  H
  C1254    1.0000 0.67910  0.54090  0.16580  Biso   1.000  C
  C1255    1.0000 0.68550  0.46270  0.18470  Biso   1.000  C
  H717     1.0000 0.68030  0.40500  0.18660  Biso   1.000  H
  C1256    1.0000 0.70060  0.47190  0.20180  Biso   1.000  C
  H718     1.0000 0.70510  0.42010  0.21710  Biso   1.000  H
  C1257    1.0000 0.70850  0.55270  0.19640  Biso   1.000  C
  C1258    1.0000 0.70090  0.62830  0.17430  Biso   1.000  C
  H719     1.0000 0.70630  0.68350  0.16740  Biso   1.000  H
  C1259    1.0000 0.68610  0.62590  0.16240  Biso   1.000  C
  H720     1.0000 0.68100  0.68050  0.15230  Biso   1.000  H
  C1260    1.0000 0.72470  0.56510  0.21450  Biso   1.000  C
  O113     1.0000 0.51330  0.75820  0.97880  Biso   1.000  O
  O114     1.0000 0.51540  0.61980  0.93190  Biso   1.000  O
  O115     1.0000 0.73350  0.81160  0.80510  Biso   1.000  O
  O116     1.0000 0.72974  0.66240  0.79520  Biso   1.000  O
  O117     1.0000 0.73149  0.63880  0.20790  Biso   1.000  O
  O118     1.0000 0.73010  0.49280  0.23650  Biso   1.000  O
  O119     1.0000 0.51340  0.69070  0.07140  Biso   1.000  O
  O120     1.0000 0.51250  0.56490  0.02580  Biso   1.000  O
  Tb15     1.0000 0.49899  0.81192  0.03702  Biso   1.000  Tb
  C1261    1.0000 0.61050  0.87920  0.64180  Biso   1.000  C
  H721     1.0000 0.62040  0.87490  0.65270  Biso   1.000  H
  C1262    1.0000 0.60150  0.80660  0.64950  Biso   1.000  C
  H722     1.0000 0.60540  0.74910  0.66040  Biso   1.000  H
  C1263    1.0000 0.58530  0.81390  0.64140  Biso   1.000  C
  H723     1.0000 0.57880  0.76660  0.65220  Biso   1.000  H
  C1264    1.0000 0.57990  0.89350  0.61700  Biso   1.000  C
  H724     1.0000 0.56980  0.89580  0.60880  Biso   1.000  H
  C1265    1.0000 0.56740  0.06960  0.57840  Biso   1.000  C
  C1266    1.0000 0.55890  0.01750  0.54300  Biso   1.000  C
  H725     1.0000 0.56380  0.97000  0.52560  Biso   1.000  H
  C1267    1.0000 0.54380  0.03480  0.53320  Biso   1.000  C
  H726     1.0000 0.53910  0.00410  0.50760  Biso   1.000  H
  C1268    1.0000 0.53580  0.09660  0.56120  Biso   1.000  C
  C1269    1.0000 0.54390  0.14880  0.60040  Biso   1.000  C
  H727     1.0000 0.53870  0.19210  0.61970  Biso   1.000  H
  C1270    1.0000 0.55840  0.13260  0.60720  Biso   1.000  C
  H728     1.0000 0.56320  0.16420  0.63240  Biso   1.000  H
  C1271    1.0000 0.52020  0.11810  0.55180  Biso   1.000  C
  C1272    1.0000 0.51930  0.19810  0.44950  Biso   1.000  C
  C1273    1.0000 0.53720  0.22180  0.43590  Biso   1.000  C
  C1274    1.0000 0.54440  0.18180  0.40480  Biso   1.000  C
  H729     1.0000 0.53950  0.13390  0.38770  Biso   1.000  H
  C1275    1.0000 0.55860  0.20000  0.39300  Biso   1.000  C
  H730     1.0000 0.56270  0.17170  0.36580  Biso   1.000  H
  C1276    1.0000 0.56760  0.26280  0.42150  Biso   1.000  C
  C1277    1.0000 0.55940  0.30880  0.45920  Biso   1.000  C
  H731     1.0000 0.56460  0.34970  0.47960  Biso   1.000  H
  C1278    1.0000 0.54450  0.29650  0.46700  Biso   1.000  C
  H732     1.0000 0.53920  0.33140  0.48980  Biso   1.000  H
  C1279    1.0000 0.59370  0.19720  0.42370  Biso   1.000  C
  C1280    1.0000 0.60970  0.20910  0.40930  Biso   1.000  C
  C1281    1.0000 0.61490  0.29210  0.39410  Biso   1.000  C
  C1282    1.0000 0.60540  0.37170  0.38690  Biso   1.000  C
  C1283    1.0000 0.58890  0.36730  0.39410  Biso   1.000  C
  C1284    1.0000 0.58400  0.27360  0.41420  Biso   1.000  C
  C1285    1.0000 0.58860  0.11000  0.44690  Biso   1.000  C
  H733     1.0000 0.57880  0.10830  0.45840  Biso   1.000  H
  C1286    1.0000 0.59710  0.03240  0.45290  Biso   1.000  C
  H734     1.0000 0.59320  0.97560  0.46520  Biso   1.000  H
  C1287    1.0000 0.61260  0.04270  0.43890  Biso   1.000  C
  H735     1.0000 0.61890  0.99020  0.44290  Biso   1.000  H
  C1288    1.0000 0.61870  0.12420  0.42030  Biso   1.000  C
  H736     1.0000 0.62900  0.12600  0.41450  Biso   1.000  H
  C1289    1.0000 0.61090  0.45860  0.36830  Biso   1.000  C
  H737     1.0000 0.62110  0.46500  0.36270  Biso   1.000  H
  C1290    1.0000 0.60140  0.53580  0.35800  Biso   1.000  C
  H738     1.0000 0.60520  0.59340  0.34650  Biso   1.000  H
  C1291    1.0000 0.58480  0.52160  0.36660  Biso   1.000  C
  H739     1.0000 0.57810  0.57030  0.35840  Biso   1.000  H
  C1292    1.0000 0.57950  0.44250  0.38520  Biso   1.000  C
  H740     1.0000 0.56930  0.43750  0.39230  Biso   1.000  H
  C1293    1.0000 0.63170  0.29850  0.38160  Biso   1.000  C
  C1294    1.0000 0.64280  0.30600  0.42110  Biso   1.000  C
  C1295    1.0000 0.65830  0.30240  0.41020  Biso   1.000  C
  C1296    1.0000 0.66380  0.29350  0.36120  Biso   1.000  C
  C1297    1.0000 0.65220  0.29590  0.32290  Biso   1.000  C
  C1298    1.0000 0.63710  0.29570  0.33870  Biso   1.000  C
  C1299    1.0000 0.62570  0.29410  0.29580  Biso   1.000  C
  H741     1.0000 0.61540  0.29570  0.30120  Biso   1.000  H
  C1300    1.0000 0.63120  0.29030  0.25070  Biso   1.000  C
  H742     1.0000 0.62430  0.28900  0.22570  Biso   1.000  H
  C1301    1.0000 0.64670  0.28820  0.23870  Biso   1.000  C
  H743     1.0000 0.64970  0.28190  0.20690  Biso   1.000  H
  C1302    1.0000 0.65630  0.29510  0.27180  Biso   1.000  C
  H744     1.0000 0.66640  0.29980  0.26360  Biso   1.000  H
  C1303    1.0000 0.63870  0.31140  0.47130  Biso   1.000  C
  H745     1.0000 0.62860  0.30920  0.48000  Biso   1.000  H
  C1304    1.0000 0.64910  0.31930  0.50500  Biso   1.000  C
  H746     1.0000 0.64640  0.33080  0.53660  Biso   1.000  H
  C1305    1.0000 0.66410  0.31060  0.49300  Biso   1.000  C
  H747     1.0000 0.67090  0.30540  0.51830  Biso   1.000  H
  C1306    1.0000 0.66970  0.30870  0.45060  Biso   1.000  C
  H748     1.0000 0.68000  0.31110  0.44510  Biso   1.000  H
  C1307    1.0000 0.67970  0.28340  0.34710  Biso   1.000  C
  C1308    1.0000 0.68560  0.19930  0.34890  Biso   1.000  C
  H749     1.0000 0.68000  0.14880  0.36140  Biso   1.000  H
  C1309    1.0000 0.70010  0.18270  0.33260  Biso   1.000  C
  H750     1.0000 0.70350  0.12010  0.33010  Biso   1.000  H
  C1310    1.0000 0.70970  0.25640  0.31980  Biso   1.000  C
  C1311    1.0000 0.70290  0.34650  0.31990  Biso   1.000  C
  H751     1.0000 0.70820  0.39850  0.30780  Biso   1.000  H
  C1312    1.0000 0.68870  0.36100  0.33710  Biso   1.000  C
  H752     1.0000 0.68510  0.42270  0.34200  Biso   1.000  H
  C1313    1.0000 0.72530  0.23670  0.30320  Biso   1.000  C
  C1314    1.0000 0.58330  0.05290  0.58770  Biso   1.000  C
  C1315    1.0000 0.58940  0.97180  0.60410  Biso   1.000  C
  C1316    1.0000 0.60590  0.96450  0.61740  Biso   1.000  C
  C1317    1.0000 0.61490  0.04060  0.60960  Biso   1.000  C
  C1318    1.0000 0.60930  0.12590  0.58720  Biso   1.000  C
  C1319    1.0000 0.59240  0.13600  0.57770  Biso   1.000  C
  C1320    1.0000 0.58770  0.22440  0.55580  Biso   1.000  C
  H753     1.0000 0.57780  0.23250  0.54570  Biso   1.000  H
  C1321    1.0000 0.59770  0.29410  0.55010  Biso   1.000  C
  H754     1.0000 0.59440  0.35000  0.53550  Biso   1.000  H
  C1322    1.0000 0.61220  0.29020  0.56380  Biso   1.000  C
  H755     1.0000 0.61830  0.34370  0.56000  Biso   1.000  H
  C1323    1.0000 0.61770  0.21480  0.58200  Biso   1.000  C
  H756     1.0000 0.62760  0.21620  0.59250  Biso   1.000  H
  C1324    1.0000 0.63090  0.03300  0.62110  Biso   1.000  C
  C1325    1.0000 0.63570  0.03480  0.67150  Biso   1.000  C
  C1326    1.0000 0.65080  0.03540  0.68490  Biso   1.000  C
  C1327    1.0000 0.66190  0.03350  0.65030  Biso   1.000  C
  C1328    1.0000 0.65890  0.03210  0.59990  Biso   1.000  C
  C1329    1.0000 0.64260  0.03430  0.58910  Biso   1.000  C
  C1330    1.0000 0.63820  0.02600  0.53870  Biso   1.000  C
  H757     1.0000 0.62810  0.02230  0.53010  Biso   1.000  H
  C1331    1.0000 0.65010  0.02490  0.50230  Biso   1.000  C
  H758     1.0000 0.64750  0.02020  0.47000  Biso   1.000  H
  C1332    1.0000 0.66500  0.03050  0.51580  Biso   1.000  C
  H759     1.0000 0.67250  0.03460  0.49280  Biso   1.000  H
  C1333    1.0000 0.66850  0.02990  0.56500  Biso   1.000  C
  H760     1.0000 0.67870  0.02790  0.57310  Biso   1.000  H
  C1334    1.0000 0.65510  0.03680  0.73340  Biso   1.000  C
  H761     1.0000 0.66520  0.03210  0.74210  Biso   1.000  H
  C1335    1.0000 0.64340  0.04580  0.76960  Biso   1.000  C
  H762     1.0000 0.64570  0.05040  0.80210  Biso   1.000  H
  C1336    1.0000 0.62800  0.04720  0.75300  Biso   1.000  C
  H763     1.0000 0.62060  0.05080  0.77640  Biso   1.000  H
  C1337    1.0000 0.62360  0.04420  0.71010  Biso   1.000  C
  H764     1.0000 0.61340  0.04750  0.70230  Biso   1.000  H
  C1338    1.0000 0.67910  0.04090  0.66580  Biso   1.000  C
  C1339    1.0000 0.68550  0.96270  0.68470  Biso   1.000  C
  H765     1.0000 0.68030  0.90500  0.68660  Biso   1.000  H
  C1340    1.0000 0.70060  0.97190  0.70180  Biso   1.000  C
  H766     1.0000 0.70510  0.92010  0.71710  Biso   1.000  H
  C1341    1.0000 0.70850  0.05270  0.69640  Biso   1.000  C
  C1342    1.0000 0.70090  0.12830  0.67430  Biso   1.000  C
  H767     1.0000 0.70630  0.18350  0.66740  Biso   1.000  H
  C1343    1.0000 0.68610  0.12590  0.66240  Biso   1.000  C
  H768     1.0000 0.68100  0.18050  0.65230  Biso   1.000  H
  C1344    1.0000 0.72470  0.06510  0.71450  Biso   1.000  C
  O121     1.0000 0.51330  0.25820  0.47880  Biso   1.000  O
  O122     1.0000 0.51540  0.11980  0.43190  Biso   1.000  O
  O123     1.0000 0.73350  0.31160  0.30510  Biso   1.000  O
  O124     1.0000 0.72974  0.16240  0.29520  Biso   1.000  O
  O125     1.0000 0.73149  0.13880  0.70790  Biso   1.000  O
  O126     1.0000 0.73010  0.99280  0.73650  Biso   1.000  O
  O127     1.0000 0.51340  0.19070  0.57140  Biso   1.000  O
  O128     1.0000 0.51250  0.06490  0.52580  Biso   1.000  O
  Tb16     1.0000 0.49899  0.31192  0.53702  Biso   1.000  Tb
  Tb17     1.0000 0.25000  0.25000  0.20899  Biso   1.000  Tb
  Tb18     1.0000 0.25000  0.75000  0.70899  Biso   1.000  Tb
  Tb19     1.0000 0.75000  0.75000  0.20899  Biso   1.000  Tb
  Tb20     1.0000 0.75000  0.25000  0.70899  Biso   1.000  Tb
  Tb21     1.0000 0.50000  0.00000  0.45899  Biso   1.000  Tb
  Tb22     1.0000 0.50000  0.50000  0.95899  Biso   1.000  Tb
  Tb23     1.0000 0.00000  0.50000  0.45899  Biso   1.000  Tb
  Tb24     1.0000 0.00000  0.00000  0.95899  Biso   1.000  Tb
