data_image0
_cell_length_a       32.0941
_cell_length_b       32.0941
_cell_length_c       32.0941
_cell_angle_alpha    90
_cell_angle_beta     90
_cell_angle_gamma    90

_symmetry_space_group_name_H-M    "P 1"
_symmetry_int_tables_number       1

loop_
  _symmetry_equiv_pos_as_xyz
  'x, y, z'

loop_
  _atom_site_label
  _atom_site_occupancy
  _atom_site_fract_x
  _atom_site_fract_y
  _atom_site_fract_z
  _atom_site_thermal_displace_type
  _atom_site_B_iso_or_equiv
  _atom_site_type_symbol
  O1       1.0000 0.89650  0.51750  0.49620  Biso   1.000  O
  O2       1.0000 0.91371  0.48141  0.44098  Biso   1.000  O
  C1       1.0000 0.78760  0.40476  0.49090  Biso   1.000  C
  C2       1.0000 0.79640  0.43600  0.51940  Biso   1.000  C
  H1       1.0000 0.77980  0.43880  0.54370  Biso   1.000  H
  C3       1.0000 0.85480  0.45770  0.47850  Biso   1.000  C
  C4       1.0000 0.82870  0.46260  0.51280  Biso   1.000  C
  H2       1.0000 0.83340  0.48490  0.53170  Biso   1.000  H
  C5       1.0000 0.84460  0.42700  0.45100  Biso   1.000  C
  H3       1.0000 0.86040  0.42470  0.42610  Biso   1.000  H
  C6       1.0000 0.89170  0.48790  0.47090  Biso   1.000  C
  C7       1.0000 0.81350  0.39990  0.45720  Biso   1.000  C
  H4       1.0000 0.80940  0.37740  0.43830  Biso   1.000  H
  O3       1.0000 0.39650  0.01750  0.99620  Biso   1.000  O
  O4       1.0000 0.41371  0.98141  0.94098  Biso   1.000  O
  C8       1.0000 0.28760  0.90476  0.99090  Biso   1.000  C
  C9       1.0000 0.29640  0.93600  0.01940  Biso   1.000  C
  H5       1.0000 0.27980  0.93880  0.04370  Biso   1.000  H
  C10      1.0000 0.35480  0.95770  0.97850  Biso   1.000  C
  C11      1.0000 0.32870  0.96260  0.01280  Biso   1.000  C
  H6       1.0000 0.33340  0.98490  0.03170  Biso   1.000  H
  C12      1.0000 0.34460  0.92700  0.95100  Biso   1.000  C
  H7       1.0000 0.36040  0.92470  0.92610  Biso   1.000  H
  C13      1.0000 0.39170  0.98790  0.97090  Biso   1.000  C
  C14      1.0000 0.31350  0.89990  0.95720  Biso   1.000  C
  H8       1.0000 0.30940  0.87740  0.93830  Biso   1.000  H
  O5       1.0000 0.60350  0.48250  0.99620  Biso   1.000  O
  O6       1.0000 0.58629  0.51859  0.94098  Biso   1.000  O
  C15      1.0000 0.71240  0.59524  0.99090  Biso   1.000  C
  C16      1.0000 0.70360  0.56400  0.01940  Biso   1.000  C
  H9       1.0000 0.72020  0.56120  0.04370  Biso   1.000  H
  C17      1.0000 0.64520  0.54230  0.97850  Biso   1.000  C
  C18      1.0000 0.67130  0.53740  0.01280  Biso   1.000  C
  H10      1.0000 0.66660  0.51510  0.03170  Biso   1.000  H
  C19      1.0000 0.65540  0.57300  0.95100  Biso   1.000  C
  H11      1.0000 0.63960  0.57530  0.92610  Biso   1.000  H
  C20      1.0000 0.60830  0.51210  0.97090  Biso   1.000  C
  C21      1.0000 0.68650  0.60010  0.95720  Biso   1.000  C
  H12      1.0000 0.69060  0.62260  0.93830  Biso   1.000  H
  O7       1.0000 0.10350  0.98250  0.49620  Biso   1.000  O
  O8       1.0000 0.08629  0.01859  0.44098  Biso   1.000  O
  C22      1.0000 0.21240  0.09524  0.49090  Biso   1.000  C
  C23      1.0000 0.20360  0.06400  0.51940  Biso   1.000  C
  H13      1.0000 0.22020  0.06120  0.54370  Biso   1.000  H
  C24      1.0000 0.14520  0.04230  0.47850  Biso   1.000  C
  C25      1.0000 0.17130  0.03740  0.51280  Biso   1.000  C
  H14      1.0000 0.16660  0.01510  0.53170  Biso   1.000  H
  C26      1.0000 0.15540  0.07300  0.45100  Biso   1.000  C
  H15      1.0000 0.13960  0.07530  0.42610  Biso   1.000  H
  C27      1.0000 0.10830  0.01210  0.47090  Biso   1.000  C
  C28      1.0000 0.18650  0.10010  0.45720  Biso   1.000  C
  H16      1.0000 0.19060  0.12260  0.43830  Biso   1.000  H
  O9       1.0000 0.10350  0.01750  0.00380  Biso   1.000  O
  O10      1.0000 0.08629  0.98141  0.05902  Biso   1.000  O
  C29      1.0000 0.21240  0.90476  0.00910  Biso   1.000  C
  C30      1.0000 0.20360  0.93600  0.98060  Biso   1.000  C
  H17      1.0000 0.22020  0.93880  0.95630  Biso   1.000  H
  C31      1.0000 0.14520  0.95770  0.02150  Biso   1.000  C
  C32      1.0000 0.17130  0.96260  0.98720  Biso   1.000  C
  H18      1.0000 0.16660  0.98490  0.96830  Biso   1.000  H
  C33      1.0000 0.15540  0.92700  0.04900  Biso   1.000  C
  H19      1.0000 0.13960  0.92470  0.07390  Biso   1.000  H
  C34      1.0000 0.10830  0.98790  0.02910  Biso   1.000  C
  C35      1.0000 0.18650  0.89990  0.04280  Biso   1.000  C
  H20      1.0000 0.19060  0.87740  0.06170  Biso   1.000  H
  O11      1.0000 0.60350  0.51750  0.50380  Biso   1.000  O
  O12      1.0000 0.58629  0.48141  0.55902  Biso   1.000  O
  C36      1.0000 0.71240  0.40476  0.50910  Biso   1.000  C
  C37      1.0000 0.70360  0.43600  0.48060  Biso   1.000  C
  H21      1.0000 0.72020  0.43880  0.45630  Biso   1.000  H
  C38      1.0000 0.64520  0.45770  0.52150  Biso   1.000  C
  C39      1.0000 0.67130  0.46260  0.48720  Biso   1.000  C
  H22      1.0000 0.66660  0.48490  0.46830  Biso   1.000  H
  C40      1.0000 0.65540  0.42700  0.54900  Biso   1.000  C
  H23      1.0000 0.63960  0.42470  0.57390  Biso   1.000  H
  C41      1.0000 0.60830  0.48790  0.52910  Biso   1.000  C
  C42      1.0000 0.68650  0.39990  0.54280  Biso   1.000  C
  H24      1.0000 0.69060  0.37740  0.56170  Biso   1.000  H
  O13      1.0000 0.39650  0.98250  0.50380  Biso   1.000  O
  O14      1.0000 0.41371  0.01859  0.55902  Biso   1.000  O
  C43      1.0000 0.28760  0.09524  0.50910  Biso   1.000  C
  C44      1.0000 0.29640  0.06400  0.48060  Biso   1.000  C
  H25      1.0000 0.27980  0.06120  0.45630  Biso   1.000  H
  C45      1.0000 0.35480  0.04230  0.52150  Biso   1.000  C
  C46      1.0000 0.32870  0.03740  0.48720  Biso   1.000  C
  H26      1.0000 0.33340  0.01510  0.46830  Biso   1.000  H
  C47      1.0000 0.34460  0.07300  0.54900  Biso   1.000  C
  H27      1.0000 0.36040  0.07530  0.57390  Biso   1.000  H
  C48      1.0000 0.39170  0.01210  0.52910  Biso   1.000  C
  C49      1.0000 0.31350  0.10010  0.54280  Biso   1.000  C
  H28      1.0000 0.30940  0.12260  0.56170  Biso   1.000  H
  O15      1.0000 0.89650  0.48250  0.00380  Biso   1.000  O
  O16      1.0000 0.91371  0.51859  0.05902  Biso   1.000  O
  C50      1.0000 0.78760  0.59524  0.00910  Biso   1.000  C
  C51      1.0000 0.79640  0.56400  0.98060  Biso   1.000  C
  H29      1.0000 0.77980  0.56120  0.95630  Biso   1.000  H
  C52      1.0000 0.85480  0.54230  0.02150  Biso   1.000  C
  C53      1.0000 0.82870  0.53740  0.98720  Biso   1.000  C
  H30      1.0000 0.83340  0.51510  0.96830  Biso   1.000  H
  C54      1.0000 0.84460  0.57300  0.04900  Biso   1.000  C
  H31      1.0000 0.86040  0.57530  0.07390  Biso   1.000  H
  C55      1.0000 0.89170  0.51210  0.02910  Biso   1.000  C
  C56      1.0000 0.81350  0.60010  0.04280  Biso   1.000  C
  H32      1.0000 0.80940  0.62260  0.06170  Biso   1.000  H
  O17      1.0000 0.49620  0.89650  0.51750  Biso   1.000  O
  O18      1.0000 0.44098  0.91371  0.48141  Biso   1.000  O
  C57      1.0000 0.49090  0.78760  0.40476  Biso   1.000  C
  C58      1.0000 0.51940  0.79640  0.43600  Biso   1.000  C
  H33      1.0000 0.54370  0.77980  0.43880  Biso   1.000  H
  C59      1.0000 0.47850  0.85480  0.45770  Biso   1.000  C
  C60      1.0000 0.51280  0.82870  0.46260  Biso   1.000  C
  H34      1.0000 0.53170  0.83340  0.48490  Biso   1.000  H
  C61      1.0000 0.45100  0.84460  0.42700  Biso   1.000  C
  H35      1.0000 0.42610  0.86040  0.42470  Biso   1.000  H
  C62      1.0000 0.47090  0.89170  0.48790  Biso   1.000  C
  C63      1.0000 0.45720  0.81350  0.39990  Biso   1.000  C
  H36      1.0000 0.43830  0.80940  0.37740  Biso   1.000  H
  O19      1.0000 0.99620  0.39650  0.01750  Biso   1.000  O
  O20      1.0000 0.94098  0.41371  0.98141  Biso   1.000  O
  C64      1.0000 0.99090  0.28760  0.90476  Biso   1.000  C
  C65      1.0000 0.01940  0.29640  0.93600  Biso   1.000  C
  H37      1.0000 0.04370  0.27980  0.93880  Biso   1.000  H
  C66      1.0000 0.97850  0.35480  0.95770  Biso   1.000  C
  C67      1.0000 0.01280  0.32870  0.96260  Biso   1.000  C
  H38      1.0000 0.03170  0.33340  0.98490  Biso   1.000  H
  C68      1.0000 0.95100  0.34460  0.92700  Biso   1.000  C
  H39      1.0000 0.92610  0.36040  0.92470  Biso   1.000  H
  C69      1.0000 0.97090  0.39170  0.98790  Biso   1.000  C
  C70      1.0000 0.95720  0.31350  0.89990  Biso   1.000  C
  H40      1.0000 0.93830  0.30940  0.87740  Biso   1.000  H
  O21      1.0000 0.99620  0.60350  0.48250  Biso   1.000  O
  O22      1.0000 0.94098  0.58629  0.51859  Biso   1.000  O
  C71      1.0000 0.99090  0.71240  0.59524  Biso   1.000  C
  C72      1.0000 0.01940  0.70360  0.56400  Biso   1.000  C
  H41      1.0000 0.04370  0.72020  0.56120  Biso   1.000  H
  C73      1.0000 0.97850  0.64520  0.54230  Biso   1.000  C
  C74      1.0000 0.01280  0.67130  0.53740  Biso   1.000  C
  H42      1.0000 0.03170  0.66660  0.51510  Biso   1.000  H
  C75      1.0000 0.95100  0.65540  0.57300  Biso   1.000  C
  H43      1.0000 0.92610  0.63960  0.57530  Biso   1.000  H
  C76      1.0000 0.97090  0.60830  0.51210  Biso   1.000  C
  C77      1.0000 0.95720  0.68650  0.60010  Biso   1.000  C
  H44      1.0000 0.93830  0.69060  0.62260  Biso   1.000  H
  O23      1.0000 0.49620  0.10350  0.98250  Biso   1.000  O
  O24      1.0000 0.44098  0.08629  0.01859  Biso   1.000  O
  C78      1.0000 0.49090  0.21240  0.09524  Biso   1.000  C
  C79      1.0000 0.51940  0.20360  0.06400  Biso   1.000  C
  H45      1.0000 0.54370  0.22020  0.06120  Biso   1.000  H
  C80      1.0000 0.47850  0.14520  0.04230  Biso   1.000  C
  C81      1.0000 0.51280  0.17130  0.03740  Biso   1.000  C
  H46      1.0000 0.53170  0.16660  0.01510  Biso   1.000  H
  C82      1.0000 0.45100  0.15540  0.07300  Biso   1.000  C
  H47      1.0000 0.42610  0.13960  0.07530  Biso   1.000  H
  C83      1.0000 0.47090  0.10830  0.01210  Biso   1.000  C
  C84      1.0000 0.45720  0.18650  0.10010  Biso   1.000  C
  H48      1.0000 0.43830  0.19060  0.12260  Biso   1.000  H
  O25      1.0000 0.00380  0.10350  0.01750  Biso   1.000  O
  O26      1.0000 0.05902  0.08629  0.98141  Biso   1.000  O
  C85      1.0000 0.00910  0.21240  0.90476  Biso   1.000  C
  C86      1.0000 0.98060  0.20360  0.93600  Biso   1.000  C
  H49      1.0000 0.95630  0.22020  0.93880  Biso   1.000  H
  C87      1.0000 0.02150  0.14520  0.95770  Biso   1.000  C
  C88      1.0000 0.98720  0.17130  0.96260  Biso   1.000  C
  H50      1.0000 0.96830  0.16660  0.98490  Biso   1.000  H
  C89      1.0000 0.04900  0.15540  0.92700  Biso   1.000  C
  H51      1.0000 0.07390  0.13960  0.92470  Biso   1.000  H
  C90      1.0000 0.02910  0.10830  0.98790  Biso   1.000  C
  C91      1.0000 0.04280  0.18650  0.89990  Biso   1.000  C
  H52      1.0000 0.06170  0.19060  0.87740  Biso   1.000  H
  O27      1.0000 0.50380  0.60350  0.51750  Biso   1.000  O
  O28      1.0000 0.55902  0.58629  0.48141  Biso   1.000  O
  C92      1.0000 0.50910  0.71240  0.40476  Biso   1.000  C
  C93      1.0000 0.48060  0.70360  0.43600  Biso   1.000  C
  H53      1.0000 0.45630  0.72020  0.43880  Biso   1.000  H
  C94      1.0000 0.52150  0.64520  0.45770  Biso   1.000  C
  C95      1.0000 0.48720  0.67130  0.46260  Biso   1.000  C
  H54      1.0000 0.46830  0.66660  0.48490  Biso   1.000  H
  C96      1.0000 0.54900  0.65540  0.42700  Biso   1.000  C
  H55      1.0000 0.57390  0.63960  0.42470  Biso   1.000  H
  C97      1.0000 0.52910  0.60830  0.48790  Biso   1.000  C
  C98      1.0000 0.54280  0.68650  0.39990  Biso   1.000  C
  H56      1.0000 0.56170  0.69060  0.37740  Biso   1.000  H
  O29      1.0000 0.50380  0.39650  0.98250  Biso   1.000  O
  O30      1.0000 0.55902  0.41371  0.01859  Biso   1.000  O
  C99      1.0000 0.50910  0.28760  0.09524  Biso   1.000  C
  C100     1.0000 0.48060  0.29640  0.06400  Biso   1.000  C
  H57      1.0000 0.45630  0.27980  0.06120  Biso   1.000  H
  C101     1.0000 0.52150  0.35480  0.04230  Biso   1.000  C
  C102     1.0000 0.48720  0.32870  0.03740  Biso   1.000  C
  H58      1.0000 0.46830  0.33340  0.01510  Biso   1.000  H
  C103     1.0000 0.54900  0.34460  0.07300  Biso   1.000  C
  H59      1.0000 0.57390  0.36040  0.07530  Biso   1.000  H
  C104     1.0000 0.52910  0.39170  0.01210  Biso   1.000  C
  C105     1.0000 0.54280  0.31350  0.10010  Biso   1.000  C
  H60      1.0000 0.56170  0.30940  0.12260  Biso   1.000  H
  O31      1.0000 0.00380  0.89650  0.48250  Biso   1.000  O
  O32      1.0000 0.05902  0.91371  0.51859  Biso   1.000  O
  C106     1.0000 0.00910  0.78760  0.59524  Biso   1.000  C
  C107     1.0000 0.98060  0.79640  0.56400  Biso   1.000  C
  H61      1.0000 0.95630  0.77980  0.56120  Biso   1.000  H
  C108     1.0000 0.02150  0.85480  0.54230  Biso   1.000  C
  C109     1.0000 0.98720  0.82870  0.53740  Biso   1.000  C
  H62      1.0000 0.96830  0.83340  0.51510  Biso   1.000  H
  C110     1.0000 0.04900  0.84460  0.57300  Biso   1.000  C
  H63      1.0000 0.07390  0.86040  0.57530  Biso   1.000  H
  C111     1.0000 0.02910  0.89170  0.51210  Biso   1.000  C
  C112     1.0000 0.04280  0.81350  0.60010  Biso   1.000  C
  H64      1.0000 0.06170  0.80940  0.62260  Biso   1.000  H
  O33      1.0000 0.51750  0.49620  0.89650  Biso   1.000  O
  O34      1.0000 0.48141  0.44098  0.91371  Biso   1.000  O
  C113     1.0000 0.40476  0.49090  0.78760  Biso   1.000  C
  C114     1.0000 0.43600  0.51940  0.79640  Biso   1.000  C
  H65      1.0000 0.43880  0.54370  0.77980  Biso   1.000  H
  C115     1.0000 0.45770  0.47850  0.85480  Biso   1.000  C
  C116     1.0000 0.46260  0.51280  0.82870  Biso   1.000  C
  H66      1.0000 0.48490  0.53170  0.83340  Biso   1.000  H
  C117     1.0000 0.42700  0.45100  0.84460  Biso   1.000  C
  H67      1.0000 0.42470  0.42610  0.86040  Biso   1.000  H
  C118     1.0000 0.48790  0.47090  0.89170  Biso   1.000  C
  C119     1.0000 0.39990  0.45720  0.81350  Biso   1.000  C
  H68      1.0000 0.37740  0.43830  0.80940  Biso   1.000  H
  O35      1.0000 0.01750  0.99620  0.39650  Biso   1.000  O
  O36      1.0000 0.98141  0.94098  0.41371  Biso   1.000  O
  C120     1.0000 0.90476  0.99090  0.28760  Biso   1.000  C
  C121     1.0000 0.93600  0.01940  0.29640  Biso   1.000  C
  H69      1.0000 0.93880  0.04370  0.27980  Biso   1.000  H
  C122     1.0000 0.95770  0.97850  0.35480  Biso   1.000  C
  C123     1.0000 0.96260  0.01280  0.32870  Biso   1.000  C
  H70      1.0000 0.98490  0.03170  0.33340  Biso   1.000  H
  C124     1.0000 0.92700  0.95100  0.34460  Biso   1.000  C
  H71      1.0000 0.92470  0.92610  0.36040  Biso   1.000  H
  C125     1.0000 0.98790  0.97090  0.39170  Biso   1.000  C
  C126     1.0000 0.89990  0.95720  0.31350  Biso   1.000  C
  H72      1.0000 0.87740  0.93830  0.30940  Biso   1.000  H
  O37      1.0000 0.48250  0.99620  0.60350  Biso   1.000  O
  O38      1.0000 0.51859  0.94098  0.58629  Biso   1.000  O
  C127     1.0000 0.59524  0.99090  0.71240  Biso   1.000  C
  C128     1.0000 0.56400  0.01940  0.70360  Biso   1.000  C
  H73      1.0000 0.56120  0.04370  0.72020  Biso   1.000  H
  C129     1.0000 0.54230  0.97850  0.64520  Biso   1.000  C
  C130     1.0000 0.53740  0.01280  0.67130  Biso   1.000  C
  H74      1.0000 0.51510  0.03170  0.66660  Biso   1.000  H
  C131     1.0000 0.57300  0.95100  0.65540  Biso   1.000  C
  H75      1.0000 0.57530  0.92610  0.63960  Biso   1.000  H
  C132     1.0000 0.51210  0.97090  0.60830  Biso   1.000  C
  C133     1.0000 0.60010  0.95720  0.68650  Biso   1.000  C
  H76      1.0000 0.62260  0.93830  0.69060  Biso   1.000  H
  O39      1.0000 0.98250  0.49620  0.10350  Biso   1.000  O
  O40      1.0000 0.01859  0.44098  0.08629  Biso   1.000  O
  C134     1.0000 0.09524  0.49090  0.21240  Biso   1.000  C
  C135     1.0000 0.06400  0.51940  0.20360  Biso   1.000  C
  H77      1.0000 0.06120  0.54370  0.22020  Biso   1.000  H
  C136     1.0000 0.04230  0.47850  0.14520  Biso   1.000  C
  C137     1.0000 0.03740  0.51280  0.17130  Biso   1.000  C
  H78      1.0000 0.01510  0.53170  0.16660  Biso   1.000  H
  C138     1.0000 0.07300  0.45100  0.15540  Biso   1.000  C
  H79      1.0000 0.07530  0.42610  0.13960  Biso   1.000  H
  C139     1.0000 0.01210  0.47090  0.10830  Biso   1.000  C
  C140     1.0000 0.10010  0.45720  0.18650  Biso   1.000  C
  H80      1.0000 0.12260  0.43830  0.19060  Biso   1.000  H
  O41      1.0000 0.01750  0.00380  0.10350  Biso   1.000  O
  O42      1.0000 0.98141  0.05902  0.08629  Biso   1.000  O
  C141     1.0000 0.90476  0.00910  0.21240  Biso   1.000  C
  C142     1.0000 0.93600  0.98060  0.20360  Biso   1.000  C
  H81      1.0000 0.93880  0.95630  0.22020  Biso   1.000  H
  C143     1.0000 0.95770  0.02150  0.14520  Biso   1.000  C
  C144     1.0000 0.96260  0.98720  0.17130  Biso   1.000  C
  H82      1.0000 0.98490  0.96830  0.16660  Biso   1.000  H
  C145     1.0000 0.92700  0.04900  0.15540  Biso   1.000  C
  H83      1.0000 0.92470  0.07390  0.13960  Biso   1.000  H
  C146     1.0000 0.98790  0.02910  0.10830  Biso   1.000  C
  C147     1.0000 0.89990  0.04280  0.18650  Biso   1.000  C
  H84      1.0000 0.87740  0.06170  0.19060  Biso   1.000  H
  O43      1.0000 0.51750  0.50380  0.60350  Biso   1.000  O
  O44      1.0000 0.48141  0.55902  0.58629  Biso   1.000  O
  C148     1.0000 0.40476  0.50910  0.71240  Biso   1.000  C
  C149     1.0000 0.43600  0.48060  0.70360  Biso   1.000  C
  H85      1.0000 0.43880  0.45630  0.72020  Biso   1.000  H
  C150     1.0000 0.45770  0.52150  0.64520  Biso   1.000  C
  C151     1.0000 0.46260  0.48720  0.67130  Biso   1.000  C
  H86      1.0000 0.48490  0.46830  0.66660  Biso   1.000  H
  C152     1.0000 0.42700  0.54900  0.65540  Biso   1.000  C
  H87      1.0000 0.42470  0.57390  0.63960  Biso   1.000  H
  C153     1.0000 0.48790  0.52910  0.60830  Biso   1.000  C
  C154     1.0000 0.39990  0.54280  0.68650  Biso   1.000  C
  H88      1.0000 0.37740  0.56170  0.69060  Biso   1.000  H
  O45      1.0000 0.98250  0.50380  0.39650  Biso   1.000  O
  O46      1.0000 0.01859  0.55902  0.41371  Biso   1.000  O
  C155     1.0000 0.09524  0.50910  0.28760  Biso   1.000  C
  C156     1.0000 0.06400  0.48060  0.29640  Biso   1.000  C
  H89      1.0000 0.06120  0.45630  0.27980  Biso   1.000  H
  C157     1.0000 0.04230  0.52150  0.35480  Biso   1.000  C
  C158     1.0000 0.03740  0.48720  0.32870  Biso   1.000  C
  H90      1.0000 0.01510  0.46830  0.33340  Biso   1.000  H
  C159     1.0000 0.07300  0.54900  0.34460  Biso   1.000  C
  H91      1.0000 0.07530  0.57390  0.36040  Biso   1.000  H
  C160     1.0000 0.01210  0.52910  0.39170  Biso   1.000  C
  C161     1.0000 0.10010  0.54280  0.31350  Biso   1.000  C
  H92      1.0000 0.12260  0.56170  0.30940  Biso   1.000  H
  O47      1.0000 0.48250  0.00380  0.89650  Biso   1.000  O
  O48      1.0000 0.51859  0.05902  0.91371  Biso   1.000  O
  C162     1.0000 0.59524  0.00910  0.78760  Biso   1.000  C
  C163     1.0000 0.56400  0.98060  0.79640  Biso   1.000  C
  H93      1.0000 0.56120  0.95630  0.77980  Biso   1.000  H
  C164     1.0000 0.54230  0.02150  0.85480  Biso   1.000  C
  C165     1.0000 0.53740  0.98720  0.82870  Biso   1.000  C
  H94      1.0000 0.51510  0.96830  0.83340  Biso   1.000  H
  C166     1.0000 0.57300  0.04900  0.84460  Biso   1.000  C
  H95      1.0000 0.57530  0.07390  0.86040  Biso   1.000  H
  C167     1.0000 0.51210  0.02910  0.89170  Biso   1.000  C
  C168     1.0000 0.60010  0.04280  0.81350  Biso   1.000  C
  H96      1.0000 0.62260  0.06170  0.80940  Biso   1.000  H
  O49      1.0000 0.76750  0.14650  0.74620  Biso   1.000  O
  O50      1.0000 0.73141  0.16371  0.69098  Biso   1.000  O
  C169     1.0000 0.65476  0.03760  0.74090  Biso   1.000  C
  C170     1.0000 0.68600  0.04640  0.76940  Biso   1.000  C
  H97      1.0000 0.68880  0.02980  0.79370  Biso   1.000  H
  C171     1.0000 0.70770  0.10480  0.72850  Biso   1.000  C
  C172     1.0000 0.71260  0.07870  0.76280  Biso   1.000  C
  H98      1.0000 0.73490  0.08340  0.78170  Biso   1.000  H
  C173     1.0000 0.67700  0.09460  0.70100  Biso   1.000  C
  H99      1.0000 0.67470  0.11040  0.67610  Biso   1.000  H
  C174     1.0000 0.73790  0.14170  0.72090  Biso   1.000  C
  C175     1.0000 0.64990  0.06350  0.70720  Biso   1.000  C
  H100     1.0000 0.62740  0.05940  0.68830  Biso   1.000  H
  O51      1.0000 0.26750  0.64650  0.24620  Biso   1.000  O
  O52      1.0000 0.23141  0.66371  0.19098  Biso   1.000  O
  C176     1.0000 0.15476  0.53760  0.24090  Biso   1.000  C
  C177     1.0000 0.18600  0.54640  0.26940  Biso   1.000  C
  H101     1.0000 0.18880  0.52980  0.29370  Biso   1.000  H
  C178     1.0000 0.20770  0.60480  0.22850  Biso   1.000  C
  C179     1.0000 0.21260  0.57870  0.26280  Biso   1.000  C
  H102     1.0000 0.23490  0.58340  0.28170  Biso   1.000  H
  C180     1.0000 0.17700  0.59460  0.20100  Biso   1.000  C
  H103     1.0000 0.17470  0.61040  0.17610  Biso   1.000  H
  C181     1.0000 0.23790  0.64170  0.22090  Biso   1.000  C
  C182     1.0000 0.14990  0.56350  0.20720  Biso   1.000  C
  H104     1.0000 0.12740  0.55940  0.18830  Biso   1.000  H
  O53      1.0000 0.73250  0.85350  0.24620  Biso   1.000  O
  O54      1.0000 0.76859  0.83629  0.19098  Biso   1.000  O
  C183     1.0000 0.84524  0.96240  0.24090  Biso   1.000  C
  C184     1.0000 0.81400  0.95360  0.26940  Biso   1.000  C
  H105     1.0000 0.81120  0.97020  0.29370  Biso   1.000  H
  C185     1.0000 0.79230  0.89520  0.22850  Biso   1.000  C
  C186     1.0000 0.78740  0.92130  0.26280  Biso   1.000  C
  H106     1.0000 0.76510  0.91660  0.28170  Biso   1.000  H
  C187     1.0000 0.82300  0.90540  0.20100  Biso   1.000  C
  H107     1.0000 0.82530  0.88960  0.17610  Biso   1.000  H
  C188     1.0000 0.76210  0.85830  0.22090  Biso   1.000  C
  C189     1.0000 0.85010  0.93650  0.20720  Biso   1.000  C
  H108     1.0000 0.87260  0.94060  0.18830  Biso   1.000  H
  O55      1.0000 0.23250  0.35350  0.74620  Biso   1.000  O
  O56      1.0000 0.26859  0.33629  0.69098  Biso   1.000  O
  C190     1.0000 0.34524  0.46240  0.74090  Biso   1.000  C
  C191     1.0000 0.31400  0.45360  0.76940  Biso   1.000  C
  H109     1.0000 0.31120  0.47020  0.79370  Biso   1.000  H
  C192     1.0000 0.29230  0.39520  0.72850  Biso   1.000  C
  C193     1.0000 0.28740  0.42130  0.76280  Biso   1.000  C
  H110     1.0000 0.26510  0.41660  0.78170  Biso   1.000  H
  C194     1.0000 0.32300  0.40540  0.70100  Biso   1.000  C
  H111     1.0000 0.32530  0.38960  0.67610  Biso   1.000  H
  C195     1.0000 0.26210  0.35830  0.72090  Biso   1.000  C
  C196     1.0000 0.35010  0.43650  0.70720  Biso   1.000  C
  H112     1.0000 0.37260  0.44060  0.68830  Biso   1.000  H
  O57      1.0000 0.26750  0.35350  0.25380  Biso   1.000  O
  O58      1.0000 0.23141  0.33629  0.30902  Biso   1.000  O
  C197     1.0000 0.15476  0.46240  0.25910  Biso   1.000  C
  C198     1.0000 0.18600  0.45360  0.23060  Biso   1.000  C
  H113     1.0000 0.18880  0.47020  0.20630  Biso   1.000  H
  C199     1.0000 0.20770  0.39520  0.27150  Biso   1.000  C
  C200     1.0000 0.21260  0.42130  0.23720  Biso   1.000  C
  H114     1.0000 0.23490  0.41660  0.21830  Biso   1.000  H
  C201     1.0000 0.17700  0.40540  0.29900  Biso   1.000  C
  H115     1.0000 0.17470  0.38960  0.32390  Biso   1.000  H
  C202     1.0000 0.23790  0.35830  0.27910  Biso   1.000  C
  C203     1.0000 0.14990  0.43650  0.29280  Biso   1.000  C
  H116     1.0000 0.12740  0.44060  0.31170  Biso   1.000  H
  O59      1.0000 0.76750  0.85350  0.75380  Biso   1.000  O
  O60      1.0000 0.73141  0.83629  0.80902  Biso   1.000  O
  C204     1.0000 0.65476  0.96240  0.75910  Biso   1.000  C
  C205     1.0000 0.68600  0.95360  0.73060  Biso   1.000  C
  H117     1.0000 0.68880  0.97020  0.70630  Biso   1.000  H
  C206     1.0000 0.70770  0.89520  0.77150  Biso   1.000  C
  C207     1.0000 0.71260  0.92130  0.73720  Biso   1.000  C
  H118     1.0000 0.73490  0.91660  0.71830  Biso   1.000  H
  C208     1.0000 0.67700  0.90540  0.79900  Biso   1.000  C
  H119     1.0000 0.67470  0.88960  0.82390  Biso   1.000  H
  C209     1.0000 0.73790  0.85830  0.77910  Biso   1.000  C
  C210     1.0000 0.64990  0.93650  0.79280  Biso   1.000  C
  H120     1.0000 0.62740  0.94060  0.81170  Biso   1.000  H
  O61      1.0000 0.23250  0.64650  0.75380  Biso   1.000  O
  O62      1.0000 0.26859  0.66371  0.80902  Biso   1.000  O
  C211     1.0000 0.34524  0.53760  0.75910  Biso   1.000  C
  C212     1.0000 0.31400  0.54640  0.73060  Biso   1.000  C
  H121     1.0000 0.31120  0.52980  0.70630  Biso   1.000  H
  C213     1.0000 0.29230  0.60480  0.77150  Biso   1.000  C
  C214     1.0000 0.28740  0.57870  0.73720  Biso   1.000  C
  H122     1.0000 0.26510  0.58340  0.71830  Biso   1.000  H
  C215     1.0000 0.32300  0.59460  0.79900  Biso   1.000  C
  H123     1.0000 0.32530  0.61040  0.82390  Biso   1.000  H
  C216     1.0000 0.26210  0.64170  0.77910  Biso   1.000  C
  C217     1.0000 0.35010  0.56350  0.79280  Biso   1.000  C
  H124     1.0000 0.37260  0.55940  0.81170  Biso   1.000  H
  O63      1.0000 0.73250  0.14650  0.25380  Biso   1.000  O
  O64      1.0000 0.76859  0.16371  0.30902  Biso   1.000  O
  C218     1.0000 0.84524  0.03760  0.25910  Biso   1.000  C
  C219     1.0000 0.81400  0.04640  0.23060  Biso   1.000  C
  H125     1.0000 0.81120  0.02980  0.20630  Biso   1.000  H
  C220     1.0000 0.79230  0.10480  0.27150  Biso   1.000  C
  C221     1.0000 0.78740  0.07870  0.23720  Biso   1.000  C
  H126     1.0000 0.76510  0.08340  0.21830  Biso   1.000  H
  C222     1.0000 0.82300  0.09460  0.29900  Biso   1.000  C
  H127     1.0000 0.82530  0.11040  0.32390  Biso   1.000  H
  C223     1.0000 0.76210  0.14170  0.27910  Biso   1.000  C
  C224     1.0000 0.85010  0.06350  0.29280  Biso   1.000  C
  H128     1.0000 0.87260  0.05940  0.31170  Biso   1.000  H
  O65      1.0000 0.14650  0.74620  0.76750  Biso   1.000  O
  O66      1.0000 0.16371  0.69098  0.73141  Biso   1.000  O
  C225     1.0000 0.03760  0.74090  0.65476  Biso   1.000  C
  C226     1.0000 0.04640  0.76940  0.68600  Biso   1.000  C
  H129     1.0000 0.02980  0.79370  0.68880  Biso   1.000  H
  C227     1.0000 0.10480  0.72850  0.70770  Biso   1.000  C
  C228     1.0000 0.07870  0.76280  0.71260  Biso   1.000  C
  H130     1.0000 0.08340  0.78170  0.73490  Biso   1.000  H
  C229     1.0000 0.09460  0.70100  0.67700  Biso   1.000  C
  H131     1.0000 0.11040  0.67610  0.67470  Biso   1.000  H
  C230     1.0000 0.14170  0.72090  0.73790  Biso   1.000  C
  C231     1.0000 0.06350  0.70720  0.64990  Biso   1.000  C
  H132     1.0000 0.05940  0.68830  0.62740  Biso   1.000  H
  O67      1.0000 0.64650  0.24620  0.26750  Biso   1.000  O
  O68      1.0000 0.66371  0.19098  0.23141  Biso   1.000  O
  C232     1.0000 0.53760  0.24090  0.15476  Biso   1.000  C
  C233     1.0000 0.54640  0.26940  0.18600  Biso   1.000  C
  H133     1.0000 0.52980  0.29370  0.18880  Biso   1.000  H
  C234     1.0000 0.60480  0.22850  0.20770  Biso   1.000  C
  C235     1.0000 0.57870  0.26280  0.21260  Biso   1.000  C
  H134     1.0000 0.58340  0.28170  0.23490  Biso   1.000  H
  C236     1.0000 0.59460  0.20100  0.17700  Biso   1.000  C
  H135     1.0000 0.61040  0.17610  0.17470  Biso   1.000  H
  C237     1.0000 0.64170  0.22090  0.23790  Biso   1.000  C
  C238     1.0000 0.56350  0.20720  0.14990  Biso   1.000  C
  H136     1.0000 0.55940  0.18830  0.12740  Biso   1.000  H
  O69      1.0000 0.85350  0.24620  0.73250  Biso   1.000  O
  O70      1.0000 0.83629  0.19098  0.76859  Biso   1.000  O
  C239     1.0000 0.96240  0.24090  0.84524  Biso   1.000  C
  C240     1.0000 0.95360  0.26940  0.81400  Biso   1.000  C
  H137     1.0000 0.97020  0.29370  0.81120  Biso   1.000  H
  C241     1.0000 0.89520  0.22850  0.79230  Biso   1.000  C
  C242     1.0000 0.92130  0.26280  0.78740  Biso   1.000  C
  H138     1.0000 0.91660  0.28170  0.76510  Biso   1.000  H
  C243     1.0000 0.90540  0.20100  0.82300  Biso   1.000  C
  H139     1.0000 0.88960  0.17610  0.82530  Biso   1.000  H
  C244     1.0000 0.85830  0.22090  0.76210  Biso   1.000  C
  C245     1.0000 0.93650  0.20720  0.85010  Biso   1.000  C
  H140     1.0000 0.94060  0.18830  0.87260  Biso   1.000  H
  O71      1.0000 0.35350  0.74620  0.23250  Biso   1.000  O
  O72      1.0000 0.33629  0.69098  0.26859  Biso   1.000  O
  C246     1.0000 0.46240  0.74090  0.34524  Biso   1.000  C
  C247     1.0000 0.45360  0.76940  0.31400  Biso   1.000  C
  H141     1.0000 0.47020  0.79370  0.31120  Biso   1.000  H
  C248     1.0000 0.39520  0.72850  0.29230  Biso   1.000  C
  C249     1.0000 0.42130  0.76280  0.28740  Biso   1.000  C
  H142     1.0000 0.41660  0.78170  0.26510  Biso   1.000  H
  C250     1.0000 0.40540  0.70100  0.32300  Biso   1.000  C
  H143     1.0000 0.38960  0.67610  0.32530  Biso   1.000  H
  C251     1.0000 0.35830  0.72090  0.26210  Biso   1.000  C
  C252     1.0000 0.43650  0.70720  0.35010  Biso   1.000  C
  H144     1.0000 0.44060  0.68830  0.37260  Biso   1.000  H
  O73      1.0000 0.35350  0.25380  0.26750  Biso   1.000  O
  O74      1.0000 0.33629  0.30902  0.23141  Biso   1.000  O
  C253     1.0000 0.46240  0.25910  0.15476  Biso   1.000  C
  C254     1.0000 0.45360  0.23060  0.18600  Biso   1.000  C
  H145     1.0000 0.47020  0.20630  0.18880  Biso   1.000  H
  C255     1.0000 0.39520  0.27150  0.20770  Biso   1.000  C
  C256     1.0000 0.42130  0.23720  0.21260  Biso   1.000  C
  H146     1.0000 0.41660  0.21830  0.23490  Biso   1.000  H
  C257     1.0000 0.40540  0.29900  0.17700  Biso   1.000  C
  H147     1.0000 0.38960  0.32390  0.17470  Biso   1.000  H
  C258     1.0000 0.35830  0.27910  0.23790  Biso   1.000  C
  C259     1.0000 0.43650  0.29280  0.14990  Biso   1.000  C
  H148     1.0000 0.44060  0.31170  0.12740  Biso   1.000  H
  O75      1.0000 0.85350  0.75380  0.76750  Biso   1.000  O
  O76      1.0000 0.83629  0.80902  0.73141  Biso   1.000  O
  C260     1.0000 0.96240  0.75910  0.65476  Biso   1.000  C
  C261     1.0000 0.95360  0.73060  0.68600  Biso   1.000  C
  H149     1.0000 0.97020  0.70630  0.68880  Biso   1.000  H
  C262     1.0000 0.89520  0.77150  0.70770  Biso   1.000  C
  C263     1.0000 0.92130  0.73720  0.71260  Biso   1.000  C
  H150     1.0000 0.91660  0.71830  0.73490  Biso   1.000  H
  C264     1.0000 0.90540  0.79900  0.67700  Biso   1.000  C
  H151     1.0000 0.88960  0.82390  0.67470  Biso   1.000  H
  C265     1.0000 0.85830  0.77910  0.73790  Biso   1.000  C
  C266     1.0000 0.93650  0.79280  0.64990  Biso   1.000  C
  H152     1.0000 0.94060  0.81170  0.62740  Biso   1.000  H
  O77      1.0000 0.64650  0.75380  0.23250  Biso   1.000  O
  O78      1.0000 0.66371  0.80902  0.26859  Biso   1.000  O
  C267     1.0000 0.53760  0.75910  0.34524  Biso   1.000  C
  C268     1.0000 0.54640  0.73060  0.31400  Biso   1.000  C
  H153     1.0000 0.52980  0.70630  0.31120  Biso   1.000  H
  C269     1.0000 0.60480  0.77150  0.29230  Biso   1.000  C
  C270     1.0000 0.57870  0.73720  0.28740  Biso   1.000  C
  H154     1.0000 0.58340  0.71830  0.26510  Biso   1.000  H
  C271     1.0000 0.59460  0.79900  0.32300  Biso   1.000  C
  H155     1.0000 0.61040  0.82390  0.32530  Biso   1.000  H
  C272     1.0000 0.64170  0.77910  0.26210  Biso   1.000  C
  C273     1.0000 0.56350  0.79280  0.35010  Biso   1.000  C
  H156     1.0000 0.55940  0.81170  0.37260  Biso   1.000  H
  O79      1.0000 0.14650  0.25380  0.73250  Biso   1.000  O
  O80      1.0000 0.16371  0.30902  0.76859  Biso   1.000  O
  C274     1.0000 0.03760  0.25910  0.84524  Biso   1.000  C
  C275     1.0000 0.04640  0.23060  0.81400  Biso   1.000  C
  H157     1.0000 0.02980  0.20630  0.81120  Biso   1.000  H
  C276     1.0000 0.10480  0.27150  0.79230  Biso   1.000  C
  C277     1.0000 0.07870  0.23720  0.78740  Biso   1.000  C
  H158     1.0000 0.08340  0.21830  0.76510  Biso   1.000  H
  C278     1.0000 0.09460  0.29900  0.82300  Biso   1.000  C
  H159     1.0000 0.11040  0.32390  0.82530  Biso   1.000  H
  C279     1.0000 0.14170  0.27910  0.76210  Biso   1.000  C
  C280     1.0000 0.06350  0.29280  0.85010  Biso   1.000  C
  H160     1.0000 0.05940  0.31170  0.87260  Biso   1.000  H
  O81      1.0000 0.74620  0.76750  0.14650  Biso   1.000  O
  O82      1.0000 0.69098  0.73141  0.16371  Biso   1.000  O
  C281     1.0000 0.74090  0.65476  0.03760  Biso   1.000  C
  C282     1.0000 0.76940  0.68600  0.04640  Biso   1.000  C
  H161     1.0000 0.79370  0.68880  0.02980  Biso   1.000  H
  C283     1.0000 0.72850  0.70770  0.10480  Biso   1.000  C
  C284     1.0000 0.76280  0.71260  0.07870  Biso   1.000  C
  H162     1.0000 0.78170  0.73490  0.08340  Biso   1.000  H
  C285     1.0000 0.70100  0.67700  0.09460  Biso   1.000  C
  H163     1.0000 0.67610  0.67470  0.11040  Biso   1.000  H
  C286     1.0000 0.72090  0.73790  0.14170  Biso   1.000  C
  C287     1.0000 0.70720  0.64990  0.06350  Biso   1.000  C
  H164     1.0000 0.68830  0.62740  0.05940  Biso   1.000  H
  O83      1.0000 0.24620  0.26750  0.64650  Biso   1.000  O
  O84      1.0000 0.19098  0.23141  0.66371  Biso   1.000  O
  C288     1.0000 0.24090  0.15476  0.53760  Biso   1.000  C
  C289     1.0000 0.26940  0.18600  0.54640  Biso   1.000  C
  H165     1.0000 0.29370  0.18880  0.52980  Biso   1.000  H
  C290     1.0000 0.22850  0.20770  0.60480  Biso   1.000  C
  C291     1.0000 0.26280  0.21260  0.57870  Biso   1.000  C
  H166     1.0000 0.28170  0.23490  0.58340  Biso   1.000  H
  C292     1.0000 0.20100  0.17700  0.59460  Biso   1.000  C
  H167     1.0000 0.17610  0.17470  0.61040  Biso   1.000  H
  C293     1.0000 0.22090  0.23790  0.64170  Biso   1.000  C
  C294     1.0000 0.20720  0.14990  0.56350  Biso   1.000  C
  H168     1.0000 0.18830  0.12740  0.55940  Biso   1.000  H
  O85      1.0000 0.24620  0.73250  0.85350  Biso   1.000  O
  O86      1.0000 0.19098  0.76859  0.83629  Biso   1.000  O
  C295     1.0000 0.24090  0.84524  0.96240  Biso   1.000  C
  C296     1.0000 0.26940  0.81400  0.95360  Biso   1.000  C
  H169     1.0000 0.29370  0.81120  0.97020  Biso   1.000  H
  C297     1.0000 0.22850  0.79230  0.89520  Biso   1.000  C
  C298     1.0000 0.26280  0.78740  0.92130  Biso   1.000  C
  H170     1.0000 0.28170  0.76510  0.91660  Biso   1.000  H
  C299     1.0000 0.20100  0.82300  0.90540  Biso   1.000  C
  H171     1.0000 0.17610  0.82530  0.88960  Biso   1.000  H
  C300     1.0000 0.22090  0.76210  0.85830  Biso   1.000  C
  C301     1.0000 0.20720  0.85010  0.93650  Biso   1.000  C
  H172     1.0000 0.18830  0.87260  0.94060  Biso   1.000  H
  O87      1.0000 0.74620  0.23250  0.35350  Biso   1.000  O
  O88      1.0000 0.69098  0.26859  0.33629  Biso   1.000  O
  C302     1.0000 0.74090  0.34524  0.46240  Biso   1.000  C
  C303     1.0000 0.76940  0.31400  0.45360  Biso   1.000  C
  H173     1.0000 0.79370  0.31120  0.47020  Biso   1.000  H
  C304     1.0000 0.72850  0.29230  0.39520  Biso   1.000  C
  C305     1.0000 0.76280  0.28740  0.42130  Biso   1.000  C
  H174     1.0000 0.78170  0.26510  0.41660  Biso   1.000  H
  C306     1.0000 0.70100  0.32300  0.40540  Biso   1.000  C
  H175     1.0000 0.67610  0.32530  0.38960  Biso   1.000  H
  C307     1.0000 0.72090  0.26210  0.35830  Biso   1.000  C
  C308     1.0000 0.70720  0.35010  0.43650  Biso   1.000  C
  H176     1.0000 0.68830  0.37260  0.44060  Biso   1.000  H
  O89      1.0000 0.25380  0.26750  0.35350  Biso   1.000  O
  O90      1.0000 0.30902  0.23141  0.33629  Biso   1.000  O
  C309     1.0000 0.25910  0.15476  0.46240  Biso   1.000  C
  C310     1.0000 0.23060  0.18600  0.45360  Biso   1.000  C
  H177     1.0000 0.20630  0.18880  0.47020  Biso   1.000  H
  C311     1.0000 0.27150  0.20770  0.39520  Biso   1.000  C
  C312     1.0000 0.23720  0.21260  0.42130  Biso   1.000  C
  H178     1.0000 0.21830  0.23490  0.41660  Biso   1.000  H
  C313     1.0000 0.29900  0.17700  0.40540  Biso   1.000  C
  H179     1.0000 0.32390  0.17470  0.38960  Biso   1.000  H
  C314     1.0000 0.27910  0.23790  0.35830  Biso   1.000  C
  C315     1.0000 0.29280  0.14990  0.43650  Biso   1.000  C
  H180     1.0000 0.31170  0.12740  0.44060  Biso   1.000  H
  O91      1.0000 0.75380  0.76750  0.85350  Biso   1.000  O
  O92      1.0000 0.80902  0.73141  0.83629  Biso   1.000  O
  C316     1.0000 0.75910  0.65476  0.96240  Biso   1.000  C
  C317     1.0000 0.73060  0.68600  0.95360  Biso   1.000  C
  H181     1.0000 0.70630  0.68880  0.97020  Biso   1.000  H
  C318     1.0000 0.77150  0.70770  0.89520  Biso   1.000  C
  C319     1.0000 0.73720  0.71260  0.92130  Biso   1.000  C
  H182     1.0000 0.71830  0.73490  0.91660  Biso   1.000  H
  C320     1.0000 0.79900  0.67700  0.90540  Biso   1.000  C
  H183     1.0000 0.82390  0.67470  0.88960  Biso   1.000  H
  C321     1.0000 0.77910  0.73790  0.85830  Biso   1.000  C
  C322     1.0000 0.79280  0.64990  0.93650  Biso   1.000  C
  H184     1.0000 0.81170  0.62740  0.94060  Biso   1.000  H
  O93      1.0000 0.75380  0.23250  0.64650  Biso   1.000  O
  O94      1.0000 0.80902  0.26859  0.66371  Biso   1.000  O
  C323     1.0000 0.75910  0.34524  0.53760  Biso   1.000  C
  C324     1.0000 0.73060  0.31400  0.54640  Biso   1.000  C
  H185     1.0000 0.70630  0.31120  0.52980  Biso   1.000  H
  C325     1.0000 0.77150  0.29230  0.60480  Biso   1.000  C
  C326     1.0000 0.73720  0.28740  0.57870  Biso   1.000  C
  H186     1.0000 0.71830  0.26510  0.58340  Biso   1.000  H
  C327     1.0000 0.79900  0.32300  0.59460  Biso   1.000  C
  H187     1.0000 0.82390  0.32530  0.61040  Biso   1.000  H
  C328     1.0000 0.77910  0.26210  0.64170  Biso   1.000  C
  C329     1.0000 0.79280  0.35010  0.56350  Biso   1.000  C
  H188     1.0000 0.81170  0.37260  0.55940  Biso   1.000  H
  O95      1.0000 0.25380  0.73250  0.14650  Biso   1.000  O
  O96      1.0000 0.30902  0.76859  0.16371  Biso   1.000  O
  C330     1.0000 0.25910  0.84524  0.03760  Biso   1.000  C
  C331     1.0000 0.23060  0.81400  0.04640  Biso   1.000  C
  H189     1.0000 0.20630  0.81120  0.02980  Biso   1.000  H
  C332     1.0000 0.27150  0.79230  0.10480  Biso   1.000  C
  C333     1.0000 0.23720  0.78740  0.07870  Biso   1.000  C
  H190     1.0000 0.21830  0.76510  0.08340  Biso   1.000  H
  C334     1.0000 0.29900  0.82300  0.09460  Biso   1.000  C
  H191     1.0000 0.32390  0.82530  0.11040  Biso   1.000  H
  C335     1.0000 0.27910  0.76210  0.14170  Biso   1.000  C
  C336     1.0000 0.29280  0.85010  0.06350  Biso   1.000  C
  H192     1.0000 0.31170  0.87260  0.05940  Biso   1.000  H
  U1       1.0000 0.95755  0.54245  0.45755  Biso   1.000  U
  U2       1.0000 0.45755  0.04245  0.95755  Biso   1.000  U
  U3       1.0000 0.54245  0.45755  0.95755  Biso   1.000  U
  U4       1.0000 0.04245  0.95755  0.45755  Biso   1.000  U
  U5       1.0000 0.04245  0.04245  0.04245  Biso   1.000  U
  U6       1.0000 0.54245  0.54245  0.54245  Biso   1.000  U
  U7       1.0000 0.45755  0.95755  0.54245  Biso   1.000  U
  U8       1.0000 0.95755  0.45755  0.04245  Biso   1.000  U
  U9       1.0000 0.79245  0.20755  0.70755  Biso   1.000  U
  U10      1.0000 0.29245  0.70755  0.20755  Biso   1.000  U
  U11      1.0000 0.70755  0.79245  0.20755  Biso   1.000  U
  U12      1.0000 0.20755  0.29245  0.70755  Biso   1.000  U
  U13      1.0000 0.29245  0.29245  0.29245  Biso   1.000  U
  U14      1.0000 0.79245  0.79245  0.79245  Biso   1.000  U
  U15      1.0000 0.20755  0.70755  0.79245  Biso   1.000  U
  U16      1.0000 0.70755  0.20755  0.29245  Biso   1.000  U
  C337     1.0000 0.75000  0.37500  0.50000  Biso   1.000  C
  C338     1.0000 0.75000  0.62500  0.00000  Biso   1.000  C
  C339     1.0000 0.25000  0.87500  0.00000  Biso   1.000  C
  C340     1.0000 0.25000  0.12500  0.50000  Biso   1.000  C
  C341     1.0000 0.50000  0.75000  0.37500  Biso   1.000  C
  C342     1.0000 0.00000  0.75000  0.62500  Biso   1.000  C
  C343     1.0000 0.00000  0.25000  0.87500  Biso   1.000  C
  C344     1.0000 0.50000  0.25000  0.12500  Biso   1.000  C
  C345     1.0000 0.37500  0.50000  0.75000  Biso   1.000  C
  C346     1.0000 0.62500  0.00000  0.75000  Biso   1.000  C
  C347     1.0000 0.87500  0.00000  0.25000  Biso   1.000  C
  C348     1.0000 0.12500  0.50000  0.25000  Biso   1.000  C
