data_image0
_cell_length_a       29.1508
_cell_length_b       29.1508
_cell_length_c       36.1349
_cell_angle_alpha    90
_cell_angle_beta     90
_cell_angle_gamma    120

_symmetry_space_group_name_H-M    "P 1"
_symmetry_int_tables_number       1

loop_
  _symmetry_equiv_pos_as_xyz
  'x, y, z'

loop_
  _atom_site_label
  _atom_site_occupancy
  _atom_site_fract_x
  _atom_site_fract_y
  _atom_site_fract_z
  _atom_site_thermal_displace_type
  _atom_site_B_iso_or_equiv
  _atom_site_type_symbol
  C1       1.0000 0.41640  0.26730  0.64280  Biso   1.000  C
  H1       1.0000 0.42680  0.26310  0.61870  Biso   1.000  H
  C2       1.0000 0.37040  0.22620  0.65870  Biso   1.000  C
  O1       1.0000 0.31750  0.12040  0.46480  Biso   1.000  O
  C3       1.0000 0.35560  0.23300  0.69240  Biso   1.000  C
  H2       1.0000 0.32720  0.20400  0.70490  Biso   1.000  H
  C4       1.0000 0.42800  0.32300  0.69370  Biso   1.000  C
  C5       1.0000 0.38200  0.28290  0.70910  Biso   1.000  C
  H3       1.0000 0.36830  0.28930  0.73120  Biso   1.000  H
  O2       1.0000 0.08670  0.08140  0.64680  Biso   1.000  O
  C6       1.0000 0.44560  0.31240  0.66120  Biso   1.000  C
  H4       1.0000 0.47940  0.33770  0.65180  Biso   1.000  H
  C7       1.0000 0.46010  0.37380  0.71230  Biso   1.000  C
  O3       1.0000 0.50410  0.40650  0.69610  Biso   1.000  O
  O4       1.0000 0.44630  0.38450  0.74260  Biso   1.000  O
  C8       1.0000 0.33690  0.21100  0.54150  Biso   1.000  C
  H5       1.0000 0.33440  0.23830  0.52890  Biso   1.000  H
  C9       1.0000 0.34220  0.21220  0.57830  Biso   1.000  C
  H6       1.0000 0.34460  0.24140  0.59160  Biso   1.000  H
  C10      1.0000 0.19850  0.05810  0.64540  Biso   1.000  C
  H7       1.0000 0.17910  0.02050  0.64570  Biso   1.000  H
  C11      1.0000 0.25350  0.08400  0.64560  Biso   1.000  C
  H8       1.0000 0.27230  0.06510  0.64450  Biso   1.000  H
  C12      1.0000 0.08307  0.60063  0.97613  Biso   1.000  C
  H9       1.0000 0.09347  0.59643  0.95203  Biso   1.000  H
  C13      1.0000 0.03707  0.55953  0.99203  Biso   1.000  C
  O5       1.0000 0.98417  0.45373  0.79813  Biso   1.000  O
  C14      1.0000 0.02227  0.56633  0.02573  Biso   1.000  C
  H10      1.0000 0.99387  0.53733  0.03823  Biso   1.000  H
  C15      1.0000 0.09467  0.65633  0.02703  Biso   1.000  C
  C16      1.0000 0.04867  0.61623  0.04243  Biso   1.000  C
  H11      1.0000 0.03497  0.62263  0.06453  Biso   1.000  H
  O6       1.0000 0.75337  0.41473  0.98013  Biso   1.000  O
  C17      1.0000 0.11227  0.64573  0.99453  Biso   1.000  C
  H12      1.0000 0.14607  0.67103  0.98513  Biso   1.000  H
  C18      1.0000 0.12677  0.70713  0.04563  Biso   1.000  C
  O7       1.0000 0.17077  0.73983  0.02943  Biso   1.000  O
  O8       1.0000 0.11297  0.71783  0.07593  Biso   1.000  O
  C19      1.0000 0.00357  0.54433  0.87483  Biso   1.000  C
  H13      1.0000 0.00107  0.57163  0.86223  Biso   1.000  H
  C20      1.0000 0.00887  0.54553  0.91163  Biso   1.000  C
  H14      1.0000 0.01127  0.57473  0.92493  Biso   1.000  H
  C21      1.0000 0.86517  0.39143  0.97873  Biso   1.000  C
  H15      1.0000 0.84577  0.35383  0.97903  Biso   1.000  H
  C22      1.0000 0.92017  0.41733  0.97893  Biso   1.000  C
  H16      1.0000 0.93897  0.39843  0.97783  Biso   1.000  H
  C23      1.0000 0.74973  0.93397  0.30947  Biso   1.000  C
  H17      1.0000 0.76013  0.92977  0.28537  Biso   1.000  H
  C24      1.0000 0.70373  0.89287  0.32537  Biso   1.000  C
  O9       1.0000 0.65083  0.78707  0.13147  Biso   1.000  O
  C25      1.0000 0.68893  0.89967  0.35907  Biso   1.000  C
  H18      1.0000 0.66053  0.87067  0.37157  Biso   1.000  H
  C26      1.0000 0.76133  0.98967  0.36037  Biso   1.000  C
  C27      1.0000 0.71533  0.94957  0.37577  Biso   1.000  C
  H19      1.0000 0.70163  0.95597  0.39787  Biso   1.000  H
  O10      1.0000 0.42003  0.74807  0.31347  Biso   1.000  O
  C28      1.0000 0.77893  0.97907  0.32787  Biso   1.000  C
  H20      1.0000 0.81273  0.00437  0.31847  Biso   1.000  H
  C29      1.0000 0.79343  0.04047  0.37897  Biso   1.000  C
  O11      1.0000 0.83743  0.07317  0.36277  Biso   1.000  O
  O12      1.0000 0.77963  0.05117  0.40927  Biso   1.000  O
  C30      1.0000 0.67023  0.87767  0.20817  Biso   1.000  C
  H21      1.0000 0.66773  0.90497  0.19557  Biso   1.000  H
  C31      1.0000 0.67553  0.87887  0.24497  Biso   1.000  C
  H22      1.0000 0.67793  0.90807  0.25827  Biso   1.000  H
  C32      1.0000 0.53183  0.72477  0.31207  Biso   1.000  C
  H23      1.0000 0.51243  0.68717  0.31237  Biso   1.000  H
  C33      1.0000 0.58683  0.75067  0.31227  Biso   1.000  C
  H24      1.0000 0.60563  0.73177  0.31117  Biso   1.000  H
  C34      1.0000 0.73270  0.14910  0.64280  Biso   1.000  C
  H25      1.0000 0.73690  0.16370  0.61870  Biso   1.000  H
  C35      1.0000 0.77380  0.14420  0.65870  Biso   1.000  C
  O13      1.0000 0.87960  0.19710  0.46480  Biso   1.000  O
  C36      1.0000 0.76700  0.12260  0.69240  Biso   1.000  C
  H26      1.0000 0.79600  0.12320  0.70490  Biso   1.000  H
  C37      1.0000 0.67700  0.10500  0.69370  Biso   1.000  C
  C38      1.0000 0.71710  0.09910  0.70910  Biso   1.000  C
  H27      1.0000 0.71070  0.07900  0.73120  Biso   1.000  H
  O14      1.0000 0.91860  0.00530  0.64680  Biso   1.000  O
  C39      1.0000 0.68760  0.13320  0.66120  Biso   1.000  C
  H28      1.0000 0.66230  0.14170  0.65180  Biso   1.000  H
  C40      1.0000 0.62620  0.08630  0.71230  Biso   1.000  C
  O15      1.0000 0.59350  0.09760  0.69610  Biso   1.000  O
  O16      1.0000 0.61550  0.06180  0.74260  Biso   1.000  O
  C41      1.0000 0.78900  0.12590  0.54150  Biso   1.000  C
  H29      1.0000 0.76170  0.09610  0.52890  Biso   1.000  H
  C42      1.0000 0.78780  0.13000  0.57830  Biso   1.000  C
  H30      1.0000 0.75860  0.10320  0.59160  Biso   1.000  H
  C43      1.0000 0.94190  0.14040  0.64540  Biso   1.000  C
  H31      1.0000 0.97950  0.15860  0.64570  Biso   1.000  H
  C44      1.0000 0.91600  0.16950  0.64560  Biso   1.000  C
  H32      1.0000 0.93490  0.20720  0.64450  Biso   1.000  H
  C45      1.0000 0.39937  0.48243  0.97613  Biso   1.000  C
  H33      1.0000 0.40357  0.49703  0.95203  Biso   1.000  H
  C46      1.0000 0.44047  0.47753  0.99203  Biso   1.000  C
  O17      1.0000 0.54627  0.53043  0.79813  Biso   1.000  O
  C47      1.0000 0.43367  0.45593  0.02573  Biso   1.000  C
  H34      1.0000 0.46267  0.45653  0.03823  Biso   1.000  H
  C48      1.0000 0.34367  0.43833  0.02703  Biso   1.000  C
  C49      1.0000 0.38377  0.43243  0.04243  Biso   1.000  C
  H35      1.0000 0.37737  0.41233  0.06453  Biso   1.000  H
  O18      1.0000 0.58527  0.33863  0.98013  Biso   1.000  O
  C50      1.0000 0.35427  0.46653  0.99453  Biso   1.000  C
  H36      1.0000 0.32897  0.47503  0.98513  Biso   1.000  H
  C51      1.0000 0.29287  0.41963  0.04563  Biso   1.000  C
  O19      1.0000 0.26017  0.43093  0.02943  Biso   1.000  O
  O20      1.0000 0.28217  0.39513  0.07593  Biso   1.000  O
  C52      1.0000 0.45567  0.45923  0.87483  Biso   1.000  C
  H37      1.0000 0.42837  0.42943  0.86223  Biso   1.000  H
  C53      1.0000 0.45447  0.46333  0.91163  Biso   1.000  C
  H38      1.0000 0.42527  0.43653  0.92493  Biso   1.000  H
  C54      1.0000 0.60857  0.47373  0.97873  Biso   1.000  C
  H39      1.0000 0.64617  0.49193  0.97903  Biso   1.000  H
  C55      1.0000 0.58267  0.50283  0.97893  Biso   1.000  C
  H40      1.0000 0.60157  0.54053  0.97783  Biso   1.000  H
  C56      1.0000 0.06603  0.81577  0.30947  Biso   1.000  C
  H41      1.0000 0.07023  0.83037  0.28537  Biso   1.000  H
  C57      1.0000 0.10713  0.81087  0.32537  Biso   1.000  C
  O21      1.0000 0.21293  0.86377  0.13147  Biso   1.000  O
  C58      1.0000 0.10033  0.78927  0.35907  Biso   1.000  C
  H42      1.0000 0.12933  0.78987  0.37157  Biso   1.000  H
  C59      1.0000 0.01033  0.77167  0.36037  Biso   1.000  C
  C60      1.0000 0.05043  0.76577  0.37577  Biso   1.000  C
  H43      1.0000 0.04403  0.74567  0.39787  Biso   1.000  H
  O22      1.0000 0.25193  0.67197  0.31347  Biso   1.000  O
  C61      1.0000 0.02093  0.79987  0.32787  Biso   1.000  C
  H44      1.0000 0.99563  0.80837  0.31847  Biso   1.000  H
  C62      1.0000 0.95953  0.75297  0.37897  Biso   1.000  C
  O23      1.0000 0.92683  0.76427  0.36277  Biso   1.000  O
  O24      1.0000 0.94883  0.72847  0.40927  Biso   1.000  O
  C63      1.0000 0.12233  0.79257  0.20817  Biso   1.000  C
  H45      1.0000 0.09503  0.76277  0.19557  Biso   1.000  H
  C64      1.0000 0.12113  0.79667  0.24497  Biso   1.000  C
  H46      1.0000 0.09193  0.76987  0.25827  Biso   1.000  H
  C65      1.0000 0.27523  0.80707  0.31207  Biso   1.000  C
  H47      1.0000 0.31283  0.82527  0.31237  Biso   1.000  H
  C66      1.0000 0.24933  0.83617  0.31227  Biso   1.000  C
  H48      1.0000 0.26823  0.87387  0.31117  Biso   1.000  H
  C67      1.0000 0.85090  0.58360  0.64280  Biso   1.000  C
  H49      1.0000 0.83630  0.57320  0.61870  Biso   1.000  H
  C68      1.0000 0.85580  0.62960  0.65870  Biso   1.000  C
  O25      1.0000 0.80290  0.68250  0.46480  Biso   1.000  O
  C69      1.0000 0.87740  0.64440  0.69240  Biso   1.000  C
  H50      1.0000 0.87680  0.67280  0.70490  Biso   1.000  H
  C70      1.0000 0.89500  0.57200  0.69370  Biso   1.000  C
  C71      1.0000 0.90090  0.61800  0.70910  Biso   1.000  C
  H51      1.0000 0.92100  0.63170  0.73120  Biso   1.000  H
  O26      1.0000 0.99470  0.91330  0.64680  Biso   1.000  O
  C72      1.0000 0.86680  0.55440  0.66120  Biso   1.000  C
  H52      1.0000 0.85830  0.52060  0.65180  Biso   1.000  H
  C73      1.0000 0.91370  0.53990  0.71230  Biso   1.000  C
  O27      1.0000 0.90240  0.49590  0.69610  Biso   1.000  O
  O28      1.0000 0.93820  0.55370  0.74260  Biso   1.000  O
  C74      1.0000 0.87410  0.66310  0.54150  Biso   1.000  C
  H53      1.0000 0.90390  0.66560  0.52890  Biso   1.000  H
  C75      1.0000 0.87000  0.65780  0.57830  Biso   1.000  C
  H54      1.0000 0.89680  0.65540  0.59160  Biso   1.000  H
  C76      1.0000 0.85960  0.80150  0.64540  Biso   1.000  C
  H55      1.0000 0.84140  0.82090  0.64570  Biso   1.000  H
  C77      1.0000 0.83050  0.74650  0.64560  Biso   1.000  C
  H56      1.0000 0.79280  0.72770  0.64450  Biso   1.000  H
  C78      1.0000 0.51757  0.91693  0.97613  Biso   1.000  C
  H57      1.0000 0.50297  0.90653  0.95203  Biso   1.000  H
  C79      1.0000 0.52247  0.96293  0.99203  Biso   1.000  C
  O29      1.0000 0.46957  0.01583  0.79813  Biso   1.000  O
  C80      1.0000 0.54407  0.97773  0.02573  Biso   1.000  C
  H58      1.0000 0.54347  0.00613  0.03823  Biso   1.000  H
  C81      1.0000 0.56167  0.90533  0.02703  Biso   1.000  C
  C82      1.0000 0.56757  0.95133  0.04243  Biso   1.000  C
  H59      1.0000 0.58767  0.96503  0.06453  Biso   1.000  H
  O30      1.0000 0.66137  0.24663  0.98013  Biso   1.000  O
  C83      1.0000 0.53347  0.88773  0.99453  Biso   1.000  C
  H60      1.0000 0.52497  0.85393  0.98513  Biso   1.000  H
  C84      1.0000 0.58037  0.87323  0.04563  Biso   1.000  C
  O31      1.0000 0.56907  0.82923  0.02943  Biso   1.000  O
  O32      1.0000 0.60487  0.88703  0.07593  Biso   1.000  O
  C85      1.0000 0.54077  0.99643  0.87483  Biso   1.000  C
  H61      1.0000 0.57057  0.99893  0.86223  Biso   1.000  H
  C86      1.0000 0.53667  0.99113  0.91163  Biso   1.000  C
  H62      1.0000 0.56347  0.98873  0.92493  Biso   1.000  H
  C87      1.0000 0.52627  0.13483  0.97873  Biso   1.000  C
  H63      1.0000 0.50807  0.15423  0.97903  Biso   1.000  H
  C88      1.0000 0.49717  0.07983  0.97893  Biso   1.000  C
  H64      1.0000 0.45947  0.06103  0.97783  Biso   1.000  H
  C89      1.0000 0.18423  0.25027  0.30947  Biso   1.000  C
  H65      1.0000 0.16963  0.23987  0.28537  Biso   1.000  H
  C90      1.0000 0.18913  0.29627  0.32537  Biso   1.000  C
  O33      1.0000 0.13623  0.34917  0.13147  Biso   1.000  O
  C91      1.0000 0.21073  0.31107  0.35907  Biso   1.000  C
  H66      1.0000 0.21013  0.33947  0.37157  Biso   1.000  H
  C92      1.0000 0.22833  0.23867  0.36037  Biso   1.000  C
  C93      1.0000 0.23423  0.28467  0.37577  Biso   1.000  C
  H67      1.0000 0.25433  0.29837  0.39787  Biso   1.000  H
  O34      1.0000 0.32803  0.57997  0.31347  Biso   1.000  O
  C94      1.0000 0.20013  0.22107  0.32787  Biso   1.000  C
  H68      1.0000 0.19163  0.18727  0.31847  Biso   1.000  H
  C95      1.0000 0.24703  0.20657  0.37897  Biso   1.000  C
  O35      1.0000 0.23573  0.16257  0.36277  Biso   1.000  O
  O36      1.0000 0.27153  0.22037  0.40927  Biso   1.000  O
  C96      1.0000 0.20743  0.32977  0.20817  Biso   1.000  C
  H69      1.0000 0.23723  0.33227  0.19557  Biso   1.000  H
  C97      1.0000 0.20333  0.32447  0.24497  Biso   1.000  C
  H70      1.0000 0.23013  0.32207  0.25827  Biso   1.000  H
  C98      1.0000 0.19293  0.46817  0.31207  Biso   1.000  C
  H71      1.0000 0.17473  0.48757  0.31237  Biso   1.000  H
  C99      1.0000 0.16383  0.41317  0.31227  Biso   1.000  C
  H72      1.0000 0.12613  0.39437  0.31117  Biso   1.000  H
  C100     1.0000 0.73270  0.58360  0.64280  Biso   1.000  C
  H73      1.0000 0.73690  0.57320  0.61870  Biso   1.000  H
  C101     1.0000 0.77380  0.62960  0.65870  Biso   1.000  C
  O37      1.0000 0.87960  0.68250  0.46480  Biso   1.000  O
  C102     1.0000 0.76700  0.64440  0.69240  Biso   1.000  C
  H74      1.0000 0.79600  0.67280  0.70490  Biso   1.000  H
  C103     1.0000 0.67700  0.57200  0.69370  Biso   1.000  C
  C104     1.0000 0.71710  0.61800  0.70910  Biso   1.000  C
  H75      1.0000 0.71070  0.63170  0.73120  Biso   1.000  H
  O38      1.0000 0.91860  0.91330  0.64680  Biso   1.000  O
  C105     1.0000 0.68760  0.55440  0.66120  Biso   1.000  C
  H76      1.0000 0.66230  0.52060  0.65180  Biso   1.000  H
  C106     1.0000 0.62620  0.53990  0.71230  Biso   1.000  C
  O39      1.0000 0.59350  0.49590  0.69610  Biso   1.000  O
  O40      1.0000 0.61550  0.55370  0.74260  Biso   1.000  O
  C107     1.0000 0.78900  0.66310  0.54150  Biso   1.000  C
  H77      1.0000 0.76170  0.66560  0.52890  Biso   1.000  H
  C108     1.0000 0.78780  0.65780  0.57830  Biso   1.000  C
  H78      1.0000 0.75860  0.65540  0.59160  Biso   1.000  H
  C109     1.0000 0.94190  0.80150  0.64540  Biso   1.000  C
  H79      1.0000 0.97950  0.82090  0.64570  Biso   1.000  H
  C110     1.0000 0.91600  0.74650  0.64560  Biso   1.000  C
  H80      1.0000 0.93490  0.72770  0.64450  Biso   1.000  H
  C111     1.0000 0.39937  0.91693  0.97613  Biso   1.000  C
  H81      1.0000 0.40357  0.90653  0.95203  Biso   1.000  H
  C112     1.0000 0.44047  0.96293  0.99203  Biso   1.000  C
  O41      1.0000 0.54627  0.01583  0.79813  Biso   1.000  O
  C113     1.0000 0.43367  0.97773  0.02573  Biso   1.000  C
  H82      1.0000 0.46267  0.00613  0.03823  Biso   1.000  H
  C114     1.0000 0.34367  0.90533  0.02703  Biso   1.000  C
  C115     1.0000 0.38377  0.95133  0.04243  Biso   1.000  C
  H83      1.0000 0.37737  0.96503  0.06453  Biso   1.000  H
  O42      1.0000 0.58527  0.24663  0.98013  Biso   1.000  O
  C116     1.0000 0.35427  0.88773  0.99453  Biso   1.000  C
  H84      1.0000 0.32897  0.85393  0.98513  Biso   1.000  H
  C117     1.0000 0.29287  0.87323  0.04563  Biso   1.000  C
  O43      1.0000 0.26017  0.82923  0.02943  Biso   1.000  O
  O44      1.0000 0.28217  0.88703  0.07593  Biso   1.000  O
  C118     1.0000 0.45567  0.99643  0.87483  Biso   1.000  C
  H85      1.0000 0.42837  0.99893  0.86223  Biso   1.000  H
  C119     1.0000 0.45447  0.99113  0.91163  Biso   1.000  C
  H86      1.0000 0.42527  0.98873  0.92493  Biso   1.000  H
  C120     1.0000 0.60857  0.13483  0.97873  Biso   1.000  C
  H87      1.0000 0.64617  0.15423  0.97903  Biso   1.000  H
  C121     1.0000 0.58267  0.07983  0.97893  Biso   1.000  C
  H88      1.0000 0.60157  0.06103  0.97783  Biso   1.000  H
  C122     1.0000 0.06603  0.25027  0.30947  Biso   1.000  C
  H89      1.0000 0.07023  0.23987  0.28537  Biso   1.000  H
  C123     1.0000 0.10713  0.29627  0.32537  Biso   1.000  C
  O45      1.0000 0.21293  0.34917  0.13147  Biso   1.000  O
  C124     1.0000 0.10033  0.31107  0.35907  Biso   1.000  C
  H90      1.0000 0.12933  0.33947  0.37157  Biso   1.000  H
  C125     1.0000 0.01033  0.23867  0.36037  Biso   1.000  C
  C126     1.0000 0.05043  0.28467  0.37577  Biso   1.000  C
  H91      1.0000 0.04403  0.29837  0.39787  Biso   1.000  H
  O46      1.0000 0.25193  0.57997  0.31347  Biso   1.000  O
  C127     1.0000 0.02093  0.22107  0.32787  Biso   1.000  C
  H92      1.0000 0.99563  0.18727  0.31847  Biso   1.000  H
  C128     1.0000 0.95953  0.20657  0.37897  Biso   1.000  C
  O47      1.0000 0.92683  0.16257  0.36277  Biso   1.000  O
  O48      1.0000 0.94883  0.22037  0.40927  Biso   1.000  O
  C129     1.0000 0.12233  0.32977  0.20817  Biso   1.000  C
  H93      1.0000 0.09503  0.33227  0.19557  Biso   1.000  H
  C130     1.0000 0.12113  0.32447  0.24497  Biso   1.000  C
  H94      1.0000 0.09193  0.32207  0.25827  Biso   1.000  H
  C131     1.0000 0.27523  0.46817  0.31207  Biso   1.000  C
  H95      1.0000 0.31283  0.48757  0.31237  Biso   1.000  H
  C132     1.0000 0.24933  0.41317  0.31227  Biso   1.000  C
  H96      1.0000 0.26823  0.39437  0.31117  Biso   1.000  H
  C133     1.0000 0.85090  0.26730  0.64280  Biso   1.000  C
  H97      1.0000 0.83630  0.26310  0.61870  Biso   1.000  H
  C134     1.0000 0.85580  0.22620  0.65870  Biso   1.000  C
  O49      1.0000 0.80290  0.12040  0.46480  Biso   1.000  O
  C135     1.0000 0.87740  0.23300  0.69240  Biso   1.000  C
  H98      1.0000 0.87680  0.20400  0.70490  Biso   1.000  H
  C136     1.0000 0.89500  0.32300  0.69370  Biso   1.000  C
  C137     1.0000 0.90090  0.28290  0.70910  Biso   1.000  C
  H99      1.0000 0.92100  0.28930  0.73120  Biso   1.000  H
  O50      1.0000 0.99470  0.08140  0.64680  Biso   1.000  O
  C138     1.0000 0.86680  0.31240  0.66120  Biso   1.000  C
  H100     1.0000 0.85830  0.33770  0.65180  Biso   1.000  H
  C139     1.0000 0.91370  0.37380  0.71230  Biso   1.000  C
  O51      1.0000 0.90240  0.40650  0.69610  Biso   1.000  O
  O52      1.0000 0.93820  0.38450  0.74260  Biso   1.000  O
  C140     1.0000 0.87410  0.21100  0.54150  Biso   1.000  C
  H101     1.0000 0.90390  0.23830  0.52890  Biso   1.000  H
  C141     1.0000 0.87000  0.21220  0.57830  Biso   1.000  C
  H102     1.0000 0.89680  0.24140  0.59160  Biso   1.000  H
  C142     1.0000 0.85960  0.05810  0.64540  Biso   1.000  C
  H103     1.0000 0.84140  0.02050  0.64570  Biso   1.000  H
  C143     1.0000 0.83050  0.08400  0.64560  Biso   1.000  C
  H104     1.0000 0.79280  0.06510  0.64450  Biso   1.000  H
  C144     1.0000 0.51757  0.60063  0.97613  Biso   1.000  C
  H105     1.0000 0.50297  0.59643  0.95203  Biso   1.000  H
  C145     1.0000 0.52247  0.55953  0.99203  Biso   1.000  C
  O53      1.0000 0.46957  0.45373  0.79813  Biso   1.000  O
  C146     1.0000 0.54407  0.56633  0.02573  Biso   1.000  C
  H106     1.0000 0.54347  0.53733  0.03823  Biso   1.000  H
  C147     1.0000 0.56167  0.65633  0.02703  Biso   1.000  C
  C148     1.0000 0.56757  0.61623  0.04243  Biso   1.000  C
  H107     1.0000 0.58767  0.62263  0.06453  Biso   1.000  H
  O54      1.0000 0.66137  0.41473  0.98013  Biso   1.000  O
  C149     1.0000 0.53347  0.64573  0.99453  Biso   1.000  C
  H108     1.0000 0.52497  0.67103  0.98513  Biso   1.000  H
  C150     1.0000 0.58037  0.70713  0.04563  Biso   1.000  C
  O55      1.0000 0.56907  0.73983  0.02943  Biso   1.000  O
  O56      1.0000 0.60487  0.71783  0.07593  Biso   1.000  O
  C151     1.0000 0.54077  0.54433  0.87483  Biso   1.000  C
  H109     1.0000 0.57057  0.57163  0.86223  Biso   1.000  H
  C152     1.0000 0.53667  0.54553  0.91163  Biso   1.000  C
  H110     1.0000 0.56347  0.57473  0.92493  Biso   1.000  H
  C153     1.0000 0.52627  0.39143  0.97873  Biso   1.000  C
  H111     1.0000 0.50807  0.35383  0.97903  Biso   1.000  H
  C154     1.0000 0.49717  0.41733  0.97893  Biso   1.000  C
  H112     1.0000 0.45947  0.39843  0.97783  Biso   1.000  H
  C155     1.0000 0.18423  0.93397  0.30947  Biso   1.000  C
  H113     1.0000 0.16963  0.92977  0.28537  Biso   1.000  H
  C156     1.0000 0.18913  0.89287  0.32537  Biso   1.000  C
  O57      1.0000 0.13623  0.78707  0.13147  Biso   1.000  O
  C157     1.0000 0.21073  0.89967  0.35907  Biso   1.000  C
  H114     1.0000 0.21013  0.87067  0.37157  Biso   1.000  H
  C158     1.0000 0.22833  0.98967  0.36037  Biso   1.000  C
  C159     1.0000 0.23423  0.94957  0.37577  Biso   1.000  C
  H115     1.0000 0.25433  0.95597  0.39787  Biso   1.000  H
  O58      1.0000 0.32803  0.74807  0.31347  Biso   1.000  O
  C160     1.0000 0.20013  0.97907  0.32787  Biso   1.000  C
  H116     1.0000 0.19163  0.00437  0.31847  Biso   1.000  H
  C161     1.0000 0.24703  0.04047  0.37897  Biso   1.000  C
  O59      1.0000 0.23573  0.07317  0.36277  Biso   1.000  O
  O60      1.0000 0.27153  0.05117  0.40927  Biso   1.000  O
  C162     1.0000 0.20743  0.87767  0.20817  Biso   1.000  C
  H117     1.0000 0.23723  0.90497  0.19557  Biso   1.000  H
  C163     1.0000 0.20333  0.87887  0.24497  Biso   1.000  C
  H118     1.0000 0.23013  0.90807  0.25827  Biso   1.000  H
  C164     1.0000 0.19293  0.72477  0.31207  Biso   1.000  C
  H119     1.0000 0.17473  0.68717  0.31237  Biso   1.000  H
  C165     1.0000 0.16383  0.75067  0.31227  Biso   1.000  C
  H120     1.0000 0.12613  0.73177  0.31117  Biso   1.000  H
  C166     1.0000 0.41640  0.14910  0.64280  Biso   1.000  C
  H121     1.0000 0.42680  0.16370  0.61870  Biso   1.000  H
  C167     1.0000 0.37040  0.14420  0.65870  Biso   1.000  C
  O61      1.0000 0.31750  0.19710  0.46480  Biso   1.000  O
  C168     1.0000 0.35560  0.12260  0.69240  Biso   1.000  C
  H122     1.0000 0.32720  0.12320  0.70490  Biso   1.000  H
  C169     1.0000 0.42800  0.10500  0.69370  Biso   1.000  C
  C170     1.0000 0.38200  0.09910  0.70910  Biso   1.000  C
  H123     1.0000 0.36830  0.07900  0.73120  Biso   1.000  H
  O62      1.0000 0.08670  0.00530  0.64680  Biso   1.000  O
  C171     1.0000 0.44560  0.13320  0.66120  Biso   1.000  C
  H124     1.0000 0.47940  0.14170  0.65180  Biso   1.000  H
  C172     1.0000 0.46010  0.08630  0.71230  Biso   1.000  C
  O63      1.0000 0.50410  0.09760  0.69610  Biso   1.000  O
  O64      1.0000 0.44630  0.06180  0.74260  Biso   1.000  O
  C173     1.0000 0.33690  0.12590  0.54150  Biso   1.000  C
  H125     1.0000 0.33440  0.09610  0.52890  Biso   1.000  H
  C174     1.0000 0.34220  0.13000  0.57830  Biso   1.000  C
  H126     1.0000 0.34460  0.10320  0.59160  Biso   1.000  H
  C175     1.0000 0.19850  0.14040  0.64540  Biso   1.000  C
  H127     1.0000 0.17910  0.15860  0.64570  Biso   1.000  H
  C176     1.0000 0.25350  0.16950  0.64560  Biso   1.000  C
  H128     1.0000 0.27230  0.20720  0.64450  Biso   1.000  H
  C177     1.0000 0.08307  0.48243  0.97613  Biso   1.000  C
  H129     1.0000 0.09347  0.49703  0.95203  Biso   1.000  H
  C178     1.0000 0.03707  0.47753  0.99203  Biso   1.000  C
  O65      1.0000 0.98417  0.53043  0.79813  Biso   1.000  O
  C179     1.0000 0.02227  0.45593  0.02573  Biso   1.000  C
  H130     1.0000 0.99387  0.45653  0.03823  Biso   1.000  H
  C180     1.0000 0.09467  0.43833  0.02703  Biso   1.000  C
  C181     1.0000 0.04867  0.43243  0.04243  Biso   1.000  C
  H131     1.0000 0.03497  0.41233  0.06453  Biso   1.000  H
  O66      1.0000 0.75337  0.33863  0.98013  Biso   1.000  O
  C182     1.0000 0.11227  0.46653  0.99453  Biso   1.000  C
  H132     1.0000 0.14607  0.47503  0.98513  Biso   1.000  H
  C183     1.0000 0.12677  0.41963  0.04563  Biso   1.000  C
  O67      1.0000 0.17077  0.43093  0.02943  Biso   1.000  O
  O68      1.0000 0.11297  0.39513  0.07593  Biso   1.000  O
  C184     1.0000 0.00357  0.45923  0.87483  Biso   1.000  C
  H133     1.0000 0.00107  0.42943  0.86223  Biso   1.000  H
  C185     1.0000 0.00887  0.46333  0.91163  Biso   1.000  C
  H134     1.0000 0.01127  0.43653  0.92493  Biso   1.000  H
  C186     1.0000 0.86517  0.47373  0.97873  Biso   1.000  C
  H135     1.0000 0.84577  0.49193  0.97903  Biso   1.000  H
  C187     1.0000 0.92017  0.50283  0.97893  Biso   1.000  C
  H136     1.0000 0.93897  0.54053  0.97783  Biso   1.000  H
  C188     1.0000 0.74973  0.81577  0.30947  Biso   1.000  C
  H137     1.0000 0.76013  0.83037  0.28537  Biso   1.000  H
  C189     1.0000 0.70373  0.81087  0.32537  Biso   1.000  C
  O69      1.0000 0.65083  0.86377  0.13147  Biso   1.000  O
  C190     1.0000 0.68893  0.78927  0.35907  Biso   1.000  C
  H138     1.0000 0.66053  0.78987  0.37157  Biso   1.000  H
  C191     1.0000 0.76133  0.77167  0.36037  Biso   1.000  C
  C192     1.0000 0.71533  0.76577  0.37577  Biso   1.000  C
  H139     1.0000 0.70163  0.74567  0.39787  Biso   1.000  H
  O70      1.0000 0.42003  0.67197  0.31347  Biso   1.000  O
  C193     1.0000 0.77893  0.79987  0.32787  Biso   1.000  C
  H140     1.0000 0.81273  0.80837  0.31847  Biso   1.000  H
  C194     1.0000 0.79343  0.75297  0.37897  Biso   1.000  C
  O71      1.0000 0.83743  0.76427  0.36277  Biso   1.000  O
  O72      1.0000 0.77963  0.72847  0.40927  Biso   1.000  O
  C195     1.0000 0.67023  0.79257  0.20817  Biso   1.000  C
  H141     1.0000 0.66773  0.76277  0.19557  Biso   1.000  H
  C196     1.0000 0.67553  0.79667  0.24497  Biso   1.000  C
  H142     1.0000 0.67793  0.76987  0.25827  Biso   1.000  H
  C197     1.0000 0.53183  0.80707  0.31207  Biso   1.000  C
  H143     1.0000 0.51243  0.82527  0.31237  Biso   1.000  H
  C198     1.0000 0.58683  0.83617  0.31227  Biso   1.000  C
  H144     1.0000 0.60563  0.87387  0.31117  Biso   1.000  H
  U1       1.0000 0.00000  0.00000  0.64468  Biso   1.000  U
  U2       1.0000 0.66667  0.33333  0.97801  Biso   1.000  U
  U3       1.0000 0.33333  0.66667  0.31135  Biso   1.000  U
  U4       1.0000 0.52809  0.47191  0.74492  Biso   1.000  U
  U5       1.0000 0.19476  0.80524  0.07825  Biso   1.000  U
  U6       1.0000 0.86142  0.13858  0.41159  Biso   1.000  U
  U7       1.0000 0.52809  0.05618  0.74492  Biso   1.000  U
  U8       1.0000 0.19476  0.38951  0.07825  Biso   1.000  U
  U9       1.0000 0.86142  0.72285  0.41159  Biso   1.000  U
  U10      1.0000 0.94382  0.47191  0.74492  Biso   1.000  U
  U11      1.0000 0.61049  0.80524  0.07825  Biso   1.000  U
  U12      1.0000 0.27715  0.13858  0.41159  Biso   1.000  U
  C199     1.0000 0.34230  0.17115  0.64220  Biso   1.000  C
  C200     1.0000 0.34410  0.17205  0.59760  Biso   1.000  C
  C201     1.0000 0.17080  0.08540  0.64470  Biso   1.000  C
  C202     1.0000 0.11130  0.05565  0.64630  Biso   1.000  C
  C203     1.0000 0.28000  0.14000  0.64750  Biso   1.000  C
  C204     1.0000 0.33510  0.16755  0.52110  Biso   1.000  C
  C205     1.0000 0.32530  0.16265  0.48250  Biso   1.000  C
  C206     1.0000 0.00897  0.50448  0.97553  Biso   1.000  C
  C207     1.0000 0.01077  0.50538  0.93093  Biso   1.000  C
  C208     1.0000 0.83747  0.41873  0.97803  Biso   1.000  C
  C209     1.0000 0.77797  0.38898  0.97963  Biso   1.000  C
  C210     1.0000 0.94667  0.47333  0.98083  Biso   1.000  C
  C211     1.0000 0.00177  0.50088  0.85443  Biso   1.000  C
  C212     1.0000 0.99197  0.49598  0.81583  Biso   1.000  C
  C213     1.0000 0.67563  0.83782  0.30887  Biso   1.000  C
  C214     1.0000 0.67743  0.83872  0.26427  Biso   1.000  C
  C215     1.0000 0.50413  0.75207  0.31137  Biso   1.000  C
  C216     1.0000 0.44463  0.72232  0.31297  Biso   1.000  C
  C217     1.0000 0.61333  0.80667  0.31417  Biso   1.000  C
  C218     1.0000 0.66843  0.83422  0.18777  Biso   1.000  C
  C219     1.0000 0.65863  0.82932  0.14917  Biso   1.000  C
  C220     1.0000 0.82885  0.17115  0.64220  Biso   1.000  C
  C221     1.0000 0.82795  0.17205  0.59760  Biso   1.000  C
  C222     1.0000 0.91460  0.08540  0.64470  Biso   1.000  C
  C223     1.0000 0.94435  0.05565  0.64630  Biso   1.000  C
  C224     1.0000 0.86000  0.14000  0.64750  Biso   1.000  C
  C225     1.0000 0.83245  0.16755  0.52110  Biso   1.000  C
  C226     1.0000 0.83735  0.16265  0.48250  Biso   1.000  C
  C227     1.0000 0.49552  0.50448  0.97553  Biso   1.000  C
  C228     1.0000 0.49462  0.50538  0.93093  Biso   1.000  C
  C229     1.0000 0.58127  0.41873  0.97803  Biso   1.000  C
  C230     1.0000 0.61102  0.38898  0.97963  Biso   1.000  C
  C231     1.0000 0.52667  0.47333  0.98083  Biso   1.000  C
  C232     1.0000 0.49912  0.50088  0.85443  Biso   1.000  C
  C233     1.0000 0.50402  0.49598  0.81583  Biso   1.000  C
  C234     1.0000 0.16218  0.83782  0.30887  Biso   1.000  C
  C235     1.0000 0.16128  0.83872  0.26427  Biso   1.000  C
  C236     1.0000 0.24793  0.75207  0.31137  Biso   1.000  C
  C237     1.0000 0.27768  0.72232  0.31297  Biso   1.000  C
  C238     1.0000 0.19333  0.80667  0.31417  Biso   1.000  C
  C239     1.0000 0.16578  0.83422  0.18777  Biso   1.000  C
  C240     1.0000 0.17068  0.82932  0.14917  Biso   1.000  C
  C241     1.0000 0.82885  0.65770  0.64220  Biso   1.000  C
  C242     1.0000 0.82795  0.65590  0.59760  Biso   1.000  C
  C243     1.0000 0.91460  0.82920  0.64470  Biso   1.000  C
  C244     1.0000 0.94435  0.88870  0.64630  Biso   1.000  C
  C245     1.0000 0.86000  0.72000  0.64750  Biso   1.000  C
  C246     1.0000 0.83245  0.66490  0.52110  Biso   1.000  C
  C247     1.0000 0.83735  0.67470  0.48250  Biso   1.000  C
  C248     1.0000 0.49552  0.99103  0.97553  Biso   1.000  C
  C249     1.0000 0.49462  0.98923  0.93093  Biso   1.000  C
  C250     1.0000 0.58127  0.16253  0.97803  Biso   1.000  C
  C251     1.0000 0.61102  0.22203  0.97963  Biso   1.000  C
  C252     1.0000 0.52667  0.05333  0.98083  Biso   1.000  C
  C253     1.0000 0.49912  0.99823  0.85443  Biso   1.000  C
  C254     1.0000 0.50402  0.00803  0.81583  Biso   1.000  C
  C255     1.0000 0.16218  0.32437  0.30887  Biso   1.000  C
  C256     1.0000 0.16128  0.32257  0.26427  Biso   1.000  C
  C257     1.0000 0.24793  0.49587  0.31137  Biso   1.000  C
  C258     1.0000 0.27768  0.55537  0.31297  Biso   1.000  C
  C259     1.0000 0.19333  0.38667  0.31417  Biso   1.000  C
  C260     1.0000 0.16578  0.33157  0.18777  Biso   1.000  C
  C261     1.0000 0.17068  0.34137  0.14917  Biso   1.000  C
  O73      1.0000 0.66160  0.41500  0.39980  Biso   1.000  O
  C262     1.0000 0.28830  0.40760  0.44110  Biso   1.000  C
  C263     1.0000 0.34110  0.43190  0.42520  Biso   1.000  C
  O74      1.0000 0.27730  0.38450  0.47140  Biso   1.000  O
  C264     1.0000 0.35070  0.45760  0.39150  Biso   1.000  C
  H145     1.0000 0.32310  0.45940  0.37880  Biso   1.000  H
  O75      1.0000 0.25210  0.41190  0.42350  Biso   1.000  O
  C265     1.0000 0.44150  0.47480  0.39240  Biso   1.000  C
  C266     1.0000 0.40320  0.48150  0.37580  Biso   1.000  C
  H146     1.0000 0.41110  0.50190  0.35380  Biso   1.000  H
  O76      1.0000 0.47050  0.45600  0.19810  Biso   1.000  O
  C267     1.0000 0.43100  0.45060  0.42680  Biso   1.000  C
  H147     1.0000 0.45840  0.44920  0.44000  Biso   1.000  H
  C268     1.0000 0.52870  0.39170  0.39110  Biso   1.000  C
  H148     1.0000 0.51090  0.35410  0.38960  Biso   1.000  H
  C269     1.0000 0.50090  0.41700  0.38910  Biso   1.000  C
  H149     1.0000 0.46330  0.39780  0.39000  Biso   1.000  H
  C270     1.0000 0.38120  0.42860  0.44190  Biso   1.000  C
  H150     1.0000 0.37440  0.41040  0.46490  Biso   1.000  H
  C271     1.0000 0.45820  0.45990  0.31420  Biso   1.000  C
  H151     1.0000 0.42780  0.43350  0.32690  Biso   1.000  H
  C272     1.0000 0.46350  0.45610  0.27670  Biso   1.000  C
  H152     1.0000 0.43980  0.42410  0.26440  Biso   1.000  H
  O77      1.0000 0.32827  0.74833  0.73313  Biso   1.000  O
  C273     1.0000 0.95497  0.74093  0.77443  Biso   1.000  C
  C274     1.0000 0.00777  0.76523  0.75853  Biso   1.000  C
  O78      1.0000 0.94397  0.71783  0.80473  Biso   1.000  O
  C275     1.0000 0.01737  0.79093  0.72483  Biso   1.000  C
  H153     1.0000 0.98977  0.79273  0.71213  Biso   1.000  H
  O79      1.0000 0.91877  0.74523  0.75683  Biso   1.000  O
  C276     1.0000 0.10817  0.80813  0.72573  Biso   1.000  C
  C277     1.0000 0.06987  0.81483  0.70913  Biso   1.000  C
  H154     1.0000 0.07777  0.83523  0.68713  Biso   1.000  H
  O80      1.0000 0.13717  0.78933  0.53143  Biso   1.000  O
  C278     1.0000 0.09767  0.78393  0.76013  Biso   1.000  C
  H155     1.0000 0.12507  0.78253  0.77333  Biso   1.000  H
  C279     1.0000 0.19537  0.72503  0.72443  Biso   1.000  C
  H156     1.0000 0.17757  0.68743  0.72293  Biso   1.000  H
  C280     1.0000 0.16757  0.75033  0.72243  Biso   1.000  C
  H157     1.0000 0.12997  0.73113  0.72333  Biso   1.000  H
  C281     1.0000 0.04787  0.76193  0.77523  Biso   1.000  C
  H158     1.0000 0.04107  0.74373  0.79823  Biso   1.000  H
  C282     1.0000 0.12487  0.79323  0.64753  Biso   1.000  C
  H159     1.0000 0.09447  0.76683  0.66023  Biso   1.000  H
  C283     1.0000 0.13017  0.78943  0.61003  Biso   1.000  C
  H160     1.0000 0.10647  0.75743  0.59773  Biso   1.000  H
  O81      1.0000 0.99493  0.08167  0.06647  Biso   1.000  O
  C284     1.0000 0.62163  0.07427  0.10777  Biso   1.000  C
  C285     1.0000 0.67443  0.09857  0.09187  Biso   1.000  C
  O82      1.0000 0.61063  0.05117  0.13807  Biso   1.000  O
  C286     1.0000 0.68403  0.12427  0.05817  Biso   1.000  C
  H161     1.0000 0.65643  0.12607  0.04547  Biso   1.000  H
  O83      1.0000 0.58543  0.07857  0.09017  Biso   1.000  O
  C287     1.0000 0.77483  0.14147  0.05907  Biso   1.000  C
  C288     1.0000 0.73653  0.14817  0.04247  Biso   1.000  C
  H162     1.0000 0.74443  0.16857  0.02047  Biso   1.000  H
  O84      1.0000 0.80383  0.12267  0.86477  Biso   1.000  O
  C289     1.0000 0.76433  0.11727  0.09347  Biso   1.000  C
  H163     1.0000 0.79173  0.11587  0.10667  Biso   1.000  H
  C290     1.0000 0.86203  0.05837  0.05777  Biso   1.000  C
  H164     1.0000 0.84423  0.02077  0.05627  Biso   1.000  H
  C291     1.0000 0.83423  0.08367  0.05577  Biso   1.000  C
  H165     1.0000 0.79663  0.06447  0.05667  Biso   1.000  H
  C292     1.0000 0.71453  0.09527  0.10857  Biso   1.000  C
  H166     1.0000 0.70773  0.07707  0.13157  Biso   1.000  H
  C293     1.0000 0.79153  0.12657  0.98087  Biso   1.000  C
  H167     1.0000 0.76113  0.10017  0.99357  Biso   1.000  H
  C294     1.0000 0.79683  0.12277  0.94337  Biso   1.000  C
  H168     1.0000 0.77313  0.09077  0.93107  Biso   1.000  H
  O85      1.0000 0.58500  0.24660  0.39980  Biso   1.000  O
  C295     1.0000 0.59240  0.88070  0.44110  Biso   1.000  C
  C296     1.0000 0.56810  0.90920  0.42520  Biso   1.000  C
  O86      1.0000 0.61550  0.89280  0.47140  Biso   1.000  O
  C297     1.0000 0.54240  0.89310  0.39150  Biso   1.000  C
  H169     1.0000 0.54060  0.86370  0.37880  Biso   1.000  H
  O87      1.0000 0.58810  0.84020  0.42350  Biso   1.000  O
  C298     1.0000 0.52520  0.96670  0.39240  Biso   1.000  C
  C299     1.0000 0.51850  0.92170  0.37580  Biso   1.000  C
  H170     1.0000 0.49810  0.90920  0.35380  Biso   1.000  H
  O88      1.0000 0.54400  0.01450  0.19810  Biso   1.000  O
  C300     1.0000 0.54940  0.98040  0.42680  Biso   1.000  C
  H171     1.0000 0.55080  0.00920  0.44000  Biso   1.000  H
  C301     1.0000 0.60830  0.13700  0.39110  Biso   1.000  C
  H172     1.0000 0.64590  0.15680  0.38960  Biso   1.000  H
  C302     1.0000 0.58300  0.08390  0.38910  Biso   1.000  C
  H173     1.0000 0.60220  0.06550  0.39000  Biso   1.000  H
  C303     1.0000 0.57140  0.95260  0.44190  Biso   1.000  C
  H174     1.0000 0.58960  0.96400  0.46490  Biso   1.000  H
  C304     1.0000 0.54010  0.99830  0.31420  Biso   1.000  C
  H175     1.0000 0.56650  0.99430  0.32690  Biso   1.000  H
  C305     1.0000 0.54390  0.00740  0.27670  Biso   1.000  C
  H176     1.0000 0.57590  0.01570  0.26440  Biso   1.000  H
  O89      1.0000 0.25167  0.57993  0.73313  Biso   1.000  O
  C306     1.0000 0.25907  0.21403  0.77443  Biso   1.000  C
  C307     1.0000 0.23477  0.24253  0.75853  Biso   1.000  C
  O90      1.0000 0.28217  0.22613  0.80473  Biso   1.000  O
  C308     1.0000 0.20907  0.22643  0.72483  Biso   1.000  C
  H177     1.0000 0.20727  0.19703  0.71213  Biso   1.000  H
  O91      1.0000 0.25477  0.17353  0.75683  Biso   1.000  O
  C309     1.0000 0.19187  0.30003  0.72573  Biso   1.000  C
  C310     1.0000 0.18517  0.25503  0.70913  Biso   1.000  C
  H178     1.0000 0.16477  0.24253  0.68713  Biso   1.000  H
  O92      1.0000 0.21067  0.34783  0.53143  Biso   1.000  O
  C311     1.0000 0.21607  0.31373  0.76013  Biso   1.000  C
  H179     1.0000 0.21747  0.34253  0.77333  Biso   1.000  H
  C312     1.0000 0.27497  0.47033  0.72443  Biso   1.000  C
  H180     1.0000 0.31257  0.49013  0.72293  Biso   1.000  H
  C313     1.0000 0.24967  0.41723  0.72243  Biso   1.000  C
  H181     1.0000 0.26887  0.39883  0.72333  Biso   1.000  H
  C314     1.0000 0.23807  0.28593  0.77523  Biso   1.000  C
  H182     1.0000 0.25627  0.29733  0.79823  Biso   1.000  H
  C315     1.0000 0.20677  0.33163  0.64753  Biso   1.000  C
  H183     1.0000 0.23317  0.32763  0.66023  Biso   1.000  H
  C316     1.0000 0.21057  0.34073  0.61003  Biso   1.000  C
  H184     1.0000 0.24257  0.34903  0.59773  Biso   1.000  H
  O93      1.0000 0.91833  0.91327  0.06647  Biso   1.000  O
  C317     1.0000 0.92573  0.54737  0.10777  Biso   1.000  C
  C318     1.0000 0.90143  0.57587  0.09187  Biso   1.000  C
  O94      1.0000 0.94883  0.55947  0.13807  Biso   1.000  O
  C319     1.0000 0.87573  0.55977  0.05817  Biso   1.000  C
  H185     1.0000 0.87393  0.53037  0.04547  Biso   1.000  H
  O95      1.0000 0.92143  0.50687  0.09017  Biso   1.000  O
  C320     1.0000 0.85853  0.63337  0.05907  Biso   1.000  C
  C321     1.0000 0.85183  0.58837  0.04247  Biso   1.000  C
  H186     1.0000 0.83143  0.57587  0.02047  Biso   1.000  H
  O96      1.0000 0.87733  0.68117  0.86477  Biso   1.000  O
  C322     1.0000 0.88273  0.64707  0.09347  Biso   1.000  C
  H187     1.0000 0.88413  0.67587  0.10667  Biso   1.000  H
  C323     1.0000 0.94163  0.80367  0.05777  Biso   1.000  C
  H188     1.0000 0.97923  0.82347  0.05627  Biso   1.000  H
  C324     1.0000 0.91633  0.75057  0.05577  Biso   1.000  C
  H189     1.0000 0.93553  0.73217  0.05667  Biso   1.000  H
  C325     1.0000 0.90473  0.61927  0.10857  Biso   1.000  C
  H190     1.0000 0.92293  0.63067  0.13157  Biso   1.000  H
  C326     1.0000 0.87343  0.66497  0.98087  Biso   1.000  C
  H191     1.0000 0.89983  0.66097  0.99357  Biso   1.000  H
  C327     1.0000 0.87723  0.67407  0.94337  Biso   1.000  C
  H192     1.0000 0.90923  0.68237  0.93107  Biso   1.000  H
  O97      1.0000 0.75340  0.33840  0.39980  Biso   1.000  O
  C328     1.0000 0.11930  0.71170  0.44110  Biso   1.000  C
  C329     1.0000 0.09080  0.65890  0.42520  Biso   1.000  C
  O98      1.0000 0.10720  0.72270  0.47140  Biso   1.000  O
  C330     1.0000 0.10690  0.64930  0.39150  Biso   1.000  C
  H193     1.0000 0.13630  0.67690  0.37880  Biso   1.000  H
  O99      1.0000 0.15980  0.74790  0.42350  Biso   1.000  O
  C331     1.0000 0.03330  0.55850  0.39240  Biso   1.000  C
  C332     1.0000 0.07830  0.59680  0.37580  Biso   1.000  C
  H194     1.0000 0.09080  0.58890  0.35380  Biso   1.000  H
  O100     1.0000 0.98550  0.52950  0.19810  Biso   1.000  O
  C333     1.0000 0.01960  0.56900  0.42680  Biso   1.000  C
  H195     1.0000 0.99080  0.54160  0.44000  Biso   1.000  H
  C334     1.0000 0.86300  0.47130  0.39110  Biso   1.000  C
  H196     1.0000 0.84320  0.48910  0.38960  Biso   1.000  H
  C335     1.0000 0.91610  0.49910  0.38910  Biso   1.000  C
  H197     1.0000 0.93450  0.53670  0.39000  Biso   1.000  H
  C336     1.0000 0.04740  0.61880  0.44190  Biso   1.000  C
  H198     1.0000 0.03600  0.62560  0.46490  Biso   1.000  H
  C337     1.0000 0.00170  0.54180  0.31420  Biso   1.000  C
  H199     1.0000 0.00570  0.57220  0.32690  Biso   1.000  H
  C338     1.0000 0.99260  0.53650  0.27670  Biso   1.000  C
  H200     1.0000 0.98430  0.56020  0.26440  Biso   1.000  H
  O101     1.0000 0.42007  0.67173  0.73313  Biso   1.000  O
  C339     1.0000 0.78597  0.04503  0.77443  Biso   1.000  C
  C340     1.0000 0.75747  0.99223  0.75853  Biso   1.000  C
  O102     1.0000 0.77387  0.05603  0.80473  Biso   1.000  O
  C341     1.0000 0.77357  0.98263  0.72483  Biso   1.000  C
  H201     1.0000 0.80297  0.01023  0.71213  Biso   1.000  H
  O103     1.0000 0.82647  0.08123  0.75683  Biso   1.000  O
  C342     1.0000 0.69997  0.89183  0.72573  Biso   1.000  C
  C343     1.0000 0.74497  0.93013  0.70913  Biso   1.000  C
  H202     1.0000 0.75747  0.92223  0.68713  Biso   1.000  H
  O104     1.0000 0.65217  0.86283  0.53143  Biso   1.000  O
  C344     1.0000 0.68627  0.90233  0.76013  Biso   1.000  C
  H203     1.0000 0.65747  0.87493  0.77333  Biso   1.000  H
  C345     1.0000 0.52967  0.80463  0.72443  Biso   1.000  C
  H204     1.0000 0.50987  0.82243  0.72293  Biso   1.000  H
  C346     1.0000 0.58277  0.83243  0.72243  Biso   1.000  C
  H205     1.0000 0.60117  0.87003  0.72333  Biso   1.000  H
  C347     1.0000 0.71407  0.95213  0.77523  Biso   1.000  C
  H206     1.0000 0.70267  0.95893  0.79823  Biso   1.000  H
  C348     1.0000 0.66837  0.87513  0.64753  Biso   1.000  C
  H207     1.0000 0.67237  0.90553  0.66023  Biso   1.000  H
  C349     1.0000 0.65927  0.86983  0.61003  Biso   1.000  C
  H208     1.0000 0.65097  0.89353  0.59773  Biso   1.000  H
  O105     1.0000 0.08673  0.00507  0.06647  Biso   1.000  O
  C350     1.0000 0.45263  0.37837  0.10777  Biso   1.000  C
  C351     1.0000 0.42413  0.32557  0.09187  Biso   1.000  C
  O106     1.0000 0.44053  0.38937  0.13807  Biso   1.000  O
  C352     1.0000 0.44023  0.31597  0.05817  Biso   1.000  C
  H209     1.0000 0.46963  0.34357  0.04547  Biso   1.000  H
  O107     1.0000 0.49313  0.41457  0.09017  Biso   1.000  O
  C353     1.0000 0.36663  0.22517  0.05907  Biso   1.000  C
  C354     1.0000 0.41163  0.26347  0.04247  Biso   1.000  C
  H210     1.0000 0.42413  0.25557  0.02047  Biso   1.000  H
  O108     1.0000 0.31883  0.19617  0.86477  Biso   1.000  O
  C355     1.0000 0.35293  0.23567  0.09347  Biso   1.000  C
  H211     1.0000 0.32413  0.20827  0.10667  Biso   1.000  H
  C356     1.0000 0.19633  0.13797  0.05777  Biso   1.000  C
  H212     1.0000 0.17653  0.15577  0.05627  Biso   1.000  H
  C357     1.0000 0.24943  0.16577  0.05577  Biso   1.000  C
  H213     1.0000 0.26783  0.20337  0.05667  Biso   1.000  H
  C358     1.0000 0.38073  0.28547  0.10857  Biso   1.000  C
  H214     1.0000 0.36933  0.29227  0.13157  Biso   1.000  H
  C359     1.0000 0.33503  0.20847  0.98087  Biso   1.000  C
  H215     1.0000 0.33903  0.23887  0.99357  Biso   1.000  H
  C360     1.0000 0.32593  0.20317  0.94337  Biso   1.000  C
  H216     1.0000 0.31763  0.22687  0.93107  Biso   1.000  H
  O109     1.0000 0.58500  0.33840  0.39980  Biso   1.000  O
  C361     1.0000 0.59240  0.71170  0.44110  Biso   1.000  C
  C362     1.0000 0.56810  0.65890  0.42520  Biso   1.000  C
  O110     1.0000 0.61550  0.72270  0.47140  Biso   1.000  O
  C363     1.0000 0.54240  0.64930  0.39150  Biso   1.000  C
  H217     1.0000 0.54060  0.67690  0.37880  Biso   1.000  H
  O111     1.0000 0.58810  0.74790  0.42350  Biso   1.000  O
  C364     1.0000 0.52520  0.55850  0.39240  Biso   1.000  C
  C365     1.0000 0.51850  0.59680  0.37580  Biso   1.000  C
  H218     1.0000 0.49810  0.58890  0.35380  Biso   1.000  H
  O112     1.0000 0.54400  0.52950  0.19810  Biso   1.000  O
  C366     1.0000 0.54940  0.56900  0.42680  Biso   1.000  C
  H219     1.0000 0.55080  0.54160  0.44000  Biso   1.000  H
  C367     1.0000 0.60830  0.47130  0.39110  Biso   1.000  C
  H220     1.0000 0.64590  0.48910  0.38960  Biso   1.000  H
  C368     1.0000 0.58300  0.49910  0.38910  Biso   1.000  C
  H221     1.0000 0.60220  0.53670  0.39000  Biso   1.000  H
  C369     1.0000 0.57140  0.61880  0.44190  Biso   1.000  C
  H222     1.0000 0.58960  0.62560  0.46490  Biso   1.000  H
  C370     1.0000 0.54010  0.54180  0.31420  Biso   1.000  C
  H223     1.0000 0.56650  0.57220  0.32690  Biso   1.000  H
  C371     1.0000 0.54390  0.53650  0.27670  Biso   1.000  C
  H224     1.0000 0.57590  0.56020  0.26440  Biso   1.000  H
  O113     1.0000 0.25167  0.67173  0.73313  Biso   1.000  O
  C372     1.0000 0.25907  0.04503  0.77443  Biso   1.000  C
  C373     1.0000 0.23477  0.99223  0.75853  Biso   1.000  C
  O114     1.0000 0.28217  0.05603  0.80473  Biso   1.000  O
  C374     1.0000 0.20907  0.98263  0.72483  Biso   1.000  C
  H225     1.0000 0.20727  0.01023  0.71213  Biso   1.000  H
  O115     1.0000 0.25477  0.08123  0.75683  Biso   1.000  O
  C375     1.0000 0.19187  0.89183  0.72573  Biso   1.000  C
  C376     1.0000 0.18517  0.93013  0.70913  Biso   1.000  C
  H226     1.0000 0.16477  0.92223  0.68713  Biso   1.000  H
  O116     1.0000 0.21067  0.86283  0.53143  Biso   1.000  O
  C377     1.0000 0.21607  0.90233  0.76013  Biso   1.000  C
  H227     1.0000 0.21747  0.87493  0.77333  Biso   1.000  H
  C378     1.0000 0.27497  0.80463  0.72443  Biso   1.000  C
  H228     1.0000 0.31257  0.82243  0.72293  Biso   1.000  H
  C379     1.0000 0.24967  0.83243  0.72243  Biso   1.000  C
  H229     1.0000 0.26887  0.87003  0.72333  Biso   1.000  H
  C380     1.0000 0.23807  0.95213  0.77523  Biso   1.000  C
  H230     1.0000 0.25627  0.95893  0.79823  Biso   1.000  H
  C381     1.0000 0.20677  0.87513  0.64753  Biso   1.000  C
  H231     1.0000 0.23317  0.90553  0.66023  Biso   1.000  H
  C382     1.0000 0.21057  0.86983  0.61003  Biso   1.000  C
  H232     1.0000 0.24257  0.89353  0.59773  Biso   1.000  H
  O117     1.0000 0.91833  0.00507  0.06647  Biso   1.000  O
  C383     1.0000 0.92573  0.37837  0.10777  Biso   1.000  C
  C384     1.0000 0.90143  0.32557  0.09187  Biso   1.000  C
  O118     1.0000 0.94883  0.38937  0.13807  Biso   1.000  O
  C385     1.0000 0.87573  0.31597  0.05817  Biso   1.000  C
  H233     1.0000 0.87393  0.34357  0.04547  Biso   1.000  H
  O119     1.0000 0.92143  0.41457  0.09017  Biso   1.000  O
  C386     1.0000 0.85853  0.22517  0.05907  Biso   1.000  C
  C387     1.0000 0.85183  0.26347  0.04247  Biso   1.000  C
  H234     1.0000 0.83143  0.25557  0.02047  Biso   1.000  H
  O120     1.0000 0.87733  0.19617  0.86477  Biso   1.000  O
  C388     1.0000 0.88273  0.23567  0.09347  Biso   1.000  C
  H235     1.0000 0.88413  0.20827  0.10667  Biso   1.000  H
  C389     1.0000 0.94163  0.13797  0.05777  Biso   1.000  C
  H236     1.0000 0.97923  0.15577  0.05627  Biso   1.000  H
  C390     1.0000 0.91633  0.16577  0.05577  Biso   1.000  C
  H237     1.0000 0.93553  0.20337  0.05667  Biso   1.000  H
  C391     1.0000 0.90473  0.28547  0.10857  Biso   1.000  C
  H238     1.0000 0.92293  0.29227  0.13157  Biso   1.000  H
  C392     1.0000 0.87343  0.20847  0.98087  Biso   1.000  C
  H239     1.0000 0.89983  0.23887  0.99357  Biso   1.000  H
  C393     1.0000 0.87723  0.20317  0.94337  Biso   1.000  C
  H240     1.0000 0.90923  0.22687  0.93107  Biso   1.000  H
  O121     1.0000 0.75340  0.41500  0.39980  Biso   1.000  O
  C394     1.0000 0.11930  0.40760  0.44110  Biso   1.000  C
  C395     1.0000 0.09080  0.43190  0.42520  Biso   1.000  C
  O122     1.0000 0.10720  0.38450  0.47140  Biso   1.000  O
  C396     1.0000 0.10690  0.45760  0.39150  Biso   1.000  C
  H241     1.0000 0.13630  0.45940  0.37880  Biso   1.000  H
  O123     1.0000 0.15980  0.41190  0.42350  Biso   1.000  O
  C397     1.0000 0.03330  0.47480  0.39240  Biso   1.000  C
  C398     1.0000 0.07830  0.48150  0.37580  Biso   1.000  C
  H242     1.0000 0.09080  0.50190  0.35380  Biso   1.000  H
  O124     1.0000 0.98550  0.45600  0.19810  Biso   1.000  O
  C399     1.0000 0.01960  0.45060  0.42680  Biso   1.000  C
  H243     1.0000 0.99080  0.44920  0.44000  Biso   1.000  H
  C400     1.0000 0.86300  0.39170  0.39110  Biso   1.000  C
  H244     1.0000 0.84320  0.35410  0.38960  Biso   1.000  H
  C401     1.0000 0.91610  0.41700  0.38910  Biso   1.000  C
  H245     1.0000 0.93450  0.39780  0.39000  Biso   1.000  H
  C402     1.0000 0.04740  0.42860  0.44190  Biso   1.000  C
  H246     1.0000 0.03600  0.41040  0.46490  Biso   1.000  H
  C403     1.0000 0.00170  0.45990  0.31420  Biso   1.000  C
  H247     1.0000 0.00570  0.43350  0.32690  Biso   1.000  H
  C404     1.0000 0.99260  0.45610  0.27670  Biso   1.000  C
  H248     1.0000 0.98430  0.42410  0.26440  Biso   1.000  H
  O125     1.0000 0.42007  0.74833  0.73313  Biso   1.000  O
  C405     1.0000 0.78597  0.74093  0.77443  Biso   1.000  C
  C406     1.0000 0.75747  0.76523  0.75853  Biso   1.000  C
  O126     1.0000 0.77387  0.71783  0.80473  Biso   1.000  O
  C407     1.0000 0.77357  0.79093  0.72483  Biso   1.000  C
  H249     1.0000 0.80297  0.79273  0.71213  Biso   1.000  H
  O127     1.0000 0.82647  0.74523  0.75683  Biso   1.000  O
  C408     1.0000 0.69997  0.80813  0.72573  Biso   1.000  C
  C409     1.0000 0.74497  0.81483  0.70913  Biso   1.000  C
  H250     1.0000 0.75747  0.83523  0.68713  Biso   1.000  H
  O128     1.0000 0.65217  0.78933  0.53143  Biso   1.000  O
  C410     1.0000 0.68627  0.78393  0.76013  Biso   1.000  C
  H251     1.0000 0.65747  0.78253  0.77333  Biso   1.000  H
  C411     1.0000 0.52967  0.72503  0.72443  Biso   1.000  C
  H252     1.0000 0.50987  0.68743  0.72293  Biso   1.000  H
  C412     1.0000 0.58277  0.75033  0.72243  Biso   1.000  C
  H253     1.0000 0.60117  0.73113  0.72333  Biso   1.000  H
  C413     1.0000 0.71407  0.76193  0.77523  Biso   1.000  C
  H254     1.0000 0.70267  0.74373  0.79823  Biso   1.000  H
  C414     1.0000 0.66837  0.79323  0.64753  Biso   1.000  C
  H255     1.0000 0.67237  0.76683  0.66023  Biso   1.000  H
  C415     1.0000 0.65927  0.78943  0.61003  Biso   1.000  C
  H256     1.0000 0.65097  0.75743  0.59773  Biso   1.000  H
  O129     1.0000 0.08673  0.08167  0.06647  Biso   1.000  O
  C416     1.0000 0.45263  0.07427  0.10777  Biso   1.000  C
  C417     1.0000 0.42413  0.09857  0.09187  Biso   1.000  C
  O130     1.0000 0.44053  0.05117  0.13807  Biso   1.000  O
  C418     1.0000 0.44023  0.12427  0.05817  Biso   1.000  C
  H257     1.0000 0.46963  0.12607  0.04547  Biso   1.000  H
  O131     1.0000 0.49313  0.07857  0.09017  Biso   1.000  O
  C419     1.0000 0.36663  0.14147  0.05907  Biso   1.000  C
  C420     1.0000 0.41163  0.14817  0.04247  Biso   1.000  C
  H258     1.0000 0.42413  0.16857  0.02047  Biso   1.000  H
  O132     1.0000 0.31883  0.12267  0.86477  Biso   1.000  O
  C421     1.0000 0.35293  0.11727  0.09347  Biso   1.000  C
  H259     1.0000 0.32413  0.11587  0.10667  Biso   1.000  H
  C422     1.0000 0.19633  0.05837  0.05777  Biso   1.000  C
  H260     1.0000 0.17653  0.02077  0.05627  Biso   1.000  H
  C423     1.0000 0.24943  0.08367  0.05577  Biso   1.000  C
  H261     1.0000 0.26783  0.06447  0.05667  Biso   1.000  H
  C424     1.0000 0.38073  0.09527  0.10857  Biso   1.000  C
  H262     1.0000 0.36933  0.07707  0.13157  Biso   1.000  H
  C425     1.0000 0.33503  0.12657  0.98087  Biso   1.000  C
  H263     1.0000 0.33903  0.10017  0.99357  Biso   1.000  H
  C426     1.0000 0.32593  0.12277  0.94337  Biso   1.000  C
  H264     1.0000 0.31763  0.09077  0.93107  Biso   1.000  H
  O133     1.0000 0.66160  0.24660  0.39980  Biso   1.000  O
  C427     1.0000 0.28830  0.88070  0.44110  Biso   1.000  C
  C428     1.0000 0.34110  0.90920  0.42520  Biso   1.000  C
  O134     1.0000 0.27730  0.89280  0.47140  Biso   1.000  O
  C429     1.0000 0.35070  0.89310  0.39150  Biso   1.000  C
  H265     1.0000 0.32310  0.86370  0.37880  Biso   1.000  H
  O135     1.0000 0.25210  0.84020  0.42350  Biso   1.000  O
  C430     1.0000 0.44150  0.96670  0.39240  Biso   1.000  C
  C431     1.0000 0.40320  0.92170  0.37580  Biso   1.000  C
  H266     1.0000 0.41110  0.90920  0.35380  Biso   1.000  H
  O136     1.0000 0.47050  0.01450  0.19810  Biso   1.000  O
  C432     1.0000 0.43100  0.98040  0.42680  Biso   1.000  C
  H267     1.0000 0.45840  0.00920  0.44000  Biso   1.000  H
  C433     1.0000 0.52870  0.13700  0.39110  Biso   1.000  C
  H268     1.0000 0.51090  0.15680  0.38960  Biso   1.000  H
  C434     1.0000 0.50090  0.08390  0.38910  Biso   1.000  C
  H269     1.0000 0.46330  0.06550  0.39000  Biso   1.000  H
  C435     1.0000 0.38120  0.95260  0.44190  Biso   1.000  C
  H270     1.0000 0.37440  0.96400  0.46490  Biso   1.000  H
  C436     1.0000 0.45820  0.99830  0.31420  Biso   1.000  C
  H271     1.0000 0.42780  0.99430  0.32690  Biso   1.000  H
  C437     1.0000 0.46350  0.00740  0.27670  Biso   1.000  C
  H272     1.0000 0.43980  0.01570  0.26440  Biso   1.000  H
  O137     1.0000 0.32827  0.57993  0.73313  Biso   1.000  O
  C438     1.0000 0.95497  0.21403  0.77443  Biso   1.000  C
  C439     1.0000 0.00777  0.24253  0.75853  Biso   1.000  C
  O138     1.0000 0.94397  0.22613  0.80473  Biso   1.000  O
  C440     1.0000 0.01737  0.22643  0.72483  Biso   1.000  C
  H273     1.0000 0.98977  0.19703  0.71213  Biso   1.000  H
  O139     1.0000 0.91877  0.17353  0.75683  Biso   1.000  O
  C441     1.0000 0.10817  0.30003  0.72573  Biso   1.000  C
  C442     1.0000 0.06987  0.25503  0.70913  Biso   1.000  C
  H274     1.0000 0.07777  0.24253  0.68713  Biso   1.000  H
  O140     1.0000 0.13717  0.34783  0.53143  Biso   1.000  O
  C443     1.0000 0.09767  0.31373  0.76013  Biso   1.000  C
  H275     1.0000 0.12507  0.34253  0.77333  Biso   1.000  H
  C444     1.0000 0.19537  0.47033  0.72443  Biso   1.000  C
  H276     1.0000 0.17757  0.49013  0.72293  Biso   1.000  H
  C445     1.0000 0.16757  0.41723  0.72243  Biso   1.000  C
  H277     1.0000 0.12997  0.39883  0.72333  Biso   1.000  H
  C446     1.0000 0.04787  0.28593  0.77523  Biso   1.000  C
  H278     1.0000 0.04107  0.29733  0.79823  Biso   1.000  H
  C447     1.0000 0.12487  0.33163  0.64753  Biso   1.000  C
  H279     1.0000 0.09447  0.32763  0.66023  Biso   1.000  H
  C448     1.0000 0.13017  0.34073  0.61003  Biso   1.000  C
  H280     1.0000 0.10647  0.34903  0.59773  Biso   1.000  H
  O141     1.0000 0.99493  0.91327  0.06647  Biso   1.000  O
  C449     1.0000 0.62163  0.54737  0.10777  Biso   1.000  C
  C450     1.0000 0.67443  0.57587  0.09187  Biso   1.000  C
  O142     1.0000 0.61063  0.55947  0.13807  Biso   1.000  O
  C451     1.0000 0.68403  0.55977  0.05817  Biso   1.000  C
  H281     1.0000 0.65643  0.53037  0.04547  Biso   1.000  H
  O143     1.0000 0.58543  0.50687  0.09017  Biso   1.000  O
  C452     1.0000 0.77483  0.63337  0.05907  Biso   1.000  C
  C453     1.0000 0.73653  0.58837  0.04247  Biso   1.000  C
  H282     1.0000 0.74443  0.57587  0.02047  Biso   1.000  H
  O144     1.0000 0.80383  0.68117  0.86477  Biso   1.000  O
  C454     1.0000 0.76433  0.64707  0.09347  Biso   1.000  C
  H283     1.0000 0.79173  0.67587  0.10667  Biso   1.000  H
  C455     1.0000 0.86203  0.80367  0.05777  Biso   1.000  C
  H284     1.0000 0.84423  0.82347  0.05627  Biso   1.000  H
  C456     1.0000 0.83423  0.75057  0.05577  Biso   1.000  C
  H285     1.0000 0.79663  0.73217  0.05667  Biso   1.000  H
  C457     1.0000 0.71453  0.61927  0.10857  Biso   1.000  C
  H286     1.0000 0.70773  0.63067  0.13157  Biso   1.000  H
  C458     1.0000 0.79153  0.66497  0.98087  Biso   1.000  C
  H287     1.0000 0.76113  0.66097  0.99357  Biso   1.000  H
  C459     1.0000 0.79683  0.67407  0.94337  Biso   1.000  C
  H288     1.0000 0.77313  0.68237  0.93107  Biso   1.000  H
  C460     1.0000 0.52840  0.47160  0.38590  Biso   1.000  C
  C461     1.0000 0.49750  0.50250  0.37670  Biso   1.000  C
  C462     1.0000 0.58100  0.41900  0.39500  Biso   1.000  C
  C463     1.0000 0.61170  0.38830  0.39930  Biso   1.000  C
  C464     1.0000 0.49760  0.50240  0.33350  Biso   1.000  C
  C465     1.0000 0.50230  0.49770  0.25660  Biso   1.000  C
  C466     1.0000 0.50320  0.49680  0.21390  Biso   1.000  C
  C467     1.0000 0.19507  0.80493  0.71923  Biso   1.000  C
  C468     1.0000 0.16417  0.83583  0.71003  Biso   1.000  C
  C469     1.0000 0.24767  0.75233  0.72833  Biso   1.000  C
  C470     1.0000 0.27837  0.72163  0.73263  Biso   1.000  C
  C471     1.0000 0.16427  0.83573  0.66683  Biso   1.000  C
  C472     1.0000 0.16897  0.83103  0.58993  Biso   1.000  C
  C473     1.0000 0.16987  0.83013  0.54723  Biso   1.000  C
  C474     1.0000 0.86173  0.13827  0.05257  Biso   1.000  C
  C475     1.0000 0.83083  0.16917  0.04337  Biso   1.000  C
  C476     1.0000 0.91433  0.08567  0.06167  Biso   1.000  C
  C477     1.0000 0.94503  0.05497  0.06597  Biso   1.000  C
  C478     1.0000 0.83093  0.16907  0.00017  Biso   1.000  C
  C479     1.0000 0.83563  0.16437  0.92327  Biso   1.000  C
  C480     1.0000 0.83653  0.16347  0.88057  Biso   1.000  C
  C481     1.0000 0.52840  0.05680  0.38590  Biso   1.000  C
  C482     1.0000 0.49750  0.99500  0.37670  Biso   1.000  C
  C483     1.0000 0.58100  0.16200  0.39500  Biso   1.000  C
  C484     1.0000 0.61170  0.22340  0.39930  Biso   1.000  C
  C485     1.0000 0.49760  0.99520  0.33350  Biso   1.000  C
  C486     1.0000 0.50230  0.00460  0.25660  Biso   1.000  C
  C487     1.0000 0.50320  0.00640  0.21390  Biso   1.000  C
  C488     1.0000 0.19507  0.39013  0.71923  Biso   1.000  C
  C489     1.0000 0.16417  0.32833  0.71003  Biso   1.000  C
  C490     1.0000 0.24767  0.49533  0.72833  Biso   1.000  C
  C491     1.0000 0.27837  0.55673  0.73263  Biso   1.000  C
  C492     1.0000 0.16427  0.32853  0.66683  Biso   1.000  C
  C493     1.0000 0.16897  0.33793  0.58993  Biso   1.000  C
  C494     1.0000 0.16987  0.33973  0.54723  Biso   1.000  C
  C495     1.0000 0.86173  0.72347  0.05257  Biso   1.000  C
  C496     1.0000 0.83083  0.66167  0.04337  Biso   1.000  C
  C497     1.0000 0.91433  0.82867  0.06167  Biso   1.000  C
  C498     1.0000 0.94503  0.89007  0.06597  Biso   1.000  C
  C499     1.0000 0.83093  0.66187  0.00017  Biso   1.000  C
  C500     1.0000 0.83563  0.67127  0.92327  Biso   1.000  C
  C501     1.0000 0.83653  0.67307  0.88057  Biso   1.000  C
  C502     1.0000 0.94320  0.47160  0.38590  Biso   1.000  C
  C503     1.0000 0.00500  0.50250  0.37670  Biso   1.000  C
  C504     1.0000 0.83800  0.41900  0.39500  Biso   1.000  C
  C505     1.0000 0.77660  0.38830  0.39930  Biso   1.000  C
  C506     1.0000 0.00480  0.50240  0.33350  Biso   1.000  C
  C507     1.0000 0.99540  0.49770  0.25660  Biso   1.000  C
  C508     1.0000 0.99360  0.49680  0.21390  Biso   1.000  C
  C509     1.0000 0.60987  0.80493  0.71923  Biso   1.000  C
  C510     1.0000 0.67167  0.83583  0.71003  Biso   1.000  C
  C511     1.0000 0.50467  0.75233  0.72833  Biso   1.000  C
  C512     1.0000 0.44327  0.72163  0.73263  Biso   1.000  C
  C513     1.0000 0.67147  0.83573  0.66683  Biso   1.000  C
  C514     1.0000 0.66207  0.83103  0.58993  Biso   1.000  C
  C515     1.0000 0.66027  0.83013  0.54723  Biso   1.000  C
  C516     1.0000 0.27653  0.13827  0.05257  Biso   1.000  C
  C517     1.0000 0.33833  0.16917  0.04337  Biso   1.000  C
  C518     1.0000 0.17133  0.08567  0.06167  Biso   1.000  C
  C519     1.0000 0.10993  0.05497  0.06597  Biso   1.000  C
  C520     1.0000 0.33813  0.16907  0.00017  Biso   1.000  C
  C521     1.0000 0.32873  0.16437  0.92327  Biso   1.000  C
  C522     1.0000 0.32693  0.16347  0.88057  Biso   1.000  C
  U13      1.0000 0.19014  0.38028  0.47443  Biso   1.000  U
  U14      1.0000 0.85681  0.71361  0.80776  Biso   1.000  U
  U15      1.0000 0.52347  0.04695  0.14110  Biso   1.000  U
  U16      1.0000 0.61972  0.80986  0.47443  Biso   1.000  U
  U17      1.0000 0.28639  0.14319  0.80776  Biso   1.000  U
  U18      1.0000 0.95305  0.47653  0.14110  Biso   1.000  U
  U19      1.0000 0.19014  0.80986  0.47443  Biso   1.000  U
  U20      1.0000 0.85681  0.14319  0.80776  Biso   1.000  U
  U21      1.0000 0.52347  0.47653  0.14110  Biso   1.000  U
  U22      1.0000 0.66667  0.33333  0.40149  Biso   1.000  U
  U23      1.0000 0.33333  0.66667  0.73482  Biso   1.000  U
  U24      1.0000 0.00000  0.00000  0.06816  Biso   1.000  U
