data_VEHXEN_clean
_audit_creation_date              2014-07-02
_audit_creation_method            'Materials Studio'
_symmetry_space_group_name_H-M    'P1'
_symmetry_Int_Tables_number       1
_symmetry_cell_setting            triclinic
loop_
_symmetry_equiv_pos_as_xyz
  x,y,z
_cell_length_a                    19.3474
_cell_length_b                    43.6051
_cell_length_c                    43.6051
_cell_angle_alpha                 90.0000
_cell_angle_beta                  90.0000
_cell_angle_gamma                 90.0000
loop_
_atom_site_label
_atom_site_type_symbol
_atom_site_fract_x
_atom_site_fract_y
_atom_site_fract_z
_atom_site_U_iso_or_equiv
_atom_site_adp_type
_atom_site_occupancy
Pr1    Pr    0.78697   0.47303   0.87578   0.01267  Uiso   1.00
Pr2    Pr    0.77837   0.45455   0.76615   0.01267  Uiso   1.00
Pr3    Pr    0.63558   0.39537   0.83636   0.01267  Uiso   1.00
Pr4    Pr    0.58426   0.50062   0.81754   0.01267  Uiso   1.00
Pr5    Pr    0.16054   0.73740   0.69689   0.01267  Uiso   1.00
Pr6    Pr    0.78697   0.02697   0.62422   0.01267  Uiso   1.00
Pr7    Pr    0.77837   0.04545   0.73385   0.01267  Uiso   1.00
Pr8    Pr    0.63558   0.10463   0.66364   0.01267  Uiso   1.00
Pr9    Pr    0.58426   0.99938   0.68246   0.01267  Uiso   1.00
Pr10   Pr    0.16054   0.76260   0.80311   0.01267  Uiso   1.00
Pr11   Pr    0.28697   0.12422   0.97303   0.01267  Uiso   1.00
Pr12   Pr    0.27837   0.23385   0.95455   0.01267  Uiso   1.00
Pr13   Pr    0.13558   0.16364   0.89537   0.01267  Uiso   1.00
Pr14   Pr    0.08426   0.18246   0.00062   0.01267  Uiso   1.00
Pr15   Pr    0.66054   0.30311   0.23740   0.01267  Uiso   1.00
Pr16   Pr    0.28697   0.37578   0.52697   0.01267  Uiso   1.00
Pr17   Pr    0.27837   0.26615   0.54545   0.01267  Uiso   1.00
Pr18   Pr    0.13558   0.33636   0.60463   0.01267  Uiso   1.00
Pr19   Pr    0.08426   0.31754   0.49938   0.01267  Uiso   1.00
Pr20   Pr    0.66054   0.19689   0.26260   0.01267  Uiso   1.00
Pr21   Pr    0.21303   0.52697   0.12422   0.01267  Uiso   1.00
Pr22   Pr    0.22163   0.54545   0.23385   0.01267  Uiso   1.00
Pr23   Pr    0.36442   0.60463   0.16364   0.01267  Uiso   1.00
Pr24   Pr    0.41574   0.49938   0.18246   0.01267  Uiso   1.00
Pr25   Pr    0.83946   0.26260   0.30311   0.01267  Uiso   1.00
Pr26   Pr    0.21303   0.97303   0.37578   0.01267  Uiso   1.00
Pr27   Pr    0.22163   0.95455   0.26615   0.01267  Uiso   1.00
Pr28   Pr    0.36442   0.89537   0.33636   0.01267  Uiso   1.00
Pr29   Pr    0.41574   0.00062   0.31754   0.01267  Uiso   1.00
Pr30   Pr    0.83946   0.23740   0.19689   0.01267  Uiso   1.00
Pr31   Pr    0.71303   0.87578   0.02697   0.01267  Uiso   1.00
Pr32   Pr    0.72163   0.76615   0.04545   0.01267  Uiso   1.00
Pr33   Pr    0.86442   0.83636   0.10463   0.01267  Uiso   1.00
Pr34   Pr    0.91574   0.81754   0.99938   0.01267  Uiso   1.00
Pr35   Pr    0.33946   0.69689   0.76260   0.01267  Uiso   1.00
Pr36   Pr    0.71303   0.62422   0.47303   0.01267  Uiso   1.00
Pr37   Pr    0.72163   0.73385   0.45455   0.01267  Uiso   1.00
Pr38   Pr    0.86442   0.66364   0.39537   0.01267  Uiso   1.00
Pr39   Pr    0.91574   0.68246   0.50062   0.01267  Uiso   1.00
Pr40   Pr    0.33946   0.80311   0.73740   0.01267  Uiso   1.00
Sb1    Sb    0.65787   0.42518   0.91535   0.01267  Uiso   1.00
Sb2    Sb    0.61704   0.50555   0.90196   0.01267  Uiso   1.00
Sb3    Sb    0.72430   0.54877   0.84861   0.01267  Uiso   1.00
Sb4    Sb    0.87091   0.51312   0.81131   0.01267  Uiso   1.00
Sb5    Sb    0.91022   0.43342   0.82472   0.01267  Uiso   1.00
Sb6    Sb    0.80388   0.38847   0.87674   0.01267  Uiso   1.00
Sb7    Sb    0.50495   0.44605   0.87254   0.01267  Uiso   1.00
Sb8    Sb    0.71779   0.53420   0.76693   0.01267  Uiso   1.00
Sb9    Sb    0.79710   0.37484   0.79521   0.01267  Uiso   1.00
Sb10   Sb    0.60571   0.47397   0.73787   0.01267  Uiso   1.00
Sb11   Sb    0.64252   0.39390   0.75168   0.01267  Uiso   1.00
Sb12   Sb    0.49669   0.43116   0.79059   0.01267  Uiso   1.00
Sb13   Sb    0.18496   0.65802   0.72994   0.01267  Uiso   1.00
Sb14   Sb    0.18323   0.67940   0.81039   0.01267  Uiso   1.00
Sb15   Sb    0.05117   0.70949   0.75852   0.01267  Uiso   1.00
Sb16   Sb    0.65787   0.07482   0.58465   0.01267  Uiso   1.00
Sb17   Sb    0.61704   0.99445   0.59804   0.01267  Uiso   1.00
Sb18   Sb    0.72430   0.95123   0.65139   0.01267  Uiso   1.00
Sb19   Sb    0.87091   0.98688   0.68869   0.01267  Uiso   1.00
Sb20   Sb    0.91022   0.06658   0.67528   0.01267  Uiso   1.00
Sb21   Sb    0.80388   0.11153   0.62326   0.01267  Uiso   1.00
Sb22   Sb    0.50495   0.05395   0.62746   0.01267  Uiso   1.00
Sb23   Sb    0.71779   0.96580   0.73307   0.01267  Uiso   1.00
Sb24   Sb    0.79710   0.12516   0.70479   0.01267  Uiso   1.00
Sb25   Sb    0.60571   0.02603   0.76213   0.01267  Uiso   1.00
Sb26   Sb    0.64252   0.10610   0.74832   0.01267  Uiso   1.00
Sb27   Sb    0.49669   0.06884   0.70941   0.01267  Uiso   1.00
Sb28   Sb    0.18496   0.84198   0.77006   0.01267  Uiso   1.00
Sb29   Sb    0.18323   0.82060   0.68961   0.01267  Uiso   1.00
Sb30   Sb    0.05117   0.79051   0.74148   0.01267  Uiso   1.00
Sb31   Sb    0.15787   0.08465   0.92518   0.01267  Uiso   1.00
Sb32   Sb    0.11704   0.09804   0.00555   0.01267  Uiso   1.00
Sb33   Sb    0.22430   0.15139   0.04877   0.01267  Uiso   1.00
Sb34   Sb    0.37091   0.18869   0.01312   0.01267  Uiso   1.00
Sb35   Sb    0.41022   0.17528   0.93342   0.01267  Uiso   1.00
Sb36   Sb    0.30388   0.12326   0.88847   0.01267  Uiso   1.00
Sb37   Sb    0.00495   0.12746   0.94605   0.01267  Uiso   1.00
Sb38   Sb    0.21779   0.23307   0.03420   0.01267  Uiso   1.00
Sb39   Sb    0.29710   0.20479   0.87484   0.01267  Uiso   1.00
Sb40   Sb    0.10571   0.26213   0.97397   0.01267  Uiso   1.00
Sb41   Sb    0.14252   0.24832   0.89390   0.01267  Uiso   1.00
Sb42   Sb    0.99669   0.20941   0.93116   0.01267  Uiso   1.00
Sb43   Sb    0.68496   0.27006   0.15802   0.01267  Uiso   1.00
Sb44   Sb    0.68323   0.18961   0.17940   0.01267  Uiso   1.00
Sb45   Sb    0.55117   0.24148   0.20949   0.01267  Uiso   1.00
Sb46   Sb    0.15787   0.41535   0.57482   0.01267  Uiso   1.00
Sb47   Sb    0.11704   0.40196   0.49445   0.01267  Uiso   1.00
Sb48   Sb    0.22430   0.34861   0.45123   0.01267  Uiso   1.00
Sb49   Sb    0.37091   0.31131   0.48688   0.01267  Uiso   1.00
Sb50   Sb    0.41022   0.32472   0.56658   0.01267  Uiso   1.00
Sb51   Sb    0.30388   0.37674   0.61153   0.01267  Uiso   1.00
Sb52   Sb    0.00495   0.37254   0.55395   0.01267  Uiso   1.00
Sb53   Sb    0.21779   0.26693   0.46580   0.01267  Uiso   1.00
Sb54   Sb    0.29710   0.29521   0.62516   0.01267  Uiso   1.00
Sb55   Sb    0.10571   0.23787   0.52603   0.01267  Uiso   1.00
Sb56   Sb    0.14252   0.25168   0.60610   0.01267  Uiso   1.00
Sb57   Sb    0.99669   0.29059   0.56884   0.01267  Uiso   1.00
Sb58   Sb    0.68496   0.22994   0.34198   0.01267  Uiso   1.00
Sb59   Sb    0.68323   0.31039   0.32060   0.01267  Uiso   1.00
Sb60   Sb    0.55117   0.25852   0.29051   0.01267  Uiso   1.00
Sb61   Sb    0.34213   0.57482   0.08465   0.01267  Uiso   1.00
Sb62   Sb    0.38296   0.49445   0.09804   0.01267  Uiso   1.00
Sb63   Sb    0.27570   0.45123   0.15139   0.01267  Uiso   1.00
Sb64   Sb    0.12909   0.48688   0.18869   0.01267  Uiso   1.00
Sb65   Sb    0.08978   0.56658   0.17528   0.01267  Uiso   1.00
Sb66   Sb    0.19612   0.61153   0.12326   0.01267  Uiso   1.00
Sb67   Sb    0.49505   0.55395   0.12746   0.01267  Uiso   1.00
Sb68   Sb    0.28221   0.46580   0.23307   0.01267  Uiso   1.00
Sb69   Sb    0.20290   0.62516   0.20479   0.01267  Uiso   1.00
Sb70   Sb    0.39429   0.52603   0.26213   0.01267  Uiso   1.00
Sb71   Sb    0.35748   0.60610   0.24832   0.01267  Uiso   1.00
Sb72   Sb    0.50331   0.56884   0.20941   0.01267  Uiso   1.00
Sb73   Sb    0.81504   0.34198   0.27006   0.01267  Uiso   1.00
Sb74   Sb    0.81677   0.32060   0.18961   0.01267  Uiso   1.00
Sb75   Sb    0.94883   0.29051   0.24148   0.01267  Uiso   1.00
Sb76   Sb    0.34213   0.92518   0.41535   0.01267  Uiso   1.00
Sb77   Sb    0.38296   0.00555   0.40196   0.01267  Uiso   1.00
Sb78   Sb    0.27570   0.04877   0.34861   0.01267  Uiso   1.00
Sb79   Sb    0.12909   0.01312   0.31131   0.01267  Uiso   1.00
Sb80   Sb    0.08978   0.93342   0.32472   0.01267  Uiso   1.00
Sb81   Sb    0.19612   0.88847   0.37674   0.01267  Uiso   1.00
Sb82   Sb    0.49505   0.94605   0.37254   0.01267  Uiso   1.00
Sb83   Sb    0.28221   0.03420   0.26693   0.01267  Uiso   1.00
Sb84   Sb    0.20290   0.87484   0.29521   0.01267  Uiso   1.00
Sb85   Sb    0.39429   0.97397   0.23787   0.01267  Uiso   1.00
Sb86   Sb    0.35748   0.89390   0.25168   0.01267  Uiso   1.00
Sb87   Sb    0.50331   0.93116   0.29059   0.01267  Uiso   1.00
Sb88   Sb    0.81504   0.15802   0.22994   0.01267  Uiso   1.00
Sb89   Sb    0.81677   0.17940   0.31039   0.01267  Uiso   1.00
Sb90   Sb    0.94883   0.20949   0.25852   0.01267  Uiso   1.00
Sb91   Sb    0.84213   0.91535   0.07482   0.01267  Uiso   1.00
Sb92   Sb    0.88296   0.90196   0.99445   0.01267  Uiso   1.00
Sb93   Sb    0.77570   0.84861   0.95123   0.01267  Uiso   1.00
Sb94   Sb    0.62909   0.81131   0.98688   0.01267  Uiso   1.00
Sb95   Sb    0.58978   0.82472   0.06658   0.01267  Uiso   1.00
Sb96   Sb    0.69612   0.87674   0.11153   0.01267  Uiso   1.00
Sb97   Sb    0.99505   0.87254   0.05395   0.01267  Uiso   1.00
Sb98   Sb    0.78221   0.76693   0.96580   0.01267  Uiso   1.00
Sb99   Sb    0.70290   0.79521   0.12516   0.01267  Uiso   1.00
Sb100  Sb    0.89429   0.73787   0.02603   0.01267  Uiso   1.00
Sb101  Sb    0.85748   0.75168   0.10610   0.01267  Uiso   1.00
Sb102  Sb    0.00331   0.79059   0.06884   0.01267  Uiso   1.00
Sb103  Sb    0.31504   0.72994   0.84198   0.01267  Uiso   1.00
Sb104  Sb    0.31677   0.81039   0.82060   0.01267  Uiso   1.00
Sb105  Sb    0.44883   0.75852   0.79051   0.01267  Uiso   1.00
Sb106  Sb    0.84213   0.58465   0.42518   0.01267  Uiso   1.00
Sb107  Sb    0.88296   0.59804   0.50555   0.01267  Uiso   1.00
Sb108  Sb    0.77570   0.65139   0.54877   0.01267  Uiso   1.00
Sb109  Sb    0.62909   0.68869   0.51312   0.01267  Uiso   1.00
Sb110  Sb    0.58978   0.67528   0.43342   0.01267  Uiso   1.00
Sb111  Sb    0.69612   0.62326   0.38847   0.01267  Uiso   1.00
Sb112  Sb    0.99505   0.62746   0.44605   0.01267  Uiso   1.00
Sb113  Sb    0.78221   0.73307   0.53420   0.01267  Uiso   1.00
Sb114  Sb    0.70290   0.70479   0.37484   0.01267  Uiso   1.00
Sb115  Sb    0.89429   0.76213   0.47397   0.01267  Uiso   1.00
Sb116  Sb    0.85748   0.74832   0.39390   0.01267  Uiso   1.00
Sb117  Sb    0.00331   0.70941   0.43116   0.01267  Uiso   1.00
Sb118  Sb    0.31504   0.77006   0.65802   0.01267  Uiso   1.00
Sb119  Sb    0.31677   0.68961   0.67940   0.01267  Uiso   1.00
Sb120  Sb    0.44883   0.74148   0.70949   0.01267  Uiso   1.00
H1     H     0.42850   0.53030   0.75620   0.01267  Uiso   1.00
H2     H     0.33570   0.56130   0.74230   0.01267  Uiso   1.00
H3     H     0.46330   0.60070   0.90470   0.01267  Uiso   1.00
H4     H     0.37830   0.63850   0.88850   0.01267  Uiso   1.00
H5     H     0.01140   0.39140   0.66540   0.01267  Uiso   1.00
H6     H     0.94000   0.41400   0.70530   0.01267  Uiso   1.00
H7     H     0.42850   0.96970   0.74380   0.01267  Uiso   1.00
H8     H     0.33570   0.93870   0.75770   0.01267  Uiso   1.00
H9     H     0.46330   0.89930   0.59530   0.01267  Uiso   1.00
H10    H     0.37830   0.86150   0.61150   0.01267  Uiso   1.00
H11    H     0.01140   0.10860   0.83460   0.01267  Uiso   1.00
H12    H     0.94000   0.08600   0.79470   0.01267  Uiso   1.00
H13    H     0.92850   0.24380   0.03030   0.01267  Uiso   1.00
H14    H     0.83570   0.25770   0.06130   0.01267  Uiso   1.00
H15    H     0.96330   0.09530   0.10070   0.01267  Uiso   1.00
H16    H     0.87830   0.11150   0.13850   0.01267  Uiso   1.00
H17    H     0.51140   0.33460   0.89140   0.01267  Uiso   1.00
H18    H     0.44000   0.29470   0.91400   0.01267  Uiso   1.00
H19    H     0.92850   0.25620   0.46970   0.01267  Uiso   1.00
H20    H     0.83570   0.24230   0.43870   0.01267  Uiso   1.00
H21    H     0.96330   0.40470   0.39930   0.01267  Uiso   1.00
H22    H     0.87830   0.38850   0.36150   0.01267  Uiso   1.00
H23    H     0.51140   0.16540   0.60860   0.01267  Uiso   1.00
H24    H     0.44000   0.20530   0.58600   0.01267  Uiso   1.00
H25    H     0.57150   0.46970   0.24380   0.01267  Uiso   1.00
H26    H     0.66430   0.43870   0.25770   0.01267  Uiso   1.00
H27    H     0.53670   0.39930   0.09530   0.01267  Uiso   1.00
H28    H     0.62170   0.36150   0.11150   0.01267  Uiso   1.00
H29    H     0.98860   0.60860   0.33460   0.01267  Uiso   1.00
H30    H     0.06000   0.58600   0.29470   0.01267  Uiso   1.00
H31    H     0.57150   0.03030   0.25620   0.01267  Uiso   1.00
H32    H     0.66430   0.06130   0.24230   0.01267  Uiso   1.00
H33    H     0.53670   0.10070   0.40470   0.01267  Uiso   1.00
H34    H     0.62170   0.13850   0.38850   0.01267  Uiso   1.00
H35    H     0.98860   0.89140   0.16540   0.01267  Uiso   1.00
H36    H     0.06000   0.91400   0.20530   0.01267  Uiso   1.00
H37    H     0.07150   0.75620   0.96970   0.01267  Uiso   1.00
H38    H     0.16430   0.74230   0.93870   0.01267  Uiso   1.00
H39    H     0.03670   0.90470   0.89930   0.01267  Uiso   1.00
H40    H     0.12170   0.88850   0.86150   0.01267  Uiso   1.00
H41    H     0.48860   0.66540   0.10860   0.01267  Uiso   1.00
H42    H     0.56000   0.70530   0.08600   0.01267  Uiso   1.00
H43    H     0.07150   0.74380   0.53030   0.01267  Uiso   1.00
H44    H     0.16430   0.75770   0.56130   0.01267  Uiso   1.00
H45    H     0.03670   0.59530   0.60070   0.01267  Uiso   1.00
H46    H     0.12170   0.61150   0.63850   0.01267  Uiso   1.00
H47    H     0.48860   0.83460   0.39140   0.01267  Uiso   1.00
H48    H     0.56000   0.79470   0.41400   0.01267  Uiso   1.00
C1     C     0.55660   0.55660   0.75990   0.01267  Uiso   1.00
C2     C     0.49010   0.56840   0.75330   0.01267  Uiso   1.00
C3     C     0.43150   0.55120   0.75220   0.01267  Uiso   1.00
C4     C     0.37970   0.56950   0.74460   0.01267  Uiso   1.00
C5     C     0.38940   0.60060   0.73990   0.01267  Uiso   1.00
C6     C     0.34350   0.62450   0.73250   0.01267  Uiso   1.00
C7     C     0.52910   0.56170   0.85970   0.01267  Uiso   1.00
C8     C     0.47650   0.58730   0.85920   0.01267  Uiso   1.00
C9     C     0.45040   0.60400   0.88440   0.01267  Uiso   1.00
C10    C     0.40230   0.62610   0.87480   0.01267  Uiso   1.00
C11    C     0.39350   0.62790   0.84430   0.01267  Uiso   1.00
C12    C     0.35070   0.65020   0.82820   0.01267  Uiso   1.00
C13    C     0.96150   0.34730   0.62620   0.01267  Uiso   1.00
C14    C     0.93290   0.36440   0.65180   0.01267  Uiso   1.00
C15    C     0.96570   0.38570   0.66880   0.01267  Uiso   1.00
C16    C     0.92470   0.39870   0.69210   0.01267  Uiso   1.00
C17    C     0.86050   0.38640   0.69330   0.01267  Uiso   1.00
C18    C     0.80460   0.39370   0.71560   0.01267  Uiso   1.00
C19    C     0.55660   0.94340   0.74010   0.01267  Uiso   1.00
C20    C     0.49010   0.93160   0.74670   0.01267  Uiso   1.00
C21    C     0.43150   0.94880   0.74780   0.01267  Uiso   1.00
C22    C     0.37970   0.93050   0.75540   0.01267  Uiso   1.00
C23    C     0.38940   0.89940   0.76010   0.01267  Uiso   1.00
C24    C     0.34350   0.87550   0.76750   0.01267  Uiso   1.00
C25    C     0.52910   0.93830   0.64030   0.01267  Uiso   1.00
C26    C     0.47650   0.91270   0.64080   0.01267  Uiso   1.00
C27    C     0.45040   0.89600   0.61560   0.01267  Uiso   1.00
C28    C     0.40230   0.87390   0.62520   0.01267  Uiso   1.00
C29    C     0.39350   0.87210   0.65570   0.01267  Uiso   1.00
C30    C     0.35070   0.84980   0.67180   0.01267  Uiso   1.00
C31    C     0.96150   0.15270   0.87380   0.01267  Uiso   1.00
C32    C     0.93290   0.13560   0.84820   0.01267  Uiso   1.00
C33    C     0.96570   0.11430   0.83120   0.01267  Uiso   1.00
C34    C     0.92470   0.10130   0.80790   0.01267  Uiso   1.00
C35    C     0.86050   0.11360   0.80670   0.01267  Uiso   1.00
C36    C     0.80460   0.10630   0.78440   0.01267  Uiso   1.00
C37    C     0.05660   0.24010   0.05660   0.01267  Uiso   1.00
C38    C     0.99010   0.24670   0.06840   0.01267  Uiso   1.00
C39    C     0.93150   0.24780   0.05120   0.01267  Uiso   1.00
C40    C     0.87970   0.25540   0.06950   0.01267  Uiso   1.00
C41    C     0.88940   0.26010   0.10060   0.01267  Uiso   1.00
C42    C     0.84350   0.26750   0.12450   0.01267  Uiso   1.00
C43    C     0.02910   0.14030   0.06170   0.01267  Uiso   1.00
C44    C     0.97650   0.14080   0.08730   0.01267  Uiso   1.00
C45    C     0.95040   0.11560   0.10400   0.01267  Uiso   1.00
C46    C     0.90230   0.12520   0.12610   0.01267  Uiso   1.00
C47    C     0.89350   0.15570   0.12790   0.01267  Uiso   1.00
C48    C     0.85070   0.17180   0.15020   0.01267  Uiso   1.00
C49    C     0.46150   0.37380   0.84730   0.01267  Uiso   1.00
C50    C     0.43290   0.34820   0.86440   0.01267  Uiso   1.00
C51    C     0.46570   0.33120   0.88570   0.01267  Uiso   1.00
C52    C     0.42470   0.30790   0.89870   0.01267  Uiso   1.00
C53    C     0.36050   0.30670   0.88640   0.01267  Uiso   1.00
C54    C     0.30460   0.28440   0.89370   0.01267  Uiso   1.00
C55    C     0.05660   0.25990   0.44340   0.01267  Uiso   1.00
C56    C     0.99010   0.25330   0.43160   0.01267  Uiso   1.00
C57    C     0.93150   0.25220   0.44880   0.01267  Uiso   1.00
C58    C     0.87970   0.24460   0.43050   0.01267  Uiso   1.00
C59    C     0.88940   0.23990   0.39940   0.01267  Uiso   1.00
C60    C     0.84350   0.23250   0.37550   0.01267  Uiso   1.00
C61    C     0.02910   0.35970   0.43830   0.01267  Uiso   1.00
C62    C     0.97650   0.35920   0.41270   0.01267  Uiso   1.00
C63    C     0.95040   0.38440   0.39600   0.01267  Uiso   1.00
C64    C     0.90230   0.37480   0.37390   0.01267  Uiso   1.00
C65    C     0.89350   0.34430   0.37210   0.01267  Uiso   1.00
C66    C     0.85070   0.32820   0.34980   0.01267  Uiso   1.00
C67    C     0.46150   0.12620   0.65270   0.01267  Uiso   1.00
C68    C     0.43290   0.15180   0.63560   0.01267  Uiso   1.00
C69    C     0.46570   0.16880   0.61430   0.01267  Uiso   1.00
C70    C     0.42470   0.19210   0.60130   0.01267  Uiso   1.00
C71    C     0.36050   0.19330   0.61360   0.01267  Uiso   1.00
C72    C     0.30460   0.21560   0.60630   0.01267  Uiso   1.00
C73    C     0.44340   0.44340   0.24010   0.01267  Uiso   1.00
C74    C     0.50990   0.43160   0.24670   0.01267  Uiso   1.00
C75    C     0.56850   0.44880   0.24780   0.01267  Uiso   1.00
C76    C     0.62030   0.43050   0.25540   0.01267  Uiso   1.00
C77    C     0.61060   0.39940   0.26010   0.01267  Uiso   1.00
C78    C     0.65650   0.37550   0.26750   0.01267  Uiso   1.00
C79    C     0.47090   0.43830   0.14030   0.01267  Uiso   1.00
C80    C     0.52350   0.41270   0.14080   0.01267  Uiso   1.00
C81    C     0.54960   0.39600   0.11560   0.01267  Uiso   1.00
C82    C     0.59770   0.37390   0.12520   0.01267  Uiso   1.00
C83    C     0.60650   0.37210   0.15570   0.01267  Uiso   1.00
C84    C     0.64930   0.34980   0.17180   0.01267  Uiso   1.00
C85    C     0.03850   0.65270   0.37380   0.01267  Uiso   1.00
C86    C     0.06710   0.63560   0.34820   0.01267  Uiso   1.00
C87    C     0.03430   0.61430   0.33120   0.01267  Uiso   1.00
C88    C     0.07530   0.60130   0.30790   0.01267  Uiso   1.00
C89    C     0.13950   0.61360   0.30670   0.01267  Uiso   1.00
C90    C     0.19540   0.60630   0.28440   0.01267  Uiso   1.00
C91    C     0.44340   0.05660   0.25990   0.01267  Uiso   1.00
C92    C     0.50990   0.06840   0.25330   0.01267  Uiso   1.00
C93    C     0.56850   0.05120   0.25220   0.01267  Uiso   1.00
C94    C     0.62030   0.06950   0.24460   0.01267  Uiso   1.00
C95    C     0.61060   0.10060   0.23990   0.01267  Uiso   1.00
C96    C     0.65650   0.12450   0.23250   0.01267  Uiso   1.00
C97    C     0.47090   0.06170   0.35970   0.01267  Uiso   1.00
C98    C     0.52350   0.08730   0.35920   0.01267  Uiso   1.00
C99    C     0.54960   0.10400   0.38440   0.01267  Uiso   1.00
C100   C     0.59770   0.12610   0.37480   0.01267  Uiso   1.00
C101   C     0.60650   0.12790   0.34430   0.01267  Uiso   1.00
C102   C     0.64930   0.15020   0.32820   0.01267  Uiso   1.00
C103   C     0.03850   0.84730   0.12620   0.01267  Uiso   1.00
C104   C     0.06710   0.86440   0.15180   0.01267  Uiso   1.00
C105   C     0.03430   0.88570   0.16880   0.01267  Uiso   1.00
C106   C     0.07530   0.89870   0.19210   0.01267  Uiso   1.00
C107   C     0.13950   0.88640   0.19330   0.01267  Uiso   1.00
C108   C     0.19540   0.89370   0.21560   0.01267  Uiso   1.00
C109   C     0.94340   0.75990   0.94340   0.01267  Uiso   1.00
C110   C     0.00990   0.75330   0.93160   0.01267  Uiso   1.00
C111   C     0.06850   0.75220   0.94880   0.01267  Uiso   1.00
C112   C     0.12030   0.74460   0.93050   0.01267  Uiso   1.00
C113   C     0.11060   0.73990   0.89940   0.01267  Uiso   1.00
C114   C     0.15650   0.73250   0.87550   0.01267  Uiso   1.00
C115   C     0.97090   0.85970   0.93830   0.01267  Uiso   1.00
C116   C     0.02350   0.85920   0.91270   0.01267  Uiso   1.00
C117   C     0.04960   0.88440   0.89600   0.01267  Uiso   1.00
C118   C     0.09770   0.87480   0.87390   0.01267  Uiso   1.00
C119   C     0.10650   0.84430   0.87210   0.01267  Uiso   1.00
C120   C     0.14930   0.82820   0.84980   0.01267  Uiso   1.00
C121   C     0.53850   0.62620   0.15270   0.01267  Uiso   1.00
C122   C     0.56710   0.65180   0.13560   0.01267  Uiso   1.00
C123   C     0.53430   0.66880   0.11430   0.01267  Uiso   1.00
C124   C     0.57530   0.69210   0.10130   0.01267  Uiso   1.00
C125   C     0.63950   0.69330   0.11360   0.01267  Uiso   1.00
C126   C     0.69540   0.71560   0.10630   0.01267  Uiso   1.00
C127   C     0.94340   0.74010   0.55660   0.01267  Uiso   1.00
C128   C     0.00990   0.74670   0.56840   0.01267  Uiso   1.00
C129   C     0.06850   0.74780   0.55120   0.01267  Uiso   1.00
C130   C     0.12030   0.75540   0.56950   0.01267  Uiso   1.00
C131   C     0.11060   0.76010   0.60060   0.01267  Uiso   1.00
C132   C     0.15650   0.76750   0.62450   0.01267  Uiso   1.00
C133   C     0.97090   0.64030   0.56170   0.01267  Uiso   1.00
C134   C     0.02350   0.64080   0.58730   0.01267  Uiso   1.00
C135   C     0.04960   0.61560   0.60400   0.01267  Uiso   1.00
C136   C     0.09770   0.62520   0.62610   0.01267  Uiso   1.00
C137   C     0.10650   0.65570   0.62790   0.01267  Uiso   1.00
C138   C     0.14930   0.67180   0.65020   0.01267  Uiso   1.00
C139   C     0.53850   0.87380   0.34730   0.01267  Uiso   1.00
C140   C     0.56710   0.84820   0.36440   0.01267  Uiso   1.00
C141   C     0.53430   0.83120   0.38570   0.01267  Uiso   1.00
C142   C     0.57530   0.80790   0.39870   0.01267  Uiso   1.00
C143   C     0.63950   0.80670   0.38640   0.01267  Uiso   1.00
C144   C     0.69540   0.78440   0.39370   0.01267  Uiso   1.00
S1     S     0.84890   0.35956   0.66485   0.01267  Uiso   1.00
S2     S     0.44150   0.60082   0.82582   0.01267  Uiso   1.00
S3     S     0.47510   0.60577   0.74470   0.01267  Uiso   1.00
S4     S     0.84890   0.14044   0.83515   0.01267  Uiso   1.00
S5     S     0.44150   0.89918   0.67418   0.01267  Uiso   1.00
S6     S     0.47510   0.89423   0.75530   0.01267  Uiso   1.00
S7     S     0.34890   0.33515   0.85956   0.01267  Uiso   1.00
S8     S     0.94150   0.17418   0.10082   0.01267  Uiso   1.00
S9     S     0.97510   0.25530   0.10577   0.01267  Uiso   1.00
S10    S     0.34890   0.16485   0.64044   0.01267  Uiso   1.00
S11    S     0.94150   0.32582   0.39918   0.01267  Uiso   1.00
S12    S     0.97510   0.24470   0.39423   0.01267  Uiso   1.00
S13    S     0.15110   0.64044   0.33515   0.01267  Uiso   1.00
S14    S     0.55850   0.39918   0.17418   0.01267  Uiso   1.00
S15    S     0.52490   0.39423   0.25530   0.01267  Uiso   1.00
S16    S     0.15110   0.85956   0.16485   0.01267  Uiso   1.00
S17    S     0.55850   0.10082   0.32582   0.01267  Uiso   1.00
S18    S     0.52490   0.10577   0.24470   0.01267  Uiso   1.00
S19    S     0.65110   0.66485   0.14044   0.01267  Uiso   1.00
S20    S     0.05850   0.82582   0.89918   0.01267  Uiso   1.00
S21    S     0.02490   0.74470   0.89423   0.01267  Uiso   1.00
S22    S     0.65110   0.83515   0.35956   0.01267  Uiso   1.00
S23    S     0.05850   0.67418   0.60082   0.01267  Uiso   1.00
S24    S     0.02490   0.75530   0.60577   0.01267  Uiso   1.00
Cl1    Cl    0.69590   0.45570   0.82490   0.01267  Uiso   1.00
Cl2    Cl    0.93200   0.48910   0.87733   0.01267  Uiso   1.00
Cl3    Cl    0.82060   0.44175   0.93208   0.01267  Uiso   1.00
Cl4    Cl    0.77180   0.52798   0.91515   0.01267  Uiso   1.00
Cl5    Cl    0.93080   0.47015   0.76217   0.01267  Uiso   1.00
Cl6    Cl    0.76130   0.48767   0.70872   0.01267  Uiso   1.00
Cl7    Cl    0.64900   0.33930   0.80004   0.01267  Uiso   1.00
Cl8    Cl    0.66370   0.35446   0.89013   0.01267  Uiso   1.00
Cl9    Cl    0.43050   0.48913   0.82093   0.01267  Uiso   1.00
Cl10   Cl    0.00300   0.73514   0.69686   0.01267  Uiso   1.00
Cl11   Cl    0.69590   0.04430   0.67510   0.01267  Uiso   1.00
Cl12   Cl    0.93200   0.01090   0.62267   0.01267  Uiso   1.00
Cl13   Cl    0.82060   0.05825   0.56792   0.01267  Uiso   1.00
Cl14   Cl    0.77180   0.97202   0.58485   0.01267  Uiso   1.00
Cl15   Cl    0.93080   0.02985   0.73783   0.01267  Uiso   1.00
Cl16   Cl    0.76130   0.01233   0.79128   0.01267  Uiso   1.00
Cl17   Cl    0.64900   0.16070   0.69996   0.01267  Uiso   1.00
Cl18   Cl    0.66370   0.14554   0.60987   0.01267  Uiso   1.00
Cl19   Cl    0.43050   0.01087   0.67907   0.01267  Uiso   1.00
Cl20   Cl    0.00300   0.76486   0.80314   0.01267  Uiso   1.00
Cl21   Cl    0.19590   0.17510   0.95570   0.01267  Uiso   1.00
Cl22   Cl    0.43200   0.12267   0.98910   0.01267  Uiso   1.00
Cl23   Cl    0.32060   0.06792   0.94175   0.01267  Uiso   1.00
Cl24   Cl    0.27180   0.08485   0.02798   0.01267  Uiso   1.00
Cl25   Cl    0.43080   0.23783   0.97015   0.01267  Uiso   1.00
Cl26   Cl    0.26130   0.29128   0.98767   0.01267  Uiso   1.00
Cl27   Cl    0.14900   0.19996   0.83930   0.01267  Uiso   1.00
Cl28   Cl    0.16370   0.10987   0.85446   0.01267  Uiso   1.00
Cl29   Cl    0.93050   0.17907   0.98913   0.01267  Uiso   1.00
Cl30   Cl    0.50300   0.30314   0.23514   0.01267  Uiso   1.00
Cl31   Cl    0.19590   0.32490   0.54430   0.01267  Uiso   1.00
Cl32   Cl    0.43200   0.37733   0.51090   0.01267  Uiso   1.00
Cl33   Cl    0.32060   0.43208   0.55825   0.01267  Uiso   1.00
Cl34   Cl    0.27180   0.41515   0.47202   0.01267  Uiso   1.00
Cl35   Cl    0.43080   0.26217   0.52985   0.01267  Uiso   1.00
Cl36   Cl    0.26130   0.20872   0.51233   0.01267  Uiso   1.00
Cl37   Cl    0.14900   0.30004   0.66070   0.01267  Uiso   1.00
Cl38   Cl    0.16370   0.39013   0.64554   0.01267  Uiso   1.00
Cl39   Cl    0.93050   0.32093   0.51087   0.01267  Uiso   1.00
Cl40   Cl    0.50300   0.19686   0.26486   0.01267  Uiso   1.00
Cl41   Cl    0.30410   0.54430   0.17510   0.01267  Uiso   1.00
Cl42   Cl    0.06800   0.51090   0.12267   0.01267  Uiso   1.00
Cl43   Cl    0.17940   0.55825   0.06792   0.01267  Uiso   1.00
Cl44   Cl    0.22820   0.47202   0.08485   0.01267  Uiso   1.00
Cl45   Cl    0.06920   0.52985   0.23783   0.01267  Uiso   1.00
Cl46   Cl    0.23870   0.51233   0.29128   0.01267  Uiso   1.00
Cl47   Cl    0.35100   0.66070   0.19996   0.01267  Uiso   1.00
Cl48   Cl    0.33630   0.64554   0.10987   0.01267  Uiso   1.00
Cl49   Cl    0.56950   0.51087   0.17907   0.01267  Uiso   1.00
Cl50   Cl    0.99700   0.26486   0.30314   0.01267  Uiso   1.00
Cl51   Cl    0.30410   0.95570   0.32490   0.01267  Uiso   1.00
Cl52   Cl    0.06800   0.98910   0.37733   0.01267  Uiso   1.00
Cl53   Cl    0.17940   0.94175   0.43208   0.01267  Uiso   1.00
Cl54   Cl    0.22820   0.02798   0.41515   0.01267  Uiso   1.00
Cl55   Cl    0.06920   0.97015   0.26217   0.01267  Uiso   1.00
Cl56   Cl    0.23870   0.98767   0.20872   0.01267  Uiso   1.00
Cl57   Cl    0.35100   0.83930   0.30004   0.01267  Uiso   1.00
Cl58   Cl    0.33630   0.85446   0.39013   0.01267  Uiso   1.00
Cl59   Cl    0.56950   0.98913   0.32093   0.01267  Uiso   1.00
Cl60   Cl    0.99700   0.23514   0.19686   0.01267  Uiso   1.00
Cl61   Cl    0.80410   0.82490   0.04430   0.01267  Uiso   1.00
Cl62   Cl    0.56800   0.87733   0.01090   0.01267  Uiso   1.00
Cl63   Cl    0.67940   0.93208   0.05825   0.01267  Uiso   1.00
Cl64   Cl    0.72820   0.91515   0.97202   0.01267  Uiso   1.00
Cl65   Cl    0.56920   0.76217   0.02985   0.01267  Uiso   1.00
Cl66   Cl    0.73870   0.70872   0.01233   0.01267  Uiso   1.00
Cl67   Cl    0.85100   0.80004   0.16070   0.01267  Uiso   1.00
Cl68   Cl    0.83630   0.89013   0.14554   0.01267  Uiso   1.00
Cl69   Cl    0.06950   0.82093   0.01087   0.01267  Uiso   1.00
Cl70   Cl    0.49700   0.69686   0.76486   0.01267  Uiso   1.00
Cl71   Cl    0.80410   0.67510   0.45570   0.01267  Uiso   1.00
Cl72   Cl    0.56800   0.62267   0.48910   0.01267  Uiso   1.00
Cl73   Cl    0.67940   0.56792   0.44175   0.01267  Uiso   1.00
Cl74   Cl    0.72820   0.58485   0.52798   0.01267  Uiso   1.00
Cl75   Cl    0.56920   0.73783   0.47015   0.01267  Uiso   1.00
Cl76   Cl    0.73870   0.79128   0.48767   0.01267  Uiso   1.00
Cl77   Cl    0.85100   0.69996   0.33930   0.01267  Uiso   1.00
Cl78   Cl    0.83630   0.60987   0.35446   0.01267  Uiso   1.00
Cl79   Cl    0.06950   0.67907   0.48913   0.01267  Uiso   1.00
Cl80   Cl    0.49700   0.80314   0.73514   0.01267  Uiso   1.00
Cl81   Cl    0.25000   0.75000   0.75000   0.01267  Uiso   1.00
Cl82   Cl    0.75000   0.25000   0.25000   0.01267  Uiso   1.00
O1     O     0.66870   0.51340   0.86300   0.01267  Uiso   1.00
O2     O     0.80190   0.52030   0.84440   0.01267  Uiso   1.00
O3     O     0.84810   0.46970   0.82080   0.01267  Uiso   1.00
O4     O     0.85170   0.42610   0.86190   0.01267  Uiso   1.00
O5     O     0.72540   0.41780   0.88150   0.01267  Uiso   1.00
O6     O     0.67880   0.46840   0.90510   0.01267  Uiso   1.00
O7     O     0.55260   0.48560   0.87180   0.01267  Uiso   1.00
O8     O     0.68220   0.53690   0.80930   0.01267  Uiso   1.00
O9     O     0.80050   0.50910   0.77940   0.01267  Uiso   1.00
O10    O     0.84510   0.41500   0.79530   0.01267  Uiso   1.00
O11    O     0.75840   0.37920   0.83700   0.01267  Uiso   1.00
O12    O     0.58740   0.42120   0.88300   0.01267  Uiso   1.00
O13    O     0.54310   0.44080   0.83010   0.01267  Uiso   1.00
O14    O     0.67270   0.49290   0.76780   0.01267  Uiso   1.00
O15    O     0.71640   0.40020   0.78240   0.01267  Uiso   1.00
O16    O     0.57830   0.40350   0.78610   0.01267  Uiso   1.00
O17    O     0.55040   0.46700   0.77530   0.01267  Uiso   1.00
O18    O     0.66440   0.43710   0.74200   0.01267  Uiso   1.00
O19    O     0.25030   0.68900   0.71410   0.01267  Uiso   1.00
O20    O     0.11870   0.69400   0.72840   0.01267  Uiso   1.00
O21    O     0.11830   0.71010   0.79320   0.01267  Uiso   1.00
O22    O     0.22670   0.66950   0.77080   0.01267  Uiso   1.00
O23    O     0.56050   0.53030   0.76820   0.01267  Uiso   1.00
O24    O     0.60780   0.57440   0.75680   0.01267  Uiso   1.00
O25    O     0.28150   0.61900   0.72670   0.01267  Uiso   1.00
O26    O     0.36330   0.65050   0.73320   0.01267  Uiso   1.00
O27    O     0.55430   0.55580   0.88420   0.01267  Uiso   1.00
O28    O     0.53930   0.54870   0.83460   0.01267  Uiso   1.00
O29    O     0.30440   0.66290   0.84170   0.01267  Uiso   1.00
O30    O     0.36460   0.65690   0.80110   0.01267  Uiso   1.00
O31    O     0.02560   0.34460   0.62580   0.01267  Uiso   1.00
O32    O     0.92170   0.33470   0.60760   0.01267  Uiso   1.00
O33    O     0.81610   0.41780   0.73060   0.01267  Uiso   1.00
O34    O     0.75260   0.37810   0.71680   0.01267  Uiso   1.00
O35    O     0.66870   0.98660   0.63700   0.01267  Uiso   1.00
O36    O     0.80190   0.97970   0.65560   0.01267  Uiso   1.00
O37    O     0.84810   0.03030   0.67920   0.01267  Uiso   1.00
O38    O     0.85170   0.07390   0.63810   0.01267  Uiso   1.00
O39    O     0.72540   0.08220   0.61850   0.01267  Uiso   1.00
O40    O     0.67880   0.03160   0.59490   0.01267  Uiso   1.00
O41    O     0.55260   0.01440   0.62820   0.01267  Uiso   1.00
O42    O     0.68220   0.96310   0.69070   0.01267  Uiso   1.00
O43    O     0.80050   0.99090   0.72060   0.01267  Uiso   1.00
O44    O     0.84510   0.08500   0.70470   0.01267  Uiso   1.00
O45    O     0.75840   0.12080   0.66300   0.01267  Uiso   1.00
O46    O     0.58740   0.07880   0.61700   0.01267  Uiso   1.00
O47    O     0.54310   0.05920   0.66990   0.01267  Uiso   1.00
O48    O     0.67270   0.00710   0.73220   0.01267  Uiso   1.00
O49    O     0.71640   0.09980   0.71760   0.01267  Uiso   1.00
O50    O     0.57830   0.09650   0.71390   0.01267  Uiso   1.00
O51    O     0.55040   0.03300   0.72470   0.01267  Uiso   1.00
O52    O     0.66440   0.06290   0.75800   0.01267  Uiso   1.00
O53    O     0.25030   0.81100   0.78590   0.01267  Uiso   1.00
O54    O     0.11870   0.80600   0.77160   0.01267  Uiso   1.00
O55    O     0.11830   0.78990   0.70680   0.01267  Uiso   1.00
O56    O     0.22670   0.83050   0.72920   0.01267  Uiso   1.00
O57    O     0.56050   0.96970   0.73180   0.01267  Uiso   1.00
O58    O     0.60780   0.92560   0.74320   0.01267  Uiso   1.00
O59    O     0.28150   0.88100   0.77330   0.01267  Uiso   1.00
O60    O     0.36330   0.84950   0.76680   0.01267  Uiso   1.00
O61    O     0.55430   0.94420   0.61580   0.01267  Uiso   1.00
O62    O     0.53930   0.95130   0.66540   0.01267  Uiso   1.00
O63    O     0.30440   0.83710   0.65830   0.01267  Uiso   1.00
O64    O     0.36460   0.84310   0.69890   0.01267  Uiso   1.00
O65    O     0.02560   0.15540   0.87420   0.01267  Uiso   1.00
O66    O     0.92170   0.16530   0.89240   0.01267  Uiso   1.00
O67    O     0.81610   0.08220   0.76940   0.01267  Uiso   1.00
O68    O     0.75260   0.12190   0.78320   0.01267  Uiso   1.00
O69    O     0.16870   0.13700   0.01340   0.01267  Uiso   1.00
O70    O     0.30190   0.15560   0.02030   0.01267  Uiso   1.00
O71    O     0.34810   0.17920   0.96970   0.01267  Uiso   1.00
O72    O     0.35170   0.13810   0.92610   0.01267  Uiso   1.00
O73    O     0.22540   0.11850   0.91780   0.01267  Uiso   1.00
O74    O     0.17880   0.09490   0.96840   0.01267  Uiso   1.00
O75    O     0.05260   0.12820   0.98560   0.01267  Uiso   1.00
O76    O     0.18220   0.19070   0.03690   0.01267  Uiso   1.00
O77    O     0.30050   0.22060   0.00910   0.01267  Uiso   1.00
O78    O     0.34510   0.20470   0.91500   0.01267  Uiso   1.00
O79    O     0.25840   0.16300   0.87920   0.01267  Uiso   1.00
O80    O     0.08740   0.11700   0.92120   0.01267  Uiso   1.00
O81    O     0.04310   0.16990   0.94080   0.01267  Uiso   1.00
O82    O     0.17270   0.23220   0.99290   0.01267  Uiso   1.00
O83    O     0.21640   0.21760   0.90020   0.01267  Uiso   1.00
O84    O     0.07830   0.21390   0.90350   0.01267  Uiso   1.00
O85    O     0.05040   0.22470   0.96700   0.01267  Uiso   1.00
O86    O     0.16440   0.25800   0.93710   0.01267  Uiso   1.00
O87    O     0.75030   0.28590   0.18900   0.01267  Uiso   1.00
O88    O     0.61870   0.27160   0.19400   0.01267  Uiso   1.00
O89    O     0.61830   0.20680   0.21010   0.01267  Uiso   1.00
O90    O     0.72670   0.22920   0.16950   0.01267  Uiso   1.00
O91    O     0.06050   0.23180   0.03030   0.01267  Uiso   1.00
O92    O     0.10780   0.24320   0.07440   0.01267  Uiso   1.00
O93    O     0.78150   0.27330   0.11900   0.01267  Uiso   1.00
O94    O     0.86330   0.26680   0.15050   0.01267  Uiso   1.00
O95    O     0.05430   0.11580   0.05580   0.01267  Uiso   1.00
O96    O     0.03930   0.16540   0.04870   0.01267  Uiso   1.00
O97    O     0.80440   0.15830   0.16290   0.01267  Uiso   1.00
O98    O     0.86460   0.19890   0.15690   0.01267  Uiso   1.00
O99    O     0.52560   0.37420   0.84460   0.01267  Uiso   1.00
O100   O     0.42170   0.39240   0.83470   0.01267  Uiso   1.00
O101   O     0.31610   0.26940   0.91780   0.01267  Uiso   1.00
O102   O     0.25260   0.28320   0.87810   0.01267  Uiso   1.00
O103   O     0.16870   0.36300   0.48660   0.01267  Uiso   1.00
O104   O     0.30190   0.34440   0.47970   0.01267  Uiso   1.00
O105   O     0.34810   0.32080   0.53030   0.01267  Uiso   1.00
O106   O     0.35170   0.36190   0.57390   0.01267  Uiso   1.00
O107   O     0.22540   0.38150   0.58220   0.01267  Uiso   1.00
O108   O     0.17880   0.40510   0.53160   0.01267  Uiso   1.00
O109   O     0.05260   0.37180   0.51440   0.01267  Uiso   1.00
O110   O     0.18220   0.30930   0.46310   0.01267  Uiso   1.00
O111   O     0.30050   0.27940   0.49090   0.01267  Uiso   1.00
O112   O     0.34510   0.29530   0.58500   0.01267  Uiso   1.00
O113   O     0.25840   0.33700   0.62080   0.01267  Uiso   1.00
O114   O     0.08740   0.38300   0.57880   0.01267  Uiso   1.00
O115   O     0.04310   0.33010   0.55920   0.01267  Uiso   1.00
O116   O     0.17270   0.26780   0.50710   0.01267  Uiso   1.00
O117   O     0.21640   0.28240   0.59980   0.01267  Uiso   1.00
O118   O     0.07830   0.28610   0.59650   0.01267  Uiso   1.00
O119   O     0.05040   0.27530   0.53300   0.01267  Uiso   1.00
O120   O     0.16440   0.24200   0.56290   0.01267  Uiso   1.00
O121   O     0.75030   0.21410   0.31100   0.01267  Uiso   1.00
O122   O     0.61870   0.22840   0.30600   0.01267  Uiso   1.00
O123   O     0.61830   0.29320   0.28990   0.01267  Uiso   1.00
O124   O     0.72670   0.27080   0.33050   0.01267  Uiso   1.00
O125   O     0.06050   0.26820   0.46970   0.01267  Uiso   1.00
O126   O     0.10780   0.25680   0.42560   0.01267  Uiso   1.00
O127   O     0.78150   0.22670   0.38100   0.01267  Uiso   1.00
O128   O     0.86330   0.23320   0.34950   0.01267  Uiso   1.00
O129   O     0.05430   0.38420   0.44420   0.01267  Uiso   1.00
O130   O     0.03930   0.33460   0.45130   0.01267  Uiso   1.00
O131   O     0.80440   0.34170   0.33710   0.01267  Uiso   1.00
O132   O     0.86460   0.30110   0.34310   0.01267  Uiso   1.00
O133   O     0.52560   0.12580   0.65540   0.01267  Uiso   1.00
O134   O     0.42170   0.10760   0.66530   0.01267  Uiso   1.00
O135   O     0.31610   0.23060   0.58220   0.01267  Uiso   1.00
O136   O     0.25260   0.21680   0.62190   0.01267  Uiso   1.00
O137   O     0.33130   0.48660   0.13700   0.01267  Uiso   1.00
O138   O     0.19810   0.47970   0.15560   0.01267  Uiso   1.00
O139   O     0.15190   0.53030   0.17920   0.01267  Uiso   1.00
O140   O     0.14830   0.57390   0.13810   0.01267  Uiso   1.00
O141   O     0.27460   0.58220   0.11850   0.01267  Uiso   1.00
O142   O     0.32120   0.53160   0.09490   0.01267  Uiso   1.00
O143   O     0.44740   0.51440   0.12820   0.01267  Uiso   1.00
O144   O     0.31780   0.46310   0.19070   0.01267  Uiso   1.00
O145   O     0.19950   0.49090   0.22060   0.01267  Uiso   1.00
O146   O     0.15490   0.58500   0.20470   0.01267  Uiso   1.00
O147   O     0.24160   0.62080   0.16300   0.01267  Uiso   1.00
O148   O     0.41260   0.57880   0.11700   0.01267  Uiso   1.00
O149   O     0.45690   0.55920   0.16990   0.01267  Uiso   1.00
O150   O     0.32730   0.50710   0.23220   0.01267  Uiso   1.00
O151   O     0.28360   0.59980   0.21760   0.01267  Uiso   1.00
O152   O     0.42170   0.59650   0.21390   0.01267  Uiso   1.00
O153   O     0.44960   0.53300   0.22470   0.01267  Uiso   1.00
O154   O     0.33560   0.56290   0.25800   0.01267  Uiso   1.00
O155   O     0.74970   0.31100   0.28590   0.01267  Uiso   1.00
O156   O     0.88130   0.30600   0.27160   0.01267  Uiso   1.00
O157   O     0.88170   0.28990   0.20680   0.01267  Uiso   1.00
O158   O     0.77330   0.33050   0.22920   0.01267  Uiso   1.00
O159   O     0.43950   0.46970   0.23180   0.01267  Uiso   1.00
O160   O     0.39220   0.42560   0.24320   0.01267  Uiso   1.00
O161   O     0.71850   0.38100   0.27330   0.01267  Uiso   1.00
O162   O     0.63670   0.34950   0.26680   0.01267  Uiso   1.00
O163   O     0.44570   0.44420   0.11580   0.01267  Uiso   1.00
O164   O     0.46070   0.45130   0.16540   0.01267  Uiso   1.00
O165   O     0.69560   0.33710   0.15830   0.01267  Uiso   1.00
O166   O     0.63540   0.34310   0.19890   0.01267  Uiso   1.00
O167   O     0.97440   0.65540   0.37420   0.01267  Uiso   1.00
O168   O     0.07830   0.66530   0.39240   0.01267  Uiso   1.00
O169   O     0.18390   0.58220   0.26940   0.01267  Uiso   1.00
O170   O     0.24740   0.62190   0.28320   0.01267  Uiso   1.00
O171   O     0.33130   0.01340   0.36300   0.01267  Uiso   1.00
O172   O     0.19810   0.02030   0.34440   0.01267  Uiso   1.00
O173   O     0.15190   0.96970   0.32080   0.01267  Uiso   1.00
O174   O     0.14830   0.92610   0.36190   0.01267  Uiso   1.00
O175   O     0.27460   0.91780   0.38150   0.01267  Uiso   1.00
O176   O     0.32120   0.96840   0.40510   0.01267  Uiso   1.00
O177   O     0.44740   0.98560   0.37180   0.01267  Uiso   1.00
O178   O     0.31780   0.03690   0.30930   0.01267  Uiso   1.00
O179   O     0.19950   0.00910   0.27940   0.01267  Uiso   1.00
O180   O     0.15490   0.91500   0.29530   0.01267  Uiso   1.00
O181   O     0.24160   0.87920   0.33700   0.01267  Uiso   1.00
O182   O     0.41260   0.92120   0.38300   0.01267  Uiso   1.00
O183   O     0.45690   0.94080   0.33010   0.01267  Uiso   1.00
O184   O     0.32730   0.99290   0.26780   0.01267  Uiso   1.00
O185   O     0.28360   0.90020   0.28240   0.01267  Uiso   1.00
O186   O     0.42170   0.90350   0.28610   0.01267  Uiso   1.00
O187   O     0.44960   0.96700   0.27530   0.01267  Uiso   1.00
O188   O     0.33560   0.93710   0.24200   0.01267  Uiso   1.00
O189   O     0.74970   0.18900   0.21410   0.01267  Uiso   1.00
O190   O     0.88130   0.19400   0.22840   0.01267  Uiso   1.00
O191   O     0.88170   0.21010   0.29320   0.01267  Uiso   1.00
O192   O     0.77330   0.16950   0.27080   0.01267  Uiso   1.00
O193   O     0.43950   0.03030   0.26820   0.01267  Uiso   1.00
O194   O     0.39220   0.07440   0.25680   0.01267  Uiso   1.00
O195   O     0.71850   0.11900   0.22670   0.01267  Uiso   1.00
O196   O     0.63670   0.15050   0.23320   0.01267  Uiso   1.00
O197   O     0.44570   0.05580   0.38420   0.01267  Uiso   1.00
O198   O     0.46070   0.04870   0.33460   0.01267  Uiso   1.00
O199   O     0.69560   0.16290   0.34170   0.01267  Uiso   1.00
O200   O     0.63540   0.15690   0.30110   0.01267  Uiso   1.00
O201   O     0.97440   0.84460   0.12580   0.01267  Uiso   1.00
O202   O     0.07830   0.83470   0.10760   0.01267  Uiso   1.00
O203   O     0.18390   0.91780   0.23060   0.01267  Uiso   1.00
O204   O     0.24740   0.87810   0.21680   0.01267  Uiso   1.00
O205   O     0.83130   0.86300   0.98660   0.01267  Uiso   1.00
O206   O     0.69810   0.84440   0.97970   0.01267  Uiso   1.00
O207   O     0.65190   0.82080   0.03030   0.01267  Uiso   1.00
O208   O     0.64830   0.86190   0.07390   0.01267  Uiso   1.00
O209   O     0.77460   0.88150   0.08220   0.01267  Uiso   1.00
O210   O     0.82120   0.90510   0.03160   0.01267  Uiso   1.00
O211   O     0.94740   0.87180   0.01440   0.01267  Uiso   1.00
O212   O     0.81780   0.80930   0.96310   0.01267  Uiso   1.00
O213   O     0.69950   0.77940   0.99090   0.01267  Uiso   1.00
O214   O     0.65490   0.79530   0.08500   0.01267  Uiso   1.00
O215   O     0.74160   0.83700   0.12080   0.01267  Uiso   1.00
O216   O     0.91260   0.88300   0.07880   0.01267  Uiso   1.00
O217   O     0.95690   0.83010   0.05920   0.01267  Uiso   1.00
O218   O     0.82730   0.76780   0.00710   0.01267  Uiso   1.00
O219   O     0.78360   0.78240   0.09980   0.01267  Uiso   1.00
O220   O     0.92170   0.78610   0.09650   0.01267  Uiso   1.00
O221   O     0.94960   0.77530   0.03300   0.01267  Uiso   1.00
O222   O     0.83560   0.74200   0.06290   0.01267  Uiso   1.00
O223   O     0.24970   0.71410   0.81100   0.01267  Uiso   1.00
O224   O     0.38130   0.72840   0.80600   0.01267  Uiso   1.00
O225   O     0.38170   0.79320   0.78990   0.01267  Uiso   1.00
O226   O     0.27330   0.77080   0.83050   0.01267  Uiso   1.00
O227   O     0.93950   0.76820   0.96970   0.01267  Uiso   1.00
O228   O     0.89220   0.75680   0.92560   0.01267  Uiso   1.00
O229   O     0.21850   0.72670   0.88100   0.01267  Uiso   1.00
O230   O     0.13670   0.73320   0.84950   0.01267  Uiso   1.00
O231   O     0.94570   0.88420   0.94420   0.01267  Uiso   1.00
O232   O     0.96070   0.83460   0.95130   0.01267  Uiso   1.00
O233   O     0.19560   0.84170   0.83710   0.01267  Uiso   1.00
O234   O     0.13540   0.80110   0.84310   0.01267  Uiso   1.00
O235   O     0.47440   0.62580   0.15540   0.01267  Uiso   1.00
O236   O     0.57830   0.60760   0.16530   0.01267  Uiso   1.00
O237   O     0.68390   0.73060   0.08220   0.01267  Uiso   1.00
O238   O     0.74740   0.71680   0.12190   0.01267  Uiso   1.00
O239   O     0.83130   0.63700   0.51340   0.01267  Uiso   1.00
O240   O     0.69810   0.65560   0.52030   0.01267  Uiso   1.00
O241   O     0.65190   0.67920   0.46970   0.01267  Uiso   1.00
O242   O     0.64830   0.63810   0.42610   0.01267  Uiso   1.00
O243   O     0.77460   0.61850   0.41780   0.01267  Uiso   1.00
O244   O     0.82120   0.59490   0.46840   0.01267  Uiso   1.00
O245   O     0.94740   0.62820   0.48560   0.01267  Uiso   1.00
O246   O     0.81780   0.69070   0.53690   0.01267  Uiso   1.00
O247   O     0.69950   0.72060   0.50910   0.01267  Uiso   1.00
O248   O     0.65490   0.70470   0.41500   0.01267  Uiso   1.00
O249   O     0.74160   0.66300   0.37920   0.01267  Uiso   1.00
O250   O     0.91260   0.61700   0.42120   0.01267  Uiso   1.00
O251   O     0.95690   0.66990   0.44080   0.01267  Uiso   1.00
O252   O     0.82730   0.73220   0.49290   0.01267  Uiso   1.00
O253   O     0.78360   0.71760   0.40020   0.01267  Uiso   1.00
O254   O     0.92170   0.71390   0.40350   0.01267  Uiso   1.00
O255   O     0.94960   0.72470   0.46700   0.01267  Uiso   1.00
O256   O     0.83560   0.75800   0.43710   0.01267  Uiso   1.00
O257   O     0.24970   0.78590   0.68900   0.01267  Uiso   1.00
O258   O     0.38130   0.77160   0.69400   0.01267  Uiso   1.00
O259   O     0.38170   0.70680   0.71010   0.01267  Uiso   1.00
O260   O     0.27330   0.72920   0.66950   0.01267  Uiso   1.00
O261   O     0.93950   0.73180   0.53030   0.01267  Uiso   1.00
O262   O     0.89220   0.74320   0.57440   0.01267  Uiso   1.00
O263   O     0.21850   0.77330   0.61900   0.01267  Uiso   1.00
O264   O     0.13670   0.76680   0.65050   0.01267  Uiso   1.00
O265   O     0.94570   0.61580   0.55580   0.01267  Uiso   1.00
O266   O     0.96070   0.66540   0.54870   0.01267  Uiso   1.00
O267   O     0.19560   0.65830   0.66290   0.01267  Uiso   1.00
O268   O     0.13540   0.69890   0.65690   0.01267  Uiso   1.00
O269   O     0.47440   0.87420   0.34460   0.01267  Uiso   1.00
O270   O     0.57830   0.89240   0.33470   0.01267  Uiso   1.00
O271   O     0.68390   0.76940   0.41780   0.01267  Uiso   1.00
O272   O     0.74740   0.78320   0.37810   0.01267  Uiso   1.00
O273   O     0.09650   0.75000   0.75000   0.01267  Uiso   1.00
O274   O     0.59650   0.25000   0.25000   0.01267  Uiso   1.00
O275   O     0.90350   0.25000   0.25000   0.01267  Uiso   1.00
O276   O     0.40350   0.75000   0.75000   0.01267  Uiso   1.00
