data_image0
_cell_length_a       19.3717
_cell_length_b       19.3717
_cell_length_c       52.616
_cell_angle_alpha    90
_cell_angle_beta     90
_cell_angle_gamma    120

_symmetry_space_group_name_H-M    "P 1"
_symmetry_int_tables_number       1

loop_
  _symmetry_equiv_pos_as_xyz
  'x, y, z'

loop_
  _atom_site_label
  _atom_site_occupancy
  _atom_site_fract_x
  _atom_site_fract_y
  _atom_site_fract_z
  _atom_site_thermal_displace_type
  _atom_site_B_iso_or_equiv
  _atom_site_type_symbol
  Mn1      1.0000 0.96505  0.89032  0.78083  Biso   1.000  Mn
  O1       1.0000 0.92619  0.78065  0.78235  Biso   1.000  O
  O2       1.0000 0.84528  0.93066  0.76896  Biso   1.000  O
  N1       1.0000 0.99550  0.90190  0.82113  Biso   1.000  N
  N2       1.0000 0.00920  0.85290  0.83018  Biso   1.000  N
  N3       1.0000 0.02220  0.80580  0.83893  Biso   1.000  N
  N4       1.0000 0.85340  0.86930  0.77937  Biso   1.000  N
  N5       1.0000 0.09210  0.98720  0.86882  Biso   1.000  N
  C1       1.0000 0.85920  0.72750  0.79343  Biso   1.000  C
  C2       1.0000 0.85560  0.65750  0.80275  Biso   1.000  C
  H1       1.0000 0.90110  0.65130  0.80140  Biso   1.000  H
  C3       1.0000 0.78670  0.59770  0.81380  Biso   1.000  C
  H2       1.0000 0.78500  0.55060  0.81970  Biso   1.000  H
  C4       1.0000 0.72020  0.60660  0.81626  Biso   1.000  C
  H3       1.0000 0.67340  0.56600  0.82420  Biso   1.000  H
  C5       1.0000 0.72200  0.67380  0.80721  Biso   1.000  C
  H4       1.0000 0.67600  0.67900  0.80890  Biso   1.000  H
  C6       1.0000 0.79040  0.73550  0.79536  Biso   1.000  C
  C7       1.0000 0.78750  0.80450  0.78525  Biso   1.000  C
  C8       1.0000 0.70930  0.80160  0.78088  Biso   1.000  C
  H5       1.0000 0.70290  0.83540  0.79340  Biso   1.000  H
  H6       1.0000 0.66560  0.74650  0.78260  Biso   1.000  H
  H7       1.0000 0.70860  0.82090  0.76370  Biso   1.000  H
  C9       1.0000 0.15980  0.00360  0.85702  Biso   1.000  C
  H8       1.0000 0.16890  0.02570  0.84040  Biso   1.000  H
  C10      1.0000 0.21790  0.99030  0.86783  Biso   1.000  C
  H9       1.0000 0.26520  0.00330  0.85870  Biso   1.000  H
  C11      1.0000 0.20590  0.95800  0.89179  Biso   1.000  C
  C12      1.0000 0.13560  0.93910  0.90400  Biso   1.000  C
  H10      1.0000 0.12500  0.91630  0.92050  Biso   1.000  H
  C13      1.0000 0.08040  0.95360  0.89192  Biso   1.000  C
  H11      1.0000 0.03180  0.93910  0.90040  Biso   1.000  H
  C14      1.0000 0.26950  0.94600  0.90416  Biso   1.000  C
  H12      1.0000 0.29460  0.92860  0.89110  Biso   1.000  H
  H13      1.0000 0.24480  0.90350  0.91710  Biso   1.000  H
  H14      1.0000 0.35830  0.06540  0.90360  Biso   1.000  H
  Mn2      1.0000 0.10968  0.07473  0.78083  Biso   1.000  Mn
  O3       1.0000 0.21935  0.14554  0.78235  Biso   1.000  O
  O4       1.0000 0.06934  0.91462  0.76896  Biso   1.000  O
  N6       1.0000 0.09810  0.09360  0.82113  Biso   1.000  N
  N7       1.0000 0.14710  0.15630  0.83018  Biso   1.000  N
  N8       1.0000 0.19420  0.21640  0.83893  Biso   1.000  N
  N9       1.0000 0.13070  0.98410  0.77937  Biso   1.000  N
  N10      1.0000 0.01280  0.10490  0.86882  Biso   1.000  N
  C15      1.0000 0.27250  0.13170  0.79343  Biso   1.000  C
  C16      1.0000 0.34250  0.19810  0.80275  Biso   1.000  C
  H15      1.0000 0.34870  0.24980  0.80140  Biso   1.000  H
  C17      1.0000 0.40230  0.18900  0.81380  Biso   1.000  C
  H16      1.0000 0.44940  0.23440  0.81970  Biso   1.000  H
  C18      1.0000 0.39340  0.11360  0.81626  Biso   1.000  C
  H17      1.0000 0.43400  0.10740  0.82420  Biso   1.000  H
  C19      1.0000 0.32620  0.04820  0.80721  Biso   1.000  C
  H18      1.0000 0.32100  0.99700  0.80890  Biso   1.000  H
  C20      1.0000 0.26450  0.05490  0.79536  Biso   1.000  C
  C21      1.0000 0.19550  0.98300  0.78525  Biso   1.000  C
  C22      1.0000 0.19840  0.90770  0.78088  Biso   1.000  C
  H19      1.0000 0.16460  0.86750  0.79340  Biso   1.000  H
  H20      1.0000 0.25350  0.91910  0.78260  Biso   1.000  H
  H21      1.0000 0.17910  0.88770  0.76370  Biso   1.000  H
  C23      1.0000 0.99640  0.15620  0.85702  Biso   1.000  C
  H22      1.0000 0.97430  0.14320  0.84040  Biso   1.000  H
  C24      1.0000 0.00970  0.22760  0.86783  Biso   1.000  C
  H23      1.0000 0.99670  0.26190  0.85870  Biso   1.000  H
  C25      1.0000 0.04200  0.24790  0.89179  Biso   1.000  C
  C26      1.0000 0.06090  0.19650  0.90400  Biso   1.000  C
  H24      1.0000 0.08370  0.20870  0.92050  Biso   1.000  H
  C27      1.0000 0.04640  0.12680  0.89192  Biso   1.000  C
  H25      1.0000 0.06090  0.09270  0.90040  Biso   1.000  H
  C28      1.0000 0.05400  0.32350  0.90416  Biso   1.000  C
  H26      1.0000 0.07140  0.36600  0.89110  Biso   1.000  H
  H27      1.0000 0.09650  0.34130  0.91710  Biso   1.000  H
  H28      1.0000 0.93460  0.29290  0.90360  Biso   1.000  H
  Mn3      1.0000 0.92527  0.03495  0.78083  Biso   1.000  Mn
  O5       1.0000 0.85446  0.07381  0.78235  Biso   1.000  O
  O6       1.0000 0.08538  0.15472  0.76896  Biso   1.000  O
  N11      1.0000 0.90640  0.00450  0.82113  Biso   1.000  N
  N12      1.0000 0.84370  0.99080  0.83018  Biso   1.000  N
  N13      1.0000 0.78360  0.97780  0.83893  Biso   1.000  N
  N14      1.0000 0.01590  0.14660  0.77937  Biso   1.000  N
  N15      1.0000 0.89510  0.90790  0.86882  Biso   1.000  N
  C29      1.0000 0.86830  0.14080  0.79343  Biso   1.000  C
  C30      1.0000 0.80190  0.14440  0.80275  Biso   1.000  C
  H29      1.0000 0.75020  0.09890  0.80140  Biso   1.000  H
  C31      1.0000 0.81100  0.21330  0.81380  Biso   1.000  C
  H30      1.0000 0.76560  0.21500  0.81970  Biso   1.000  H
  C32      1.0000 0.88640  0.27980  0.81626  Biso   1.000  C
  H31      1.0000 0.89260  0.32660  0.82420  Biso   1.000  H
  C33      1.0000 0.95180  0.27800  0.80721  Biso   1.000  C
  H32      1.0000 0.00300  0.32400  0.80890  Biso   1.000  H
  C34      1.0000 0.94510  0.20960  0.79536  Biso   1.000  C
  C35      1.0000 0.01700  0.21250  0.78525  Biso   1.000  C
  C36      1.0000 0.09230  0.29070  0.78088  Biso   1.000  C
  H33      1.0000 0.13250  0.29710  0.79340  Biso   1.000  H
  H34      1.0000 0.08090  0.33440  0.78260  Biso   1.000  H
  H35      1.0000 0.11230  0.29140  0.76370  Biso   1.000  H
  C37      1.0000 0.84380  0.84020  0.85702  Biso   1.000  C
  H36      1.0000 0.85680  0.83110  0.84040  Biso   1.000  H
  C38      1.0000 0.77240  0.78210  0.86783  Biso   1.000  C
  H37      1.0000 0.73810  0.73480  0.85870  Biso   1.000  H
  C39      1.0000 0.75210  0.79410  0.89179  Biso   1.000  C
  C40      1.0000 0.80350  0.86440  0.90400  Biso   1.000  C
  H38      1.0000 0.79130  0.87500  0.92050  Biso   1.000  H
  C41      1.0000 0.87320  0.91960  0.89192  Biso   1.000  C
  H39      1.0000 0.90730  0.96820  0.90040  Biso   1.000  H
  C42      1.0000 0.67650  0.73050  0.90416  Biso   1.000  C
  H40      1.0000 0.63400  0.70540  0.89110  Biso   1.000  H
  H41      1.0000 0.65870  0.75520  0.91710  Biso   1.000  H
  H42      1.0000 0.70710  0.64170  0.90360  Biso   1.000  H
  Mn4      1.0000 0.55699  0.29838  0.05251  Biso   1.000  Mn
  O7       1.0000 0.44732  0.25952  0.05098  Biso   1.000  O
  O8       1.0000 0.59733  0.17861  0.06437  Biso   1.000  O
  N16      1.0000 0.56857  0.32883  0.01220  Biso   1.000  N
  N17      1.0000 0.51957  0.34253  0.00315  Biso   1.000  N
  N18      1.0000 0.47247  0.35553  0.99440  Biso   1.000  N
  N19      1.0000 0.53597  0.18673  0.05396  Biso   1.000  N
  N20      1.0000 0.65387  0.42543  0.96451  Biso   1.000  N
  C43      1.0000 0.39417  0.19253  0.03990  Biso   1.000  C
  C44      1.0000 0.32417  0.18893  0.03058  Biso   1.000  C
  H43      1.0000 0.31797  0.23443  0.03193  Biso   1.000  H
  C45      1.0000 0.26437  0.12003  0.01953  Biso   1.000  C
  H44      1.0000 0.21727  0.11833  0.01363  Biso   1.000  H
  C46      1.0000 0.27327  0.05353  0.01707  Biso   1.000  C
  H45      1.0000 0.23267  0.00673  0.00913  Biso   1.000  H
  C47      1.0000 0.34047  0.05533  0.02612  Biso   1.000  C
  H46      1.0000 0.34567  0.00933  0.02443  Biso   1.000  H
  C48      1.0000 0.40217  0.12373  0.03797  Biso   1.000  C
  C49      1.0000 0.47117  0.12083  0.04808  Biso   1.000  C
  C50      1.0000 0.46827  0.04263  0.05245  Biso   1.000  C
  H47      1.0000 0.50207  0.03623  0.03993  Biso   1.000  H
  H48      1.0000 0.41317  0.99893  0.05073  Biso   1.000  H
  H49      1.0000 0.48757  0.04193  0.06963  Biso   1.000  H
  C51      1.0000 0.67027  0.49313  0.97631  Biso   1.000  C
  H50      1.0000 0.69237  0.50223  0.99293  Biso   1.000  H
  C52      1.0000 0.65697  0.55123  0.96550  Biso   1.000  C
  H51      1.0000 0.66997  0.59853  0.97463  Biso   1.000  H
  C53      1.0000 0.62467  0.53923  0.94154  Biso   1.000  C
  C54      1.0000 0.60577  0.46893  0.92933  Biso   1.000  C
  H52      1.0000 0.58297  0.45833  0.91283  Biso   1.000  H
  C55      1.0000 0.62027  0.41373  0.94141  Biso   1.000  C
  H53      1.0000 0.60577  0.36513  0.93293  Biso   1.000  H
  C56      1.0000 0.61267  0.60283  0.92917  Biso   1.000  C
  H54      1.0000 0.59527  0.62793  0.94223  Biso   1.000  H
  H55      1.0000 0.57017  0.57813  0.91623  Biso   1.000  H
  H56      1.0000 0.73207  0.69163  0.92973  Biso   1.000  H
  Mn5      1.0000 0.74140  0.44301  0.05251  Biso   1.000  Mn
  O9       1.0000 0.81221  0.55268  0.05098  Biso   1.000  O
  O10      1.0000 0.58129  0.40267  0.06437  Biso   1.000  O
  N21      1.0000 0.76027  0.43143  0.01220  Biso   1.000  N
  N22      1.0000 0.82297  0.48043  0.00315  Biso   1.000  N
  N23      1.0000 0.88307  0.52753  0.99440  Biso   1.000  N
  N24      1.0000 0.65077  0.46403  0.05396  Biso   1.000  N
  N25      1.0000 0.77157  0.34613  0.96451  Biso   1.000  N
  C57      1.0000 0.79837  0.60583  0.03990  Biso   1.000  C
  C58      1.0000 0.86477  0.67583  0.03058  Biso   1.000  C
  H57      1.0000 0.91647  0.68203  0.03193  Biso   1.000  H
  C59      1.0000 0.85567  0.73563  0.01953  Biso   1.000  C
  H58      1.0000 0.90107  0.78273  0.01363  Biso   1.000  H
  C60      1.0000 0.78027  0.72673  0.01707  Biso   1.000  C
  H59      1.0000 0.77407  0.76733  0.00913  Biso   1.000  H
  C61      1.0000 0.71487  0.65953  0.02612  Biso   1.000  C
  H60      1.0000 0.66367  0.65433  0.02443  Biso   1.000  H
  C62      1.0000 0.72157  0.59783  0.03797  Biso   1.000  C
  C63      1.0000 0.64967  0.52883  0.04808  Biso   1.000  C
  C64      1.0000 0.57437  0.53173  0.05245  Biso   1.000  C
  H61      1.0000 0.53417  0.49793  0.03993  Biso   1.000  H
  H62      1.0000 0.58577  0.58683  0.05073  Biso   1.000  H
  H63      1.0000 0.55437  0.51243  0.06963  Biso   1.000  H
  C65      1.0000 0.82287  0.32973  0.97631  Biso   1.000  C
  H64      1.0000 0.80987  0.30763  0.99293  Biso   1.000  H
  C66      1.0000 0.89427  0.34303  0.96550  Biso   1.000  C
  H65      1.0000 0.92857  0.33003  0.97463  Biso   1.000  H
  C67      1.0000 0.91457  0.37533  0.94154  Biso   1.000  C
  C68      1.0000 0.86317  0.39423  0.92933  Biso   1.000  C
  H66      1.0000 0.87537  0.41703  0.91283  Biso   1.000  H
  C69      1.0000 0.79347  0.37973  0.94141  Biso   1.000  C
  H67      1.0000 0.75937  0.39423  0.93293  Biso   1.000  H
  C70      1.0000 0.99017  0.38733  0.92917  Biso   1.000  C
  H68      1.0000 0.03267  0.40473  0.94223  Biso   1.000  H
  H69      1.0000 0.00797  0.42983  0.91623  Biso   1.000  H
  H70      1.0000 0.95957  0.26793  0.92973  Biso   1.000  H
  Mn6      1.0000 0.70162  0.25860  0.05251  Biso   1.000  Mn
  O11      1.0000 0.74048  0.18779  0.05098  Biso   1.000  O
  O12      1.0000 0.82139  0.41871  0.06437  Biso   1.000  O
  N26      1.0000 0.67117  0.23973  0.01220  Biso   1.000  N
  N27      1.0000 0.65747  0.17703  0.00315  Biso   1.000  N
  N28      1.0000 0.64447  0.11693  0.99440  Biso   1.000  N
  N29      1.0000 0.81327  0.34923  0.05396  Biso   1.000  N
  N30      1.0000 0.57457  0.22843  0.96451  Biso   1.000  N
  C71      1.0000 0.80747  0.20163  0.03990  Biso   1.000  C
  C72      1.0000 0.81107  0.13523  0.03058  Biso   1.000  C
  H71      1.0000 0.76557  0.08353  0.03193  Biso   1.000  H
  C73      1.0000 0.87997  0.14433  0.01953  Biso   1.000  C
  H72      1.0000 0.88167  0.09893  0.01363  Biso   1.000  H
  C74      1.0000 0.94647  0.21973  0.01707  Biso   1.000  C
  H73      1.0000 0.99327  0.22593  0.00913  Biso   1.000  H
  C75      1.0000 0.94467  0.28513  0.02612  Biso   1.000  C
  H74      1.0000 0.99067  0.33633  0.02443  Biso   1.000  H
  C76      1.0000 0.87627  0.27843  0.03797  Biso   1.000  C
  C77      1.0000 0.87917  0.35033  0.04808  Biso   1.000  C
  C78      1.0000 0.95737  0.42563  0.05245  Biso   1.000  C
  H75      1.0000 0.96377  0.46583  0.03993  Biso   1.000  H
  H76      1.0000 0.00107  0.41423  0.05073  Biso   1.000  H
  H77      1.0000 0.95807  0.44563  0.06963  Biso   1.000  H
  C79      1.0000 0.50687  0.17713  0.97631  Biso   1.000  C
  H78      1.0000 0.49777  0.19013  0.99293  Biso   1.000  H
  C80      1.0000 0.44877  0.10573  0.96550  Biso   1.000  C
  H79      1.0000 0.40147  0.07143  0.97463  Biso   1.000  H
  C81      1.0000 0.46077  0.08543  0.94154  Biso   1.000  C
  C82      1.0000 0.53107  0.13683  0.92933  Biso   1.000  C
  H80      1.0000 0.54167  0.12463  0.91283  Biso   1.000  H
  C83      1.0000 0.58627  0.20653  0.94141  Biso   1.000  C
  H81      1.0000 0.63487  0.24063  0.93293  Biso   1.000  H
  C84      1.0000 0.39717  0.00983  0.92917  Biso   1.000  C
  H82      1.0000 0.37207  0.96733  0.94223  Biso   1.000  H
  H83      1.0000 0.42187  0.99203  0.91623  Biso   1.000  H
  H84      1.0000 0.30837  0.04043  0.92973  Biso   1.000  H
  Mn7      1.0000 0.00000  0.00000  0.84502  Biso   1.000  Mn
  O13      1.0000 0.00000  0.00000  0.77841  Biso   1.000  O
  Mn8      1.0000 0.66667  0.33333  0.98831  Biso   1.000  Mn
  O14      1.0000 0.66667  0.33333  0.05492  Biso   1.000  O
  C85      1.0000 0.33333  0.02302  0.91667  Biso   1.000  C
  C86      1.0000 0.97698  0.31032  0.91667  Biso   1.000  C
  C87      1.0000 0.68968  0.66667  0.91667  Biso   1.000  C
  Mn9      1.0000 0.63172  0.22365  0.11416  Biso   1.000  Mn
  O15      1.0000 0.59286  0.11398  0.11568  Biso   1.000  O
  O16      1.0000 0.51195  0.26399  0.10229  Biso   1.000  O
  N31      1.0000 0.66217  0.23523  0.15446  Biso   1.000  N
  N32      1.0000 0.67587  0.18623  0.16351  Biso   1.000  N
  N33      1.0000 0.68887  0.13913  0.17226  Biso   1.000  N
  N34      1.0000 0.52007  0.20263  0.11270  Biso   1.000  N
  N35      1.0000 0.75877  0.32053  0.20215  Biso   1.000  N
  C88      1.0000 0.52587  0.06083  0.12676  Biso   1.000  C
  C89      1.0000 0.52227  0.99083  0.13608  Biso   1.000  C
  H85      1.0000 0.56777  0.98463  0.13473  Biso   1.000  H
  C90      1.0000 0.45337  0.93103  0.14713  Biso   1.000  C
  H86      1.0000 0.45167  0.88393  0.15303  Biso   1.000  H
  C91      1.0000 0.38687  0.93993  0.14959  Biso   1.000  C
  H87      1.0000 0.34007  0.89933  0.15753  Biso   1.000  H
  C92      1.0000 0.38867  0.00713  0.14054  Biso   1.000  C
  H88      1.0000 0.34267  0.01233  0.14223  Biso   1.000  H
  C93      1.0000 0.45707  0.06883  0.12869  Biso   1.000  C
  C94      1.0000 0.45417  0.13783  0.11858  Biso   1.000  C
  C95      1.0000 0.37597  0.13493  0.11421  Biso   1.000  C
  H89      1.0000 0.36957  0.16873  0.12673  Biso   1.000  H
  H90      1.0000 0.33227  0.07983  0.11593  Biso   1.000  H
  H91      1.0000 0.37527  0.15423  0.09703  Biso   1.000  H
  C96      1.0000 0.82647  0.33693  0.19035  Biso   1.000  C
  H92      1.0000 0.83557  0.35903  0.17373  Biso   1.000  H
  C97      1.0000 0.88457  0.32363  0.20116  Biso   1.000  C
  H93      1.0000 0.93187  0.33663  0.19203  Biso   1.000  H
  C98      1.0000 0.87257  0.29133  0.22512  Biso   1.000  C
  C99      1.0000 0.80227  0.27243  0.23733  Biso   1.000  C
  H94      1.0000 0.79167  0.24963  0.25383  Biso   1.000  H
  C100     1.0000 0.74707  0.28693  0.22525  Biso   1.000  C
  H95      1.0000 0.69847  0.27243  0.23373  Biso   1.000  H
  C101     1.0000 0.93617  0.27933  0.23749  Biso   1.000  C
  H96      1.0000 0.96127  0.26193  0.22443  Biso   1.000  H
  H97      1.0000 0.91147  0.23683  0.25043  Biso   1.000  H
  H98      1.0000 0.02497  0.39873  0.23693  Biso   1.000  H
  Mn10     1.0000 0.77635  0.40806  0.11416  Biso   1.000  Mn
  O17      1.0000 0.88602  0.47887  0.11568  Biso   1.000  O
  O18      1.0000 0.73601  0.24795  0.10229  Biso   1.000  O
  N36      1.0000 0.76477  0.42693  0.15446  Biso   1.000  N
  N37      1.0000 0.81377  0.48963  0.16351  Biso   1.000  N
  N38      1.0000 0.86087  0.54973  0.17226  Biso   1.000  N
  N39      1.0000 0.79737  0.31743  0.11270  Biso   1.000  N
  N40      1.0000 0.67947  0.43823  0.20215  Biso   1.000  N
  C102     1.0000 0.93917  0.46503  0.12676  Biso   1.000  C
  C103     1.0000 0.00917  0.53143  0.13608  Biso   1.000  C
  H99      1.0000 0.01537  0.58313  0.13473  Biso   1.000  H
  C104     1.0000 0.06897  0.52233  0.14713  Biso   1.000  C
  H100     1.0000 0.11607  0.56773  0.15303  Biso   1.000  H
  C105     1.0000 0.06007  0.44693  0.14959  Biso   1.000  C
  H101     1.0000 0.10067  0.44073  0.15753  Biso   1.000  H
  C106     1.0000 0.99287  0.38153  0.14054  Biso   1.000  C
  H102     1.0000 0.98767  0.33033  0.14223  Biso   1.000  H
  C107     1.0000 0.93117  0.38823  0.12869  Biso   1.000  C
  C108     1.0000 0.86217  0.31633  0.11858  Biso   1.000  C
  C109     1.0000 0.86507  0.24103  0.11421  Biso   1.000  C
  H103     1.0000 0.83127  0.20083  0.12673  Biso   1.000  H
  H104     1.0000 0.92017  0.25243  0.11593  Biso   1.000  H
  H105     1.0000 0.84577  0.22103  0.09703  Biso   1.000  H
  C110     1.0000 0.66307  0.48953  0.19035  Biso   1.000  C
  H106     1.0000 0.64097  0.47653  0.17373  Biso   1.000  H
  C111     1.0000 0.67637  0.56093  0.20116  Biso   1.000  C
  H107     1.0000 0.66337  0.59523  0.19203  Biso   1.000  H
  C112     1.0000 0.70867  0.58123  0.22512  Biso   1.000  C
  C113     1.0000 0.72757  0.52983  0.23733  Biso   1.000  C
  H108     1.0000 0.75037  0.54203  0.25383  Biso   1.000  H
  C114     1.0000 0.71307  0.46013  0.22525  Biso   1.000  C
  H109     1.0000 0.72757  0.42603  0.23373  Biso   1.000  H
  C115     1.0000 0.72067  0.65683  0.23749  Biso   1.000  C
  H110     1.0000 0.73807  0.69933  0.22443  Biso   1.000  H
  H111     1.0000 0.76317  0.67463  0.25043  Biso   1.000  H
  H112     1.0000 0.60127  0.62623  0.23693  Biso   1.000  H
  Mn11     1.0000 0.59194  0.36828  0.11416  Biso   1.000  Mn
  O19      1.0000 0.52113  0.40714  0.11568  Biso   1.000  O
  O20      1.0000 0.75205  0.48805  0.10229  Biso   1.000  O
  N41      1.0000 0.57307  0.33783  0.15446  Biso   1.000  N
  N42      1.0000 0.51037  0.32413  0.16351  Biso   1.000  N
  N43      1.0000 0.45027  0.31113  0.17226  Biso   1.000  N
  N44      1.0000 0.68257  0.47993  0.11270  Biso   1.000  N
  N45      1.0000 0.56177  0.24123  0.20215  Biso   1.000  N
  C116     1.0000 0.53497  0.47413  0.12676  Biso   1.000  C
  C117     1.0000 0.46857  0.47773  0.13608  Biso   1.000  C
  H113     1.0000 0.41687  0.43223  0.13473  Biso   1.000  H
  C118     1.0000 0.47767  0.54663  0.14713  Biso   1.000  C
  H114     1.0000 0.43227  0.54833  0.15303  Biso   1.000  H
  C119     1.0000 0.55307  0.61313  0.14959  Biso   1.000  C
  H115     1.0000 0.55927  0.65993  0.15753  Biso   1.000  H
  C120     1.0000 0.61847  0.61133  0.14054  Biso   1.000  C
  H116     1.0000 0.66967  0.65733  0.14223  Biso   1.000  H
  C121     1.0000 0.61177  0.54293  0.12869  Biso   1.000  C
  C122     1.0000 0.68367  0.54583  0.11858  Biso   1.000  C
  C123     1.0000 0.75897  0.62403  0.11421  Biso   1.000  C
  H117     1.0000 0.79917  0.63043  0.12673  Biso   1.000  H
  H118     1.0000 0.74757  0.66773  0.11593  Biso   1.000  H
  H119     1.0000 0.77897  0.62473  0.09703  Biso   1.000  H
  C124     1.0000 0.51047  0.17353  0.19035  Biso   1.000  C
  H120     1.0000 0.52347  0.16443  0.17373  Biso   1.000  H
  C125     1.0000 0.43907  0.11543  0.20116  Biso   1.000  C
  H121     1.0000 0.40477  0.06813  0.19203  Biso   1.000  H
  C126     1.0000 0.41877  0.12743  0.22512  Biso   1.000  C
  C127     1.0000 0.47017  0.19773  0.23733  Biso   1.000  C
  H122     1.0000 0.45797  0.20833  0.25383  Biso   1.000  H
  C128     1.0000 0.53987  0.25293  0.22525  Biso   1.000  C
  H123     1.0000 0.57397  0.30153  0.23373  Biso   1.000  H
  C129     1.0000 0.34317  0.06383  0.23749  Biso   1.000  C
  H124     1.0000 0.30067  0.03873  0.22443  Biso   1.000  H
  H125     1.0000 0.32537  0.08853  0.25043  Biso   1.000  H
  H126     1.0000 0.37377  0.97503  0.23693  Biso   1.000  H
  Mn12     1.0000 0.22365  0.63172  0.38584  Biso   1.000  Mn
  O21      1.0000 0.11398  0.59286  0.38432  Biso   1.000  O
  O22      1.0000 0.26399  0.51195  0.39771  Biso   1.000  O
  N46      1.0000 0.23523  0.66217  0.34554  Biso   1.000  N
  N47      1.0000 0.18623  0.67587  0.33649  Biso   1.000  N
  N48      1.0000 0.13913  0.68887  0.32774  Biso   1.000  N
  N49      1.0000 0.20263  0.52007  0.38730  Biso   1.000  N
  N50      1.0000 0.32053  0.75877  0.29785  Biso   1.000  N
  C130     1.0000 0.06083  0.52587  0.37324  Biso   1.000  C
  C131     1.0000 0.99083  0.52227  0.36392  Biso   1.000  C
  H127     1.0000 0.98463  0.56777  0.36527  Biso   1.000  H
  C132     1.0000 0.93103  0.45337  0.35287  Biso   1.000  C
  H128     1.0000 0.88393  0.45167  0.34697  Biso   1.000  H
  C133     1.0000 0.93993  0.38687  0.35041  Biso   1.000  C
  H129     1.0000 0.89933  0.34007  0.34247  Biso   1.000  H
  C134     1.0000 0.00713  0.38867  0.35946  Biso   1.000  C
  H130     1.0000 0.01233  0.34267  0.35777  Biso   1.000  H
  C135     1.0000 0.06883  0.45707  0.37131  Biso   1.000  C
  C136     1.0000 0.13783  0.45417  0.38142  Biso   1.000  C
  C137     1.0000 0.13493  0.37597  0.38579  Biso   1.000  C
  H131     1.0000 0.16873  0.36957  0.37327  Biso   1.000  H
  H132     1.0000 0.07983  0.33227  0.38407  Biso   1.000  H
  H133     1.0000 0.15423  0.37527  0.40297  Biso   1.000  H
  C138     1.0000 0.33693  0.82647  0.30965  Biso   1.000  C
  H134     1.0000 0.35903  0.83557  0.32627  Biso   1.000  H
  C139     1.0000 0.32363  0.88457  0.29884  Biso   1.000  C
  H135     1.0000 0.33663  0.93187  0.30797  Biso   1.000  H
  C140     1.0000 0.29133  0.87257  0.27488  Biso   1.000  C
  C141     1.0000 0.27243  0.80227  0.26267  Biso   1.000  C
  H136     1.0000 0.24963  0.79167  0.24617  Biso   1.000  H
  C142     1.0000 0.28693  0.74707  0.27475  Biso   1.000  C
  H137     1.0000 0.27243  0.69847  0.26627  Biso   1.000  H
  C143     1.0000 0.27933  0.93617  0.26251  Biso   1.000  C
  H138     1.0000 0.26193  0.96127  0.27557  Biso   1.000  H
  H139     1.0000 0.23683  0.91147  0.24957  Biso   1.000  H
  H140     1.0000 0.39873  0.02497  0.26307  Biso   1.000  H
  Mn13     1.0000 0.40806  0.77635  0.38584  Biso   1.000  Mn
  O23      1.0000 0.47887  0.88602  0.38432  Biso   1.000  O
  O24      1.0000 0.24795  0.73601  0.39771  Biso   1.000  O
  N51      1.0000 0.42693  0.76477  0.34554  Biso   1.000  N
  N52      1.0000 0.48963  0.81377  0.33649  Biso   1.000  N
  N53      1.0000 0.54973  0.86087  0.32774  Biso   1.000  N
  N54      1.0000 0.31743  0.79737  0.38730  Biso   1.000  N
  N55      1.0000 0.43823  0.67947  0.29785  Biso   1.000  N
  C144     1.0000 0.46503  0.93917  0.37324  Biso   1.000  C
  C145     1.0000 0.53143  0.00917  0.36392  Biso   1.000  C
  H141     1.0000 0.58313  0.01537  0.36527  Biso   1.000  H
  C146     1.0000 0.52233  0.06897  0.35287  Biso   1.000  C
  H142     1.0000 0.56773  0.11607  0.34697  Biso   1.000  H
  C147     1.0000 0.44693  0.06007  0.35041  Biso   1.000  C
  H143     1.0000 0.44073  0.10067  0.34247  Biso   1.000  H
  C148     1.0000 0.38153  0.99287  0.35946  Biso   1.000  C
  H144     1.0000 0.33033  0.98767  0.35777  Biso   1.000  H
  C149     1.0000 0.38823  0.93117  0.37131  Biso   1.000  C
  C150     1.0000 0.31633  0.86217  0.38142  Biso   1.000  C
  C151     1.0000 0.24103  0.86507  0.38579  Biso   1.000  C
  H145     1.0000 0.20083  0.83127  0.37327  Biso   1.000  H
  H146     1.0000 0.25243  0.92017  0.38407  Biso   1.000  H
  H147     1.0000 0.22103  0.84577  0.40297  Biso   1.000  H
  C152     1.0000 0.48953  0.66307  0.30965  Biso   1.000  C
  H148     1.0000 0.47653  0.64097  0.32627  Biso   1.000  H
  C153     1.0000 0.56093  0.67637  0.29884  Biso   1.000  C
  H149     1.0000 0.59523  0.66337  0.30797  Biso   1.000  H
  C154     1.0000 0.58123  0.70867  0.27488  Biso   1.000  C
  C155     1.0000 0.52983  0.72757  0.26267  Biso   1.000  C
  H150     1.0000 0.54203  0.75037  0.24617  Biso   1.000  H
  C156     1.0000 0.46013  0.71307  0.27475  Biso   1.000  C
  H151     1.0000 0.42603  0.72757  0.26627  Biso   1.000  H
  C157     1.0000 0.65683  0.72067  0.26251  Biso   1.000  C
  H152     1.0000 0.69933  0.73807  0.27557  Biso   1.000  H
  H153     1.0000 0.67463  0.76317  0.24957  Biso   1.000  H
  H154     1.0000 0.62623  0.60127  0.26307  Biso   1.000  H
  Mn14     1.0000 0.36828  0.59194  0.38584  Biso   1.000  Mn
  O25      1.0000 0.40714  0.52113  0.38432  Biso   1.000  O
  O26      1.0000 0.48805  0.75205  0.39771  Biso   1.000  O
  N56      1.0000 0.33783  0.57307  0.34554  Biso   1.000  N
  N57      1.0000 0.32413  0.51037  0.33649  Biso   1.000  N
  N58      1.0000 0.31113  0.45027  0.32774  Biso   1.000  N
  N59      1.0000 0.47993  0.68257  0.38730  Biso   1.000  N
  N60      1.0000 0.24123  0.56177  0.29785  Biso   1.000  N
  C158     1.0000 0.47413  0.53497  0.37324  Biso   1.000  C
  C159     1.0000 0.47773  0.46857  0.36392  Biso   1.000  C
  H155     1.0000 0.43223  0.41687  0.36527  Biso   1.000  H
  C160     1.0000 0.54663  0.47767  0.35287  Biso   1.000  C
  H156     1.0000 0.54833  0.43227  0.34697  Biso   1.000  H
  C161     1.0000 0.61313  0.55307  0.35041  Biso   1.000  C
  H157     1.0000 0.65993  0.55927  0.34247  Biso   1.000  H
  C162     1.0000 0.61133  0.61847  0.35946  Biso   1.000  C
  H158     1.0000 0.65733  0.66967  0.35777  Biso   1.000  H
  C163     1.0000 0.54293  0.61177  0.37131  Biso   1.000  C
  C164     1.0000 0.54583  0.68367  0.38142  Biso   1.000  C
  C165     1.0000 0.62403  0.75897  0.38579  Biso   1.000  C
  H159     1.0000 0.63043  0.79917  0.37327  Biso   1.000  H
  H160     1.0000 0.66773  0.74757  0.38407  Biso   1.000  H
  H161     1.0000 0.62473  0.77897  0.40297  Biso   1.000  H
  C166     1.0000 0.17353  0.51047  0.30965  Biso   1.000  C
  H162     1.0000 0.16443  0.52347  0.32627  Biso   1.000  H
  C167     1.0000 0.11543  0.43907  0.29884  Biso   1.000  C
  H163     1.0000 0.06813  0.40477  0.30797  Biso   1.000  H
  C168     1.0000 0.12743  0.41877  0.27488  Biso   1.000  C
  C169     1.0000 0.19773  0.47017  0.26267  Biso   1.000  C
  H164     1.0000 0.20833  0.45797  0.24617  Biso   1.000  H
  C170     1.0000 0.25293  0.53987  0.27475  Biso   1.000  C
  H165     1.0000 0.30153  0.57397  0.26627  Biso   1.000  H
  C171     1.0000 0.06383  0.34317  0.26251  Biso   1.000  C
  H166     1.0000 0.03873  0.30067  0.27557  Biso   1.000  H
  H167     1.0000 0.08853  0.32537  0.24957  Biso   1.000  H
  H168     1.0000 0.97503  0.37377  0.26307  Biso   1.000  H
  Mn15     1.0000 0.66667  0.33333  0.17835  Biso   1.000  Mn
  O27      1.0000 0.66667  0.33333  0.11174  Biso   1.000  O
  Mn16     1.0000 0.33333  0.66667  0.32165  Biso   1.000  Mn
  O28      1.0000 0.33333  0.66667  0.38826  Biso   1.000  O
  C172     1.0000 0.00000  0.35635  0.25000  Biso   1.000  C
  C173     1.0000 0.64365  0.64365  0.25000  Biso   1.000  C
  C174     1.0000 0.35635  0.00000  0.25000  Biso   1.000  C
  Mn17     1.0000 0.29838  0.55699  0.44749  Biso   1.000  Mn
  O29      1.0000 0.25952  0.44732  0.44902  Biso   1.000  O
  O30      1.0000 0.17861  0.59733  0.43563  Biso   1.000  O
  N61      1.0000 0.32883  0.56857  0.48780  Biso   1.000  N
  N62      1.0000 0.34253  0.51957  0.49685  Biso   1.000  N
  N63      1.0000 0.35553  0.47247  0.50560  Biso   1.000  N
  N64      1.0000 0.18673  0.53597  0.44604  Biso   1.000  N
  N65      1.0000 0.42543  0.65387  0.53549  Biso   1.000  N
  C175     1.0000 0.19253  0.39417  0.46010  Biso   1.000  C
  C176     1.0000 0.18893  0.32417  0.46942  Biso   1.000  C
  H169     1.0000 0.23443  0.31797  0.46807  Biso   1.000  H
  C177     1.0000 0.12003  0.26437  0.48047  Biso   1.000  C
  H170     1.0000 0.11833  0.21727  0.48637  Biso   1.000  H
  C178     1.0000 0.05353  0.27327  0.48293  Biso   1.000  C
  H171     1.0000 0.00673  0.23267  0.49087  Biso   1.000  H
  C179     1.0000 0.05533  0.34047  0.47388  Biso   1.000  C
  H172     1.0000 0.00933  0.34567  0.47557  Biso   1.000  H
  C180     1.0000 0.12373  0.40217  0.46203  Biso   1.000  C
  C181     1.0000 0.12083  0.47117  0.45192  Biso   1.000  C
  C182     1.0000 0.04263  0.46827  0.44755  Biso   1.000  C
  H173     1.0000 0.03623  0.50207  0.46007  Biso   1.000  H
  H174     1.0000 0.99893  0.41317  0.44927  Biso   1.000  H
  H175     1.0000 0.04193  0.48757  0.43037  Biso   1.000  H
  C183     1.0000 0.49313  0.67027  0.52369  Biso   1.000  C
  H176     1.0000 0.50223  0.69237  0.50707  Biso   1.000  H
  C184     1.0000 0.55123  0.65697  0.53450  Biso   1.000  C
  H177     1.0000 0.59853  0.66997  0.52537  Biso   1.000  H
  C185     1.0000 0.53923  0.62467  0.55846  Biso   1.000  C
  C186     1.0000 0.46893  0.60577  0.57067  Biso   1.000  C
  H178     1.0000 0.45833  0.58297  0.58717  Biso   1.000  H
  C187     1.0000 0.41373  0.62027  0.55859  Biso   1.000  C
  H179     1.0000 0.36513  0.60577  0.56707  Biso   1.000  H
  C188     1.0000 0.60283  0.61267  0.57083  Biso   1.000  C
  H180     1.0000 0.62793  0.59527  0.55777  Biso   1.000  H
  H181     1.0000 0.57813  0.57017  0.58377  Biso   1.000  H
  H182     1.0000 0.69163  0.73207  0.57027  Biso   1.000  H
  Mn18     1.0000 0.44301  0.74140  0.44749  Biso   1.000  Mn
  O31      1.0000 0.55268  0.81221  0.44902  Biso   1.000  O
  O32      1.0000 0.40267  0.58129  0.43563  Biso   1.000  O
  N66      1.0000 0.43143  0.76027  0.48780  Biso   1.000  N
  N67      1.0000 0.48043  0.82297  0.49685  Biso   1.000  N
  N68      1.0000 0.52753  0.88307  0.50560  Biso   1.000  N
  N69      1.0000 0.46403  0.65077  0.44604  Biso   1.000  N
  N70      1.0000 0.34613  0.77157  0.53549  Biso   1.000  N
  C189     1.0000 0.60583  0.79837  0.46010  Biso   1.000  C
  C190     1.0000 0.67583  0.86477  0.46942  Biso   1.000  C
  H183     1.0000 0.68203  0.91647  0.46807  Biso   1.000  H
  C191     1.0000 0.73563  0.85567  0.48047  Biso   1.000  C
  H184     1.0000 0.78273  0.90107  0.48637  Biso   1.000  H
  C192     1.0000 0.72673  0.78027  0.48293  Biso   1.000  C
  H185     1.0000 0.76733  0.77407  0.49087  Biso   1.000  H
  C193     1.0000 0.65953  0.71487  0.47388  Biso   1.000  C
  H186     1.0000 0.65433  0.66367  0.47557  Biso   1.000  H
  C194     1.0000 0.59783  0.72157  0.46203  Biso   1.000  C
  C195     1.0000 0.52883  0.64967  0.45192  Biso   1.000  C
  C196     1.0000 0.53173  0.57437  0.44755  Biso   1.000  C
  H187     1.0000 0.49793  0.53417  0.46007  Biso   1.000  H
  H188     1.0000 0.58683  0.58577  0.44927  Biso   1.000  H
  H189     1.0000 0.51243  0.55437  0.43037  Biso   1.000  H
  C197     1.0000 0.32973  0.82287  0.52369  Biso   1.000  C
  H190     1.0000 0.30763  0.80987  0.50707  Biso   1.000  H
  C198     1.0000 0.34303  0.89427  0.53450  Biso   1.000  C
  H191     1.0000 0.33003  0.92857  0.52537  Biso   1.000  H
  C199     1.0000 0.37533  0.91457  0.55846  Biso   1.000  C
  C200     1.0000 0.39423  0.86317  0.57067  Biso   1.000  C
  H192     1.0000 0.41703  0.87537  0.58717  Biso   1.000  H
  C201     1.0000 0.37973  0.79347  0.55859  Biso   1.000  C
  H193     1.0000 0.39423  0.75937  0.56707  Biso   1.000  H
  C202     1.0000 0.38733  0.99017  0.57083  Biso   1.000  C
  H194     1.0000 0.40473  0.03267  0.55777  Biso   1.000  H
  H195     1.0000 0.42983  0.00797  0.58377  Biso   1.000  H
  H196     1.0000 0.26793  0.95957  0.57027  Biso   1.000  H
  Mn19     1.0000 0.25860  0.70162  0.44749  Biso   1.000  Mn
  O33      1.0000 0.18779  0.74048  0.44902  Biso   1.000  O
  O34      1.0000 0.41871  0.82139  0.43563  Biso   1.000  O
  N71      1.0000 0.23973  0.67117  0.48780  Biso   1.000  N
  N72      1.0000 0.17703  0.65747  0.49685  Biso   1.000  N
  N73      1.0000 0.11693  0.64447  0.50560  Biso   1.000  N
  N74      1.0000 0.34923  0.81327  0.44604  Biso   1.000  N
  N75      1.0000 0.22843  0.57457  0.53549  Biso   1.000  N
  C203     1.0000 0.20163  0.80747  0.46010  Biso   1.000  C
  C204     1.0000 0.13523  0.81107  0.46942  Biso   1.000  C
  H197     1.0000 0.08353  0.76557  0.46807  Biso   1.000  H
  C205     1.0000 0.14433  0.87997  0.48047  Biso   1.000  C
  H198     1.0000 0.09893  0.88167  0.48637  Biso   1.000  H
  C206     1.0000 0.21973  0.94647  0.48293  Biso   1.000  C
  H199     1.0000 0.22593  0.99327  0.49087  Biso   1.000  H
  C207     1.0000 0.28513  0.94467  0.47388  Biso   1.000  C
  H200     1.0000 0.33633  0.99067  0.47557  Biso   1.000  H
  C208     1.0000 0.27843  0.87627  0.46203  Biso   1.000  C
  C209     1.0000 0.35033  0.87917  0.45192  Biso   1.000  C
  C210     1.0000 0.42563  0.95737  0.44755  Biso   1.000  C
  H201     1.0000 0.46583  0.96377  0.46007  Biso   1.000  H
  H202     1.0000 0.41423  0.00107  0.44927  Biso   1.000  H
  H203     1.0000 0.44563  0.95807  0.43037  Biso   1.000  H
  C211     1.0000 0.17713  0.50687  0.52369  Biso   1.000  C
  H204     1.0000 0.19013  0.49777  0.50707  Biso   1.000  H
  C212     1.0000 0.10573  0.44877  0.53450  Biso   1.000  C
  H205     1.0000 0.07143  0.40147  0.52537  Biso   1.000  H
  C213     1.0000 0.08543  0.46077  0.55846  Biso   1.000  C
  C214     1.0000 0.13683  0.53107  0.57067  Biso   1.000  C
  H206     1.0000 0.12463  0.54167  0.58717  Biso   1.000  H
  C215     1.0000 0.20653  0.58627  0.55859  Biso   1.000  C
  H207     1.0000 0.24063  0.63487  0.56707  Biso   1.000  H
  C216     1.0000 0.00983  0.39717  0.57083  Biso   1.000  C
  H208     1.0000 0.96733  0.37207  0.55777  Biso   1.000  H
  H209     1.0000 0.99203  0.42187  0.58377  Biso   1.000  H
  H210     1.0000 0.04043  0.30837  0.57027  Biso   1.000  H
  Mn20     1.0000 0.89032  0.96505  0.71917  Biso   1.000  Mn
  O35      1.0000 0.78065  0.92619  0.71765  Biso   1.000  O
  O36      1.0000 0.93066  0.84528  0.73104  Biso   1.000  O
  N76      1.0000 0.90190  0.99550  0.67887  Biso   1.000  N
  N77      1.0000 0.85290  0.00920  0.66982  Biso   1.000  N
  N78      1.0000 0.80580  0.02220  0.66107  Biso   1.000  N
  N79      1.0000 0.86930  0.85340  0.72063  Biso   1.000  N
  N80      1.0000 0.98720  0.09210  0.63118  Biso   1.000  N
  C217     1.0000 0.72750  0.85920  0.70657  Biso   1.000  C
  C218     1.0000 0.65750  0.85560  0.69725  Biso   1.000  C
  H211     1.0000 0.65130  0.90110  0.69860  Biso   1.000  H
  C219     1.0000 0.59770  0.78670  0.68620  Biso   1.000  C
  H212     1.0000 0.55060  0.78500  0.68030  Biso   1.000  H
  C220     1.0000 0.60660  0.72020  0.68374  Biso   1.000  C
  H213     1.0000 0.56600  0.67340  0.67580  Biso   1.000  H
  C221     1.0000 0.67380  0.72200  0.69279  Biso   1.000  C
  H214     1.0000 0.67900  0.67600  0.69110  Biso   1.000  H
  C222     1.0000 0.73550  0.79040  0.70464  Biso   1.000  C
  C223     1.0000 0.80450  0.78750  0.71475  Biso   1.000  C
  C224     1.0000 0.80160  0.70930  0.71912  Biso   1.000  C
  H215     1.0000 0.83540  0.70290  0.70660  Biso   1.000  H
  H216     1.0000 0.74650  0.66560  0.71740  Biso   1.000  H
  H217     1.0000 0.82090  0.70860  0.73630  Biso   1.000  H
  C225     1.0000 0.00360  0.15980  0.64298  Biso   1.000  C
  H218     1.0000 0.02570  0.16890  0.65960  Biso   1.000  H
  C226     1.0000 0.99030  0.21790  0.63217  Biso   1.000  C
  H219     1.0000 0.00330  0.26520  0.64130  Biso   1.000  H
  C227     1.0000 0.95800  0.20590  0.60821  Biso   1.000  C
  C228     1.0000 0.93910  0.13560  0.59600  Biso   1.000  C
  H220     1.0000 0.91630  0.12500  0.57950  Biso   1.000  H
  C229     1.0000 0.95360  0.08040  0.60808  Biso   1.000  C
  H221     1.0000 0.93910  0.03180  0.59960  Biso   1.000  H
  C230     1.0000 0.94600  0.26950  0.59584  Biso   1.000  C
  H222     1.0000 0.92860  0.29460  0.60890  Biso   1.000  H
  H223     1.0000 0.90350  0.24480  0.58290  Biso   1.000  H
  H224     1.0000 0.06540  0.35830  0.59640  Biso   1.000  H
  Mn21     1.0000 0.07473  0.10968  0.71917  Biso   1.000  Mn
  O37      1.0000 0.14554  0.21935  0.71765  Biso   1.000  O
  O38      1.0000 0.91462  0.06934  0.73104  Biso   1.000  O
  N81      1.0000 0.09360  0.09810  0.67887  Biso   1.000  N
  N82      1.0000 0.15630  0.14710  0.66982  Biso   1.000  N
  N83      1.0000 0.21640  0.19420  0.66107  Biso   1.000  N
  N84      1.0000 0.98410  0.13070  0.72063  Biso   1.000  N
  N85      1.0000 0.10490  0.01280  0.63118  Biso   1.000  N
  C231     1.0000 0.13170  0.27250  0.70657  Biso   1.000  C
  C232     1.0000 0.19810  0.34250  0.69725  Biso   1.000  C
  H225     1.0000 0.24980  0.34870  0.69860  Biso   1.000  H
  C233     1.0000 0.18900  0.40230  0.68620  Biso   1.000  C
  H226     1.0000 0.23440  0.44940  0.68030  Biso   1.000  H
  C234     1.0000 0.11360  0.39340  0.68374  Biso   1.000  C
  H227     1.0000 0.10740  0.43400  0.67580  Biso   1.000  H
  C235     1.0000 0.04820  0.32620  0.69279  Biso   1.000  C
  H228     1.0000 0.99700  0.32100  0.69110  Biso   1.000  H
  C236     1.0000 0.05490  0.26450  0.70464  Biso   1.000  C
  C237     1.0000 0.98300  0.19550  0.71475  Biso   1.000  C
  C238     1.0000 0.90770  0.19840  0.71912  Biso   1.000  C
  H229     1.0000 0.86750  0.16460  0.70660  Biso   1.000  H
  H230     1.0000 0.91910  0.25350  0.71740  Biso   1.000  H
  H231     1.0000 0.88770  0.17910  0.73630  Biso   1.000  H
  C239     1.0000 0.15620  0.99640  0.64298  Biso   1.000  C
  H232     1.0000 0.14320  0.97430  0.65960  Biso   1.000  H
  C240     1.0000 0.22760  0.00970  0.63217  Biso   1.000  C
  H233     1.0000 0.26190  0.99670  0.64130  Biso   1.000  H
  C241     1.0000 0.24790  0.04200  0.60821  Biso   1.000  C
  C242     1.0000 0.19650  0.06090  0.59600  Biso   1.000  C
  H234     1.0000 0.20870  0.08370  0.57950  Biso   1.000  H
  C243     1.0000 0.12680  0.04640  0.60808  Biso   1.000  C
  H235     1.0000 0.09270  0.06090  0.59960  Biso   1.000  H
  C244     1.0000 0.32350  0.05400  0.59584  Biso   1.000  C
  H236     1.0000 0.36600  0.07140  0.60890  Biso   1.000  H
  H237     1.0000 0.34130  0.09650  0.58290  Biso   1.000  H
  H238     1.0000 0.29290  0.93460  0.59640  Biso   1.000  H
  Mn22     1.0000 0.03495  0.92527  0.71917  Biso   1.000  Mn
  O39      1.0000 0.07381  0.85446  0.71765  Biso   1.000  O
  O40      1.0000 0.15472  0.08538  0.73104  Biso   1.000  O
  N86      1.0000 0.00450  0.90640  0.67887  Biso   1.000  N
  N87      1.0000 0.99080  0.84370  0.66982  Biso   1.000  N
  N88      1.0000 0.97780  0.78360  0.66107  Biso   1.000  N
  N89      1.0000 0.14660  0.01590  0.72063  Biso   1.000  N
  N90      1.0000 0.90790  0.89510  0.63118  Biso   1.000  N
  C245     1.0000 0.14080  0.86830  0.70657  Biso   1.000  C
  C246     1.0000 0.14440  0.80190  0.69725  Biso   1.000  C
  H239     1.0000 0.09890  0.75020  0.69860  Biso   1.000  H
  C247     1.0000 0.21330  0.81100  0.68620  Biso   1.000  C
  H240     1.0000 0.21500  0.76560  0.68030  Biso   1.000  H
  C248     1.0000 0.27980  0.88640  0.68374  Biso   1.000  C
  H241     1.0000 0.32660  0.89260  0.67580  Biso   1.000  H
  C249     1.0000 0.27800  0.95180  0.69279  Biso   1.000  C
  H242     1.0000 0.32400  0.00300  0.69110  Biso   1.000  H
  C250     1.0000 0.20960  0.94510  0.70464  Biso   1.000  C
  C251     1.0000 0.21250  0.01700  0.71475  Biso   1.000  C
  C252     1.0000 0.29070  0.09230  0.71912  Biso   1.000  C
  H243     1.0000 0.29710  0.13250  0.70660  Biso   1.000  H
  H244     1.0000 0.33440  0.08090  0.71740  Biso   1.000  H
  H245     1.0000 0.29140  0.11230  0.73630  Biso   1.000  H
  C253     1.0000 0.84020  0.84380  0.64298  Biso   1.000  C
  H246     1.0000 0.83110  0.85680  0.65960  Biso   1.000  H
  C254     1.0000 0.78210  0.77240  0.63217  Biso   1.000  C
  H247     1.0000 0.73480  0.73810  0.64130  Biso   1.000  H
  C255     1.0000 0.79410  0.75210  0.60821  Biso   1.000  C
  C256     1.0000 0.86440  0.80350  0.59600  Biso   1.000  C
  H248     1.0000 0.87500  0.79130  0.57950  Biso   1.000  H
  C257     1.0000 0.91960  0.87320  0.60808  Biso   1.000  C
  H249     1.0000 0.96820  0.90730  0.59960  Biso   1.000  H
  C258     1.0000 0.73050  0.67650  0.59584  Biso   1.000  C
  H250     1.0000 0.70540  0.63400  0.60890  Biso   1.000  H
  H251     1.0000 0.75520  0.65870  0.58290  Biso   1.000  H
  H252     1.0000 0.64170  0.70710  0.59640  Biso   1.000  H
  Mn23     1.0000 0.33333  0.66667  0.51169  Biso   1.000  Mn
  O41      1.0000 0.33333  0.66667  0.44508  Biso   1.000  O
  Mn24     1.0000 0.00000  0.00000  0.65498  Biso   1.000  Mn
  O42      1.0000 0.00000  0.00000  0.72159  Biso   1.000  O
  C259     1.0000 0.02302  0.33333  0.58333  Biso   1.000  C
  C260     1.0000 0.31032  0.97698  0.58333  Biso   1.000  C
  C261     1.0000 0.66667  0.68968  0.58333  Biso   1.000  C
  Mn25     1.0000 0.03495  0.10968  0.21917  Biso   1.000  Mn
  O43      1.0000 0.07381  0.21935  0.21765  Biso   1.000  O
  O44      1.0000 0.15472  0.06934  0.23104  Biso   1.000  O
  N91      1.0000 0.00450  0.09810  0.17887  Biso   1.000  N
  N92      1.0000 0.99080  0.14710  0.16982  Biso   1.000  N
  N93      1.0000 0.97780  0.19420  0.16107  Biso   1.000  N
  N94      1.0000 0.14660  0.13070  0.22063  Biso   1.000  N
  N95      1.0000 0.90790  0.01280  0.13118  Biso   1.000  N
  C262     1.0000 0.14080  0.27250  0.20657  Biso   1.000  C
  C263     1.0000 0.14440  0.34250  0.19725  Biso   1.000  C
  H253     1.0000 0.09890  0.34870  0.19860  Biso   1.000  H
  C264     1.0000 0.21330  0.40230  0.18620  Biso   1.000  C
  H254     1.0000 0.21500  0.44940  0.18030  Biso   1.000  H
  C265     1.0000 0.27980  0.39340  0.18374  Biso   1.000  C
  H255     1.0000 0.32660  0.43400  0.17580  Biso   1.000  H
  C266     1.0000 0.27800  0.32620  0.19279  Biso   1.000  C
  H256     1.0000 0.32400  0.32100  0.19110  Biso   1.000  H
  C267     1.0000 0.20960  0.26450  0.20464  Biso   1.000  C
  C268     1.0000 0.21250  0.19550  0.21475  Biso   1.000  C
  C269     1.0000 0.29070  0.19840  0.21912  Biso   1.000  C
  H257     1.0000 0.29710  0.16460  0.20660  Biso   1.000  H
  H258     1.0000 0.33440  0.25350  0.21740  Biso   1.000  H
  H259     1.0000 0.29140  0.17910  0.23630  Biso   1.000  H
  C270     1.0000 0.84020  0.99640  0.14298  Biso   1.000  C
  H260     1.0000 0.83110  0.97430  0.15960  Biso   1.000  H
  C271     1.0000 0.78210  0.00970  0.13217  Biso   1.000  C
  H261     1.0000 0.73480  0.99670  0.14130  Biso   1.000  H
  C272     1.0000 0.79410  0.04200  0.10821  Biso   1.000  C
  C273     1.0000 0.86440  0.06090  0.09600  Biso   1.000  C
  H262     1.0000 0.87500  0.08370  0.07950  Biso   1.000  H
  C274     1.0000 0.91960  0.04640  0.10808  Biso   1.000  C
  H263     1.0000 0.96820  0.06090  0.09960  Biso   1.000  H
  C275     1.0000 0.73050  0.05400  0.09584  Biso   1.000  C
  H264     1.0000 0.70540  0.07140  0.10890  Biso   1.000  H
  H265     1.0000 0.75520  0.09650  0.08290  Biso   1.000  H
  H266     1.0000 0.64170  0.93460  0.09640  Biso   1.000  H
  Mn26     1.0000 0.89032  0.92527  0.21917  Biso   1.000  Mn
  O45      1.0000 0.78065  0.85446  0.21765  Biso   1.000  O
  O46      1.0000 0.93066  0.08538  0.23104  Biso   1.000  O
  N96      1.0000 0.90190  0.90640  0.17887  Biso   1.000  N
  N97      1.0000 0.85290  0.84370  0.16982  Biso   1.000  N
  N98      1.0000 0.80580  0.78360  0.16107  Biso   1.000  N
  N99      1.0000 0.86930  0.01590  0.22063  Biso   1.000  N
  N100     1.0000 0.98720  0.89510  0.13118  Biso   1.000  N
  C276     1.0000 0.72750  0.86830  0.20657  Biso   1.000  C
  C277     1.0000 0.65750  0.80190  0.19725  Biso   1.000  C
  H267     1.0000 0.65130  0.75020  0.19860  Biso   1.000  H
  C278     1.0000 0.59770  0.81100  0.18620  Biso   1.000  C
  H268     1.0000 0.55060  0.76560  0.18030  Biso   1.000  H
  C279     1.0000 0.60660  0.88640  0.18374  Biso   1.000  C
  H269     1.0000 0.56600  0.89260  0.17580  Biso   1.000  H
  C280     1.0000 0.67380  0.95180  0.19279  Biso   1.000  C
  H270     1.0000 0.67900  0.00300  0.19110  Biso   1.000  H
  C281     1.0000 0.73550  0.94510  0.20464  Biso   1.000  C
  C282     1.0000 0.80450  0.01700  0.21475  Biso   1.000  C
  C283     1.0000 0.80160  0.09230  0.21912  Biso   1.000  C
  H271     1.0000 0.83540  0.13250  0.20660  Biso   1.000  H
  H272     1.0000 0.74650  0.08090  0.21740  Biso   1.000  H
  H273     1.0000 0.82090  0.11230  0.23630  Biso   1.000  H
  C284     1.0000 0.00360  0.84380  0.14298  Biso   1.000  C
  H274     1.0000 0.02570  0.85680  0.15960  Biso   1.000  H
  C285     1.0000 0.99030  0.77240  0.13217  Biso   1.000  C
  H275     1.0000 0.00330  0.73810  0.14130  Biso   1.000  H
  C286     1.0000 0.95800  0.75210  0.10821  Biso   1.000  C
  C287     1.0000 0.93910  0.80350  0.09600  Biso   1.000  C
  H276     1.0000 0.91630  0.79130  0.07950  Biso   1.000  H
  C288     1.0000 0.95360  0.87320  0.10808  Biso   1.000  C
  H277     1.0000 0.93910  0.90730  0.09960  Biso   1.000  H
  C289     1.0000 0.94600  0.67650  0.09584  Biso   1.000  C
  H278     1.0000 0.92860  0.63400  0.10890  Biso   1.000  H
  H279     1.0000 0.90350  0.65870  0.08290  Biso   1.000  H
  H280     1.0000 0.06540  0.70710  0.09640  Biso   1.000  H
  Mn27     1.0000 0.07473  0.96505  0.21917  Biso   1.000  Mn
  O47      1.0000 0.14554  0.92619  0.21765  Biso   1.000  O
  O48      1.0000 0.91462  0.84528  0.23104  Biso   1.000  O
  N101     1.0000 0.09360  0.99550  0.17887  Biso   1.000  N
  N102     1.0000 0.15630  0.00920  0.16982  Biso   1.000  N
  N103     1.0000 0.21640  0.02220  0.16107  Biso   1.000  N
  N104     1.0000 0.98410  0.85340  0.22063  Biso   1.000  N
  N105     1.0000 0.10490  0.09210  0.13118  Biso   1.000  N
  C290     1.0000 0.13170  0.85920  0.20657  Biso   1.000  C
  C291     1.0000 0.19810  0.85560  0.19725  Biso   1.000  C
  H281     1.0000 0.24980  0.90110  0.19860  Biso   1.000  H
  C292     1.0000 0.18900  0.78670  0.18620  Biso   1.000  C
  H282     1.0000 0.23440  0.78500  0.18030  Biso   1.000  H
  C293     1.0000 0.11360  0.72020  0.18374  Biso   1.000  C
  H283     1.0000 0.10740  0.67340  0.17580  Biso   1.000  H
  C294     1.0000 0.04820  0.72200  0.19279  Biso   1.000  C
  H284     1.0000 0.99700  0.67600  0.19110  Biso   1.000  H
  C295     1.0000 0.05490  0.79040  0.20464  Biso   1.000  C
  C296     1.0000 0.98300  0.78750  0.21475  Biso   1.000  C
  C297     1.0000 0.90770  0.70930  0.21912  Biso   1.000  C
  H285     1.0000 0.86750  0.70290  0.20660  Biso   1.000  H
  H286     1.0000 0.91910  0.66560  0.21740  Biso   1.000  H
  H287     1.0000 0.88770  0.70860  0.23630  Biso   1.000  H
  C298     1.0000 0.15620  0.15980  0.14298  Biso   1.000  C
  H288     1.0000 0.14320  0.16890  0.15960  Biso   1.000  H
  C299     1.0000 0.22760  0.21790  0.13217  Biso   1.000  C
  H289     1.0000 0.26190  0.26520  0.14130  Biso   1.000  H
  C300     1.0000 0.24790  0.20590  0.10821  Biso   1.000  C
  C301     1.0000 0.19650  0.13560  0.09600  Biso   1.000  C
  H290     1.0000 0.20870  0.12500  0.07950  Biso   1.000  H
  C302     1.0000 0.12680  0.08040  0.10808  Biso   1.000  C
  H291     1.0000 0.09270  0.03180  0.09960  Biso   1.000  H
  C303     1.0000 0.32350  0.26950  0.09584  Biso   1.000  C
  H292     1.0000 0.36600  0.29460  0.10890  Biso   1.000  H
  H293     1.0000 0.34130  0.24480  0.08290  Biso   1.000  H
  H294     1.0000 0.29290  0.35830  0.09640  Biso   1.000  H
  Mn28     1.0000 0.44301  0.70162  0.94749  Biso   1.000  Mn
  O49      1.0000 0.55268  0.74048  0.94902  Biso   1.000  O
  O50      1.0000 0.40267  0.82139  0.93563  Biso   1.000  O
  N106     1.0000 0.43143  0.67117  0.98780  Biso   1.000  N
  N107     1.0000 0.48043  0.65747  0.99685  Biso   1.000  N
  N108     1.0000 0.52753  0.64447  0.00560  Biso   1.000  N
  N109     1.0000 0.46403  0.81327  0.94604  Biso   1.000  N
  N110     1.0000 0.34613  0.57457  0.03549  Biso   1.000  N
  C304     1.0000 0.60583  0.80747  0.96010  Biso   1.000  C
  C305     1.0000 0.67583  0.81107  0.96942  Biso   1.000  C
  H295     1.0000 0.68203  0.76557  0.96807  Biso   1.000  H
  C306     1.0000 0.73563  0.87997  0.98047  Biso   1.000  C
  H296     1.0000 0.78273  0.88167  0.98637  Biso   1.000  H
  C307     1.0000 0.72673  0.94647  0.98293  Biso   1.000  C
  H297     1.0000 0.76733  0.99327  0.99087  Biso   1.000  H
  C308     1.0000 0.65953  0.94467  0.97388  Biso   1.000  C
  H298     1.0000 0.65433  0.99067  0.97557  Biso   1.000  H
  C309     1.0000 0.59783  0.87627  0.96203  Biso   1.000  C
  C310     1.0000 0.52883  0.87917  0.95192  Biso   1.000  C
  C311     1.0000 0.53173  0.95737  0.94755  Biso   1.000  C
  H299     1.0000 0.49793  0.96377  0.96007  Biso   1.000  H
  H300     1.0000 0.58683  0.00107  0.94927  Biso   1.000  H
  H301     1.0000 0.51243  0.95807  0.93037  Biso   1.000  H
  C312     1.0000 0.32973  0.50687  0.02369  Biso   1.000  C
  H302     1.0000 0.30763  0.49777  0.00707  Biso   1.000  H
  C313     1.0000 0.34303  0.44877  0.03450  Biso   1.000  C
  H303     1.0000 0.33003  0.40147  0.02537  Biso   1.000  H
  C314     1.0000 0.37533  0.46077  0.05846  Biso   1.000  C
  C315     1.0000 0.39423  0.53107  0.07067  Biso   1.000  C
  H304     1.0000 0.41703  0.54167  0.08717  Biso   1.000  H
  C316     1.0000 0.37973  0.58627  0.05859  Biso   1.000  C
  H305     1.0000 0.39423  0.63487  0.06707  Biso   1.000  H
  C317     1.0000 0.38733  0.39717  0.07083  Biso   1.000  C
  H306     1.0000 0.40473  0.37207  0.05777  Biso   1.000  H
  H307     1.0000 0.42983  0.42187  0.08377  Biso   1.000  H
  H308     1.0000 0.26793  0.30837  0.07027  Biso   1.000  H
  Mn29     1.0000 0.25860  0.55699  0.94749  Biso   1.000  Mn
  O51      1.0000 0.18779  0.44732  0.94902  Biso   1.000  O
  O52      1.0000 0.41871  0.59733  0.93563  Biso   1.000  O
  N111     1.0000 0.23973  0.56857  0.98780  Biso   1.000  N
  N112     1.0000 0.17703  0.51957  0.99685  Biso   1.000  N
  N113     1.0000 0.11693  0.47247  0.00560  Biso   1.000  N
  N114     1.0000 0.34923  0.53597  0.94604  Biso   1.000  N
  N115     1.0000 0.22843  0.65387  0.03549  Biso   1.000  N
  C318     1.0000 0.20163  0.39417  0.96010  Biso   1.000  C
  C319     1.0000 0.13523  0.32417  0.96942  Biso   1.000  C
  H309     1.0000 0.08353  0.31797  0.96807  Biso   1.000  H
  C320     1.0000 0.14433  0.26437  0.98047  Biso   1.000  C
  H310     1.0000 0.09893  0.21727  0.98637  Biso   1.000  H
  C321     1.0000 0.21973  0.27327  0.98293  Biso   1.000  C
  H311     1.0000 0.22593  0.23267  0.99087  Biso   1.000  H
  C322     1.0000 0.28513  0.34047  0.97388  Biso   1.000  C
  H312     1.0000 0.33633  0.34567  0.97557  Biso   1.000  H
  C323     1.0000 0.27843  0.40217  0.96203  Biso   1.000  C
  C324     1.0000 0.35033  0.47117  0.95192  Biso   1.000  C
  C325     1.0000 0.42563  0.46827  0.94755  Biso   1.000  C
  H313     1.0000 0.46583  0.50207  0.96007  Biso   1.000  H
  H314     1.0000 0.41423  0.41317  0.94927  Biso   1.000  H
  H315     1.0000 0.44563  0.48757  0.93037  Biso   1.000  H
  C326     1.0000 0.17713  0.67027  0.02369  Biso   1.000  C
  H316     1.0000 0.19013  0.69237  0.00707  Biso   1.000  H
  C327     1.0000 0.10573  0.65697  0.03450  Biso   1.000  C
  H317     1.0000 0.07143  0.66997  0.02537  Biso   1.000  H
  C328     1.0000 0.08543  0.62467  0.05846  Biso   1.000  C
  C329     1.0000 0.13683  0.60577  0.07067  Biso   1.000  C
  H318     1.0000 0.12463  0.58297  0.08717  Biso   1.000  H
  C330     1.0000 0.20653  0.62027  0.05859  Biso   1.000  C
  H319     1.0000 0.24063  0.60577  0.06707  Biso   1.000  H
  C331     1.0000 0.00983  0.61267  0.07083  Biso   1.000  C
  H320     1.0000 0.96733  0.59527  0.05777  Biso   1.000  H
  H321     1.0000 0.99203  0.57017  0.08377  Biso   1.000  H
  H322     1.0000 0.04043  0.73207  0.07027  Biso   1.000  H
  Mn30     1.0000 0.29838  0.74140  0.94749  Biso   1.000  Mn
  O53      1.0000 0.25952  0.81221  0.94902  Biso   1.000  O
  O54      1.0000 0.17861  0.58129  0.93563  Biso   1.000  O
  N116     1.0000 0.32883  0.76027  0.98780  Biso   1.000  N
  N117     1.0000 0.34253  0.82297  0.99685  Biso   1.000  N
  N118     1.0000 0.35553  0.88307  0.00560  Biso   1.000  N
  N119     1.0000 0.18673  0.65077  0.94604  Biso   1.000  N
  N120     1.0000 0.42543  0.77157  0.03549  Biso   1.000  N
  C332     1.0000 0.19253  0.79837  0.96010  Biso   1.000  C
  C333     1.0000 0.18893  0.86477  0.96942  Biso   1.000  C
  H323     1.0000 0.23443  0.91647  0.96807  Biso   1.000  H
  C334     1.0000 0.12003  0.85567  0.98047  Biso   1.000  C
  H324     1.0000 0.11833  0.90107  0.98637  Biso   1.000  H
  C335     1.0000 0.05353  0.78027  0.98293  Biso   1.000  C
  H325     1.0000 0.00673  0.77407  0.99087  Biso   1.000  H
  C336     1.0000 0.05533  0.71487  0.97388  Biso   1.000  C
  H326     1.0000 0.00933  0.66367  0.97557  Biso   1.000  H
  C337     1.0000 0.12373  0.72157  0.96203  Biso   1.000  C
  C338     1.0000 0.12083  0.64967  0.95192  Biso   1.000  C
  C339     1.0000 0.04263  0.57437  0.94755  Biso   1.000  C
  H327     1.0000 0.03623  0.53417  0.96007  Biso   1.000  H
  H328     1.0000 0.99893  0.58577  0.94927  Biso   1.000  H
  H329     1.0000 0.04193  0.55437  0.93037  Biso   1.000  H
  C340     1.0000 0.49313  0.82287  0.02369  Biso   1.000  C
  H330     1.0000 0.50223  0.80987  0.00707  Biso   1.000  H
  C341     1.0000 0.55123  0.89427  0.03450  Biso   1.000  C
  H331     1.0000 0.59853  0.92857  0.02537  Biso   1.000  H
  C342     1.0000 0.53923  0.91457  0.05846  Biso   1.000  C
  C343     1.0000 0.46893  0.86317  0.07067  Biso   1.000  C
  H332     1.0000 0.45833  0.87537  0.08717  Biso   1.000  H
  C344     1.0000 0.41373  0.79347  0.05859  Biso   1.000  C
  H333     1.0000 0.36513  0.75937  0.06707  Biso   1.000  H
  C345     1.0000 0.60283  0.99017  0.07083  Biso   1.000  C
  H334     1.0000 0.62793  0.03267  0.05777  Biso   1.000  H
  H335     1.0000 0.57813  0.00797  0.08377  Biso   1.000  H
  H336     1.0000 0.69163  0.95957  0.07027  Biso   1.000  H
  Mn31     1.0000 0.00000  0.00000  0.15498  Biso   1.000  Mn
  O55      1.0000 0.00000  0.00000  0.22159  Biso   1.000  O
  Mn32     1.0000 0.33333  0.66667  0.01169  Biso   1.000  Mn
  O56      1.0000 0.33333  0.66667  0.94508  Biso   1.000  O
  C346     1.0000 0.66667  0.97698  0.08333  Biso   1.000  C
  C347     1.0000 0.02302  0.68968  0.08333  Biso   1.000  C
  C348     1.0000 0.31032  0.33333  0.08333  Biso   1.000  C
  Mn33     1.0000 0.70162  0.44301  0.55251  Biso   1.000  Mn
  O57      1.0000 0.74048  0.55268  0.55098  Biso   1.000  O
  O58      1.0000 0.82139  0.40267  0.56437  Biso   1.000  O
  N121     1.0000 0.67117  0.43143  0.51220  Biso   1.000  N
  N122     1.0000 0.65747  0.48043  0.50315  Biso   1.000  N
  N123     1.0000 0.64447  0.52753  0.49440  Biso   1.000  N
  N124     1.0000 0.81327  0.46403  0.55396  Biso   1.000  N
  N125     1.0000 0.57457  0.34613  0.46451  Biso   1.000  N
  C349     1.0000 0.80747  0.60583  0.53990  Biso   1.000  C
  C350     1.0000 0.81107  0.67583  0.53058  Biso   1.000  C
  H337     1.0000 0.76557  0.68203  0.53193  Biso   1.000  H
  C351     1.0000 0.87997  0.73563  0.51953  Biso   1.000  C
  H338     1.0000 0.88167  0.78273  0.51363  Biso   1.000  H
  C352     1.0000 0.94647  0.72673  0.51707  Biso   1.000  C
  H339     1.0000 0.99327  0.76733  0.50913  Biso   1.000  H
  C353     1.0000 0.94467  0.65953  0.52612  Biso   1.000  C
  H340     1.0000 0.99067  0.65433  0.52443  Biso   1.000  H
  C354     1.0000 0.87627  0.59783  0.53797  Biso   1.000  C
  C355     1.0000 0.87917  0.52883  0.54808  Biso   1.000  C
  C356     1.0000 0.95737  0.53173  0.55245  Biso   1.000  C
  H341     1.0000 0.96377  0.49793  0.53993  Biso   1.000  H
  H342     1.0000 0.00107  0.58683  0.55073  Biso   1.000  H
  H343     1.0000 0.95807  0.51243  0.56963  Biso   1.000  H
  C357     1.0000 0.50687  0.32973  0.47631  Biso   1.000  C
  H344     1.0000 0.49777  0.30763  0.49293  Biso   1.000  H
  C358     1.0000 0.44877  0.34303  0.46550  Biso   1.000  C
  H345     1.0000 0.40147  0.33003  0.47463  Biso   1.000  H
  C359     1.0000 0.46077  0.37533  0.44154  Biso   1.000  C
  C360     1.0000 0.53107  0.39423  0.42933  Biso   1.000  C
  H346     1.0000 0.54167  0.41703  0.41283  Biso   1.000  H
  C361     1.0000 0.58627  0.37973  0.44141  Biso   1.000  C
  H347     1.0000 0.63487  0.39423  0.43293  Biso   1.000  H
  C362     1.0000 0.39717  0.38733  0.42917  Biso   1.000  C
  H348     1.0000 0.37207  0.40473  0.44223  Biso   1.000  H
  H349     1.0000 0.42187  0.42983  0.41623  Biso   1.000  H
  H350     1.0000 0.30837  0.26793  0.42973  Biso   1.000  H
  Mn34     1.0000 0.55699  0.25860  0.55251  Biso   1.000  Mn
  O59      1.0000 0.44732  0.18779  0.55098  Biso   1.000  O
  O60      1.0000 0.59733  0.41871  0.56437  Biso   1.000  O
  N126     1.0000 0.56857  0.23973  0.51220  Biso   1.000  N
  N127     1.0000 0.51957  0.17703  0.50315  Biso   1.000  N
  N128     1.0000 0.47247  0.11693  0.49440  Biso   1.000  N
  N129     1.0000 0.53597  0.34923  0.55396  Biso   1.000  N
  N130     1.0000 0.65387  0.22843  0.46451  Biso   1.000  N
  C363     1.0000 0.39417  0.20163  0.53990  Biso   1.000  C
  C364     1.0000 0.32417  0.13523  0.53058  Biso   1.000  C
  H351     1.0000 0.31797  0.08353  0.53193  Biso   1.000  H
  C365     1.0000 0.26437  0.14433  0.51953  Biso   1.000  C
  H352     1.0000 0.21727  0.09893  0.51363  Biso   1.000  H
  C366     1.0000 0.27327  0.21973  0.51707  Biso   1.000  C
  H353     1.0000 0.23267  0.22593  0.50913  Biso   1.000  H
  C367     1.0000 0.34047  0.28513  0.52612  Biso   1.000  C
  H354     1.0000 0.34567  0.33633  0.52443  Biso   1.000  H
  C368     1.0000 0.40217  0.27843  0.53797  Biso   1.000  C
  C369     1.0000 0.47117  0.35033  0.54808  Biso   1.000  C
  C370     1.0000 0.46827  0.42563  0.55245  Biso   1.000  C
  H355     1.0000 0.50207  0.46583  0.53993  Biso   1.000  H
  H356     1.0000 0.41317  0.41423  0.55073  Biso   1.000  H
  H357     1.0000 0.48757  0.44563  0.56963  Biso   1.000  H
  C371     1.0000 0.67027  0.17713  0.47631  Biso   1.000  C
  H358     1.0000 0.69237  0.19013  0.49293  Biso   1.000  H
  C372     1.0000 0.65697  0.10573  0.46550  Biso   1.000  C
  H359     1.0000 0.66997  0.07143  0.47463  Biso   1.000  H
  C373     1.0000 0.62467  0.08543  0.44154  Biso   1.000  C
  C374     1.0000 0.60577  0.13683  0.42933  Biso   1.000  C
  H360     1.0000 0.58297  0.12463  0.41283  Biso   1.000  H
  C375     1.0000 0.62027  0.20653  0.44141  Biso   1.000  C
  H361     1.0000 0.60577  0.24063  0.43293  Biso   1.000  H
  C376     1.0000 0.61267  0.00983  0.42917  Biso   1.000  C
  H362     1.0000 0.59527  0.96733  0.44223  Biso   1.000  H
  H363     1.0000 0.57017  0.99203  0.41623  Biso   1.000  H
  H364     1.0000 0.73207  0.04043  0.42973  Biso   1.000  H
  Mn35     1.0000 0.74140  0.29838  0.55251  Biso   1.000  Mn
  O61      1.0000 0.81221  0.25952  0.55098  Biso   1.000  O
  O62      1.0000 0.58129  0.17861  0.56437  Biso   1.000  O
  N131     1.0000 0.76027  0.32883  0.51220  Biso   1.000  N
  N132     1.0000 0.82297  0.34253  0.50315  Biso   1.000  N
  N133     1.0000 0.88307  0.35553  0.49440  Biso   1.000  N
  N134     1.0000 0.65077  0.18673  0.55396  Biso   1.000  N
  N135     1.0000 0.77157  0.42543  0.46451  Biso   1.000  N
  C377     1.0000 0.79837  0.19253  0.53990  Biso   1.000  C
  C378     1.0000 0.86477  0.18893  0.53058  Biso   1.000  C
  H365     1.0000 0.91647  0.23443  0.53193  Biso   1.000  H
  C379     1.0000 0.85567  0.12003  0.51953  Biso   1.000  C
  H366     1.0000 0.90107  0.11833  0.51363  Biso   1.000  H
  C380     1.0000 0.78027  0.05353  0.51707  Biso   1.000  C
  H367     1.0000 0.77407  0.00673  0.50913  Biso   1.000  H
  C381     1.0000 0.71487  0.05533  0.52612  Biso   1.000  C
  H368     1.0000 0.66367  0.00933  0.52443  Biso   1.000  H
  C382     1.0000 0.72157  0.12373  0.53797  Biso   1.000  C
  C383     1.0000 0.64967  0.12083  0.54808  Biso   1.000  C
  C384     1.0000 0.57437  0.04263  0.55245  Biso   1.000  C
  H369     1.0000 0.53417  0.03623  0.53993  Biso   1.000  H
  H370     1.0000 0.58577  0.99893  0.55073  Biso   1.000  H
  H371     1.0000 0.55437  0.04193  0.56963  Biso   1.000  H
  C385     1.0000 0.82287  0.49313  0.47631  Biso   1.000  C
  H372     1.0000 0.80987  0.50223  0.49293  Biso   1.000  H
  C386     1.0000 0.89427  0.55123  0.46550  Biso   1.000  C
  H373     1.0000 0.92857  0.59853  0.47463  Biso   1.000  H
  C387     1.0000 0.91457  0.53923  0.44154  Biso   1.000  C
  C388     1.0000 0.86317  0.46893  0.42933  Biso   1.000  C
  H374     1.0000 0.87537  0.45833  0.41283  Biso   1.000  H
  C389     1.0000 0.79347  0.41373  0.44141  Biso   1.000  C
  H375     1.0000 0.75937  0.36513  0.43293  Biso   1.000  H
  C390     1.0000 0.99017  0.60283  0.42917  Biso   1.000  C
  H376     1.0000 0.03267  0.62793  0.44223  Biso   1.000  H
  H377     1.0000 0.00797  0.57813  0.41623  Biso   1.000  H
  H378     1.0000 0.95957  0.69163  0.42973  Biso   1.000  H
  Mn36     1.0000 0.10968  0.03495  0.28083  Biso   1.000  Mn
  O63      1.0000 0.21935  0.07381  0.28235  Biso   1.000  O
  O64      1.0000 0.06934  0.15472  0.26896  Biso   1.000  O
  N136     1.0000 0.09810  0.00450  0.32113  Biso   1.000  N
  N137     1.0000 0.14710  0.99080  0.33018  Biso   1.000  N
  N138     1.0000 0.19420  0.97780  0.33893  Biso   1.000  N
  N139     1.0000 0.13070  0.14660  0.27937  Biso   1.000  N
  N140     1.0000 0.01280  0.90790  0.36882  Biso   1.000  N
  C391     1.0000 0.27250  0.14080  0.29343  Biso   1.000  C
  C392     1.0000 0.34250  0.14440  0.30275  Biso   1.000  C
  H379     1.0000 0.34870  0.09890  0.30140  Biso   1.000  H
  C393     1.0000 0.40230  0.21330  0.31380  Biso   1.000  C
  H380     1.0000 0.44940  0.21500  0.31970  Biso   1.000  H
  C394     1.0000 0.39340  0.27980  0.31626  Biso   1.000  C
  H381     1.0000 0.43400  0.32660  0.32420  Biso   1.000  H
  C395     1.0000 0.32620  0.27800  0.30721  Biso   1.000  C
  H382     1.0000 0.32100  0.32400  0.30890  Biso   1.000  H
  C396     1.0000 0.26450  0.20960  0.29536  Biso   1.000  C
  C397     1.0000 0.19550  0.21250  0.28525  Biso   1.000  C
  C398     1.0000 0.19840  0.29070  0.28088  Biso   1.000  C
  H383     1.0000 0.16460  0.29710  0.29340  Biso   1.000  H
  H384     1.0000 0.25350  0.33440  0.28260  Biso   1.000  H
  H385     1.0000 0.17910  0.29140  0.26370  Biso   1.000  H
  C399     1.0000 0.99640  0.84020  0.35702  Biso   1.000  C
  H386     1.0000 0.97430  0.83110  0.34040  Biso   1.000  H
  C400     1.0000 0.00970  0.78210  0.36783  Biso   1.000  C
  H387     1.0000 0.99670  0.73480  0.35870  Biso   1.000  H
  C401     1.0000 0.04200  0.79410  0.39179  Biso   1.000  C
  C402     1.0000 0.06090  0.86440  0.40400  Biso   1.000  C
  H388     1.0000 0.08370  0.87500  0.42050  Biso   1.000  H
  C403     1.0000 0.04640  0.91960  0.39192  Biso   1.000  C
  H389     1.0000 0.06090  0.96820  0.40040  Biso   1.000  H
  C404     1.0000 0.05400  0.73050  0.40416  Biso   1.000  C
  H390     1.0000 0.07140  0.70540  0.39110  Biso   1.000  H
  H391     1.0000 0.09650  0.75520  0.41710  Biso   1.000  H
  H392     1.0000 0.93460  0.64170  0.40360  Biso   1.000  H
  Mn37     1.0000 0.92527  0.89032  0.28083  Biso   1.000  Mn
  O65      1.0000 0.85446  0.78065  0.28235  Biso   1.000  O
  O66      1.0000 0.08538  0.93066  0.26896  Biso   1.000  O
  N141     1.0000 0.90640  0.90190  0.32113  Biso   1.000  N
  N142     1.0000 0.84370  0.85290  0.33018  Biso   1.000  N
  N143     1.0000 0.78360  0.80580  0.33893  Biso   1.000  N
  N144     1.0000 0.01590  0.86930  0.27937  Biso   1.000  N
  N145     1.0000 0.89510  0.98720  0.36882  Biso   1.000  N
  C405     1.0000 0.86830  0.72750  0.29343  Biso   1.000  C
  C406     1.0000 0.80190  0.65750  0.30275  Biso   1.000  C
  H393     1.0000 0.75020  0.65130  0.30140  Biso   1.000  H
  C407     1.0000 0.81100  0.59770  0.31380  Biso   1.000  C
  H394     1.0000 0.76560  0.55060  0.31970  Biso   1.000  H
  C408     1.0000 0.88640  0.60660  0.31626  Biso   1.000  C
  H395     1.0000 0.89260  0.56600  0.32420  Biso   1.000  H
  C409     1.0000 0.95180  0.67380  0.30721  Biso   1.000  C
  H396     1.0000 0.00300  0.67900  0.30890  Biso   1.000  H
  C410     1.0000 0.94510  0.73550  0.29536  Biso   1.000  C
  C411     1.0000 0.01700  0.80450  0.28525  Biso   1.000  C
  C412     1.0000 0.09230  0.80160  0.28088  Biso   1.000  C
  H397     1.0000 0.13250  0.83540  0.29340  Biso   1.000  H
  H398     1.0000 0.08090  0.74650  0.28260  Biso   1.000  H
  H399     1.0000 0.11230  0.82090  0.26370  Biso   1.000  H
  C413     1.0000 0.84380  0.00360  0.35702  Biso   1.000  C
  H400     1.0000 0.85680  0.02570  0.34040  Biso   1.000  H
  C414     1.0000 0.77240  0.99030  0.36783  Biso   1.000  C
  H401     1.0000 0.73810  0.00330  0.35870  Biso   1.000  H
  C415     1.0000 0.75210  0.95800  0.39179  Biso   1.000  C
  C416     1.0000 0.80350  0.93910  0.40400  Biso   1.000  C
  H402     1.0000 0.79130  0.91630  0.42050  Biso   1.000  H
  C417     1.0000 0.87320  0.95360  0.39192  Biso   1.000  C
  H403     1.0000 0.90730  0.93910  0.40040  Biso   1.000  H
  C418     1.0000 0.67650  0.94600  0.40416  Biso   1.000  C
  H404     1.0000 0.63400  0.92860  0.39110  Biso   1.000  H
  H405     1.0000 0.65870  0.90350  0.41710  Biso   1.000  H
  H406     1.0000 0.70710  0.06540  0.40360  Biso   1.000  H
  Mn38     1.0000 0.96505  0.07473  0.28083  Biso   1.000  Mn
  O67      1.0000 0.92619  0.14554  0.28235  Biso   1.000  O
  O68      1.0000 0.84528  0.91462  0.26896  Biso   1.000  O
  N146     1.0000 0.99550  0.09360  0.32113  Biso   1.000  N
  N147     1.0000 0.00920  0.15630  0.33018  Biso   1.000  N
  N148     1.0000 0.02220  0.21640  0.33893  Biso   1.000  N
  N149     1.0000 0.85340  0.98410  0.27937  Biso   1.000  N
  N150     1.0000 0.09210  0.10490  0.36882  Biso   1.000  N
  C419     1.0000 0.85920  0.13170  0.29343  Biso   1.000  C
  C420     1.0000 0.85560  0.19810  0.30275  Biso   1.000  C
  H407     1.0000 0.90110  0.24980  0.30140  Biso   1.000  H
  C421     1.0000 0.78670  0.18900  0.31380  Biso   1.000  C
  H408     1.0000 0.78500  0.23440  0.31970  Biso   1.000  H
  C422     1.0000 0.72020  0.11360  0.31626  Biso   1.000  C
  H409     1.0000 0.67340  0.10740  0.32420  Biso   1.000  H
  C423     1.0000 0.72200  0.04820  0.30721  Biso   1.000  C
  H410     1.0000 0.67600  0.99700  0.30890  Biso   1.000  H
  C424     1.0000 0.79040  0.05490  0.29536  Biso   1.000  C
  C425     1.0000 0.78750  0.98300  0.28525  Biso   1.000  C
  C426     1.0000 0.70930  0.90770  0.28088  Biso   1.000  C
  H411     1.0000 0.70290  0.86750  0.29340  Biso   1.000  H
  H412     1.0000 0.66560  0.91910  0.28260  Biso   1.000  H
  H413     1.0000 0.70860  0.88770  0.26370  Biso   1.000  H
  C427     1.0000 0.15980  0.15620  0.35702  Biso   1.000  C
  H414     1.0000 0.16890  0.14320  0.34040  Biso   1.000  H
  C428     1.0000 0.21790  0.22760  0.36783  Biso   1.000  C
  H415     1.0000 0.26520  0.26190  0.35870  Biso   1.000  H
  C429     1.0000 0.20590  0.24790  0.39179  Biso   1.000  C
  C430     1.0000 0.13560  0.19650  0.40400  Biso   1.000  C
  H416     1.0000 0.12500  0.20870  0.42050  Biso   1.000  H
  C431     1.0000 0.08040  0.12680  0.39192  Biso   1.000  C
  H417     1.0000 0.03180  0.09270  0.40040  Biso   1.000  H
  C432     1.0000 0.26950  0.32350  0.40416  Biso   1.000  C
  H418     1.0000 0.29460  0.36600  0.39110  Biso   1.000  H
  H419     1.0000 0.24480  0.34130  0.41710  Biso   1.000  H
  H420     1.0000 0.35830  0.29290  0.40360  Biso   1.000  H
  Mn39     1.0000 0.66667  0.33333  0.48831  Biso   1.000  Mn
  O69      1.0000 0.66667  0.33333  0.55492  Biso   1.000  O
  Mn40     1.0000 0.00000  0.00000  0.34502  Biso   1.000  Mn
  O70      1.0000 0.00000  0.00000  0.27841  Biso   1.000  O
  C433     1.0000 0.97698  0.66667  0.41667  Biso   1.000  C
  C434     1.0000 0.68968  0.02302  0.41667  Biso   1.000  C
  C435     1.0000 0.33333  0.31032  0.41667  Biso   1.000  C
  Mn41     1.0000 0.36828  0.77635  0.88584  Biso   1.000  Mn
  O71      1.0000 0.40714  0.88602  0.88432  Biso   1.000  O
  O72      1.0000 0.48805  0.73601  0.89771  Biso   1.000  O
  N151     1.0000 0.33783  0.76477  0.84554  Biso   1.000  N
  N152     1.0000 0.32413  0.81377  0.83649  Biso   1.000  N
  N153     1.0000 0.31113  0.86087  0.82774  Biso   1.000  N
  N154     1.0000 0.47993  0.79737  0.88730  Biso   1.000  N
  N155     1.0000 0.24123  0.67947  0.79785  Biso   1.000  N
  C436     1.0000 0.47413  0.93917  0.87324  Biso   1.000  C
  C437     1.0000 0.47773  0.00917  0.86392  Biso   1.000  C
  H421     1.0000 0.43223  0.01537  0.86527  Biso   1.000  H
  C438     1.0000 0.54663  0.06897  0.85287  Biso   1.000  C
  H422     1.0000 0.54833  0.11607  0.84697  Biso   1.000  H
  C439     1.0000 0.61313  0.06007  0.85041  Biso   1.000  C
  H423     1.0000 0.65993  0.10067  0.84247  Biso   1.000  H
  C440     1.0000 0.61133  0.99287  0.85946  Biso   1.000  C
  H424     1.0000 0.65733  0.98767  0.85777  Biso   1.000  H
  C441     1.0000 0.54293  0.93117  0.87131  Biso   1.000  C
  C442     1.0000 0.54583  0.86217  0.88142  Biso   1.000  C
  C443     1.0000 0.62403  0.86507  0.88579  Biso   1.000  C
  H425     1.0000 0.63043  0.83127  0.87327  Biso   1.000  H
  H426     1.0000 0.66773  0.92017  0.88407  Biso   1.000  H
  H427     1.0000 0.62473  0.84577  0.90297  Biso   1.000  H
  C444     1.0000 0.17353  0.66307  0.80965  Biso   1.000  C
  H428     1.0000 0.16443  0.64097  0.82627  Biso   1.000  H
  C445     1.0000 0.11543  0.67637  0.79884  Biso   1.000  C
  H429     1.0000 0.06813  0.66337  0.80797  Biso   1.000  H
  C446     1.0000 0.12743  0.70867  0.77488  Biso   1.000  C
  C447     1.0000 0.19773  0.72757  0.76267  Biso   1.000  C
  H430     1.0000 0.20833  0.75037  0.74617  Biso   1.000  H
  C448     1.0000 0.25293  0.71307  0.77475  Biso   1.000  C
  H431     1.0000 0.30153  0.72757  0.76627  Biso   1.000  H
  C449     1.0000 0.06383  0.72067  0.76251  Biso   1.000  C
  H432     1.0000 0.03873  0.73807  0.77557  Biso   1.000  H
  H433     1.0000 0.08853  0.76317  0.74957  Biso   1.000  H
  H434     1.0000 0.97503  0.60127  0.76307  Biso   1.000  H
  Mn42     1.0000 0.22365  0.59194  0.88584  Biso   1.000  Mn
  O73      1.0000 0.11398  0.52113  0.88432  Biso   1.000  O
  O74      1.0000 0.26399  0.75205  0.89771  Biso   1.000  O
  N156     1.0000 0.23523  0.57307  0.84554  Biso   1.000  N
  N157     1.0000 0.18623  0.51037  0.83649  Biso   1.000  N
  N158     1.0000 0.13913  0.45027  0.82774  Biso   1.000  N
  N159     1.0000 0.20263  0.68257  0.88730  Biso   1.000  N
  N160     1.0000 0.32053  0.56177  0.79785  Biso   1.000  N
  C450     1.0000 0.06083  0.53497  0.87324  Biso   1.000  C
  C451     1.0000 0.99083  0.46857  0.86392  Biso   1.000  C
  H435     1.0000 0.98463  0.41687  0.86527  Biso   1.000  H
  C452     1.0000 0.93103  0.47767  0.85287  Biso   1.000  C
  H436     1.0000 0.88393  0.43227  0.84697  Biso   1.000  H
  C453     1.0000 0.93993  0.55307  0.85041  Biso   1.000  C
  H437     1.0000 0.89933  0.55927  0.84247  Biso   1.000  H
  C454     1.0000 0.00713  0.61847  0.85946  Biso   1.000  C
  H438     1.0000 0.01233  0.66967  0.85777  Biso   1.000  H
  C455     1.0000 0.06883  0.61177  0.87131  Biso   1.000  C
  C456     1.0000 0.13783  0.68367  0.88142  Biso   1.000  C
  C457     1.0000 0.13493  0.75897  0.88579  Biso   1.000  C
  H439     1.0000 0.16873  0.79917  0.87327  Biso   1.000  H
  H440     1.0000 0.07983  0.74757  0.88407  Biso   1.000  H
  H441     1.0000 0.15423  0.77897  0.90297  Biso   1.000  H
  C458     1.0000 0.33693  0.51047  0.80965  Biso   1.000  C
  H442     1.0000 0.35903  0.52347  0.82627  Biso   1.000  H
  C459     1.0000 0.32363  0.43907  0.79884  Biso   1.000  C
  H443     1.0000 0.33663  0.40477  0.80797  Biso   1.000  H
  C460     1.0000 0.29133  0.41877  0.77488  Biso   1.000  C
  C461     1.0000 0.27243  0.47017  0.76267  Biso   1.000  C
  H444     1.0000 0.24963  0.45797  0.74617  Biso   1.000  H
  C462     1.0000 0.28693  0.53987  0.77475  Biso   1.000  C
  H445     1.0000 0.27243  0.57397  0.76627  Biso   1.000  H
  C463     1.0000 0.27933  0.34317  0.76251  Biso   1.000  C
  H446     1.0000 0.26193  0.30067  0.77557  Biso   1.000  H
  H447     1.0000 0.23683  0.32537  0.74957  Biso   1.000  H
  H448     1.0000 0.39873  0.37377  0.76307  Biso   1.000  H
  Mn43     1.0000 0.40806  0.63172  0.88584  Biso   1.000  Mn
  O75      1.0000 0.47887  0.59286  0.88432  Biso   1.000  O
  O76      1.0000 0.24795  0.51195  0.89771  Biso   1.000  O
  N161     1.0000 0.42693  0.66217  0.84554  Biso   1.000  N
  N162     1.0000 0.48963  0.67587  0.83649  Biso   1.000  N
  N163     1.0000 0.54973  0.68887  0.82774  Biso   1.000  N
  N164     1.0000 0.31743  0.52007  0.88730  Biso   1.000  N
  N165     1.0000 0.43823  0.75877  0.79785  Biso   1.000  N
  C464     1.0000 0.46503  0.52587  0.87324  Biso   1.000  C
  C465     1.0000 0.53143  0.52227  0.86392  Biso   1.000  C
  H449     1.0000 0.58313  0.56777  0.86527  Biso   1.000  H
  C466     1.0000 0.52233  0.45337  0.85287  Biso   1.000  C
  H450     1.0000 0.56773  0.45167  0.84697  Biso   1.000  H
  C467     1.0000 0.44693  0.38687  0.85041  Biso   1.000  C
  H451     1.0000 0.44073  0.34007  0.84247  Biso   1.000  H
  C468     1.0000 0.38153  0.38867  0.85946  Biso   1.000  C
  H452     1.0000 0.33033  0.34267  0.85777  Biso   1.000  H
  C469     1.0000 0.38823  0.45707  0.87131  Biso   1.000  C
  C470     1.0000 0.31633  0.45417  0.88142  Biso   1.000  C
  C471     1.0000 0.24103  0.37597  0.88579  Biso   1.000  C
  H453     1.0000 0.20083  0.36957  0.87327  Biso   1.000  H
  H454     1.0000 0.25243  0.33227  0.88407  Biso   1.000  H
  H455     1.0000 0.22103  0.37527  0.90297  Biso   1.000  H
  C472     1.0000 0.48953  0.82647  0.80965  Biso   1.000  C
  H456     1.0000 0.47653  0.83557  0.82627  Biso   1.000  H
  C473     1.0000 0.56093  0.88457  0.79884  Biso   1.000  C
  H457     1.0000 0.59523  0.93187  0.80797  Biso   1.000  H
  C474     1.0000 0.58123  0.87257  0.77488  Biso   1.000  C
  C475     1.0000 0.52983  0.80227  0.76267  Biso   1.000  C
  H458     1.0000 0.54203  0.79167  0.74617  Biso   1.000  H
  C476     1.0000 0.46013  0.74707  0.77475  Biso   1.000  C
  H459     1.0000 0.42603  0.69847  0.76627  Biso   1.000  H
  C477     1.0000 0.65683  0.93617  0.76251  Biso   1.000  C
  H460     1.0000 0.69933  0.96127  0.77557  Biso   1.000  H
  H461     1.0000 0.67463  0.91147  0.74957  Biso   1.000  H
  H462     1.0000 0.62623  0.02497  0.76307  Biso   1.000  H
  Mn44     1.0000 0.77635  0.36828  0.61416  Biso   1.000  Mn
  O77      1.0000 0.88602  0.40714  0.61568  Biso   1.000  O
  O78      1.0000 0.73601  0.48805  0.60229  Biso   1.000  O
  N166     1.0000 0.76477  0.33783  0.65446  Biso   1.000  N
  N167     1.0000 0.81377  0.32413  0.66351  Biso   1.000  N
  N168     1.0000 0.86087  0.31113  0.67226  Biso   1.000  N
  N169     1.0000 0.79737  0.47993  0.61270  Biso   1.000  N
  N170     1.0000 0.67947  0.24123  0.70215  Biso   1.000  N
  C478     1.0000 0.93917  0.47413  0.62676  Biso   1.000  C
  C479     1.0000 0.00917  0.47773  0.63608  Biso   1.000  C
  H463     1.0000 0.01537  0.43223  0.63473  Biso   1.000  H
  C480     1.0000 0.06897  0.54663  0.64713  Biso   1.000  C
  H464     1.0000 0.11607  0.54833  0.65303  Biso   1.000  H
  C481     1.0000 0.06007  0.61313  0.64959  Biso   1.000  C
  H465     1.0000 0.10067  0.65993  0.65753  Biso   1.000  H
  C482     1.0000 0.99287  0.61133  0.64054  Biso   1.000  C
  H466     1.0000 0.98767  0.65733  0.64223  Biso   1.000  H
  C483     1.0000 0.93117  0.54293  0.62869  Biso   1.000  C
  C484     1.0000 0.86217  0.54583  0.61858  Biso   1.000  C
  C485     1.0000 0.86507  0.62403  0.61421  Biso   1.000  C
  H467     1.0000 0.83127  0.63043  0.62673  Biso   1.000  H
  H468     1.0000 0.92017  0.66773  0.61593  Biso   1.000  H
  H469     1.0000 0.84577  0.62473  0.59703  Biso   1.000  H
  C486     1.0000 0.66307  0.17353  0.69035  Biso   1.000  C
  H470     1.0000 0.64097  0.16443  0.67373  Biso   1.000  H
  C487     1.0000 0.67637  0.11543  0.70116  Biso   1.000  C
  H471     1.0000 0.66337  0.06813  0.69203  Biso   1.000  H
  C488     1.0000 0.70867  0.12743  0.72512  Biso   1.000  C
  C489     1.0000 0.72757  0.19773  0.73733  Biso   1.000  C
  H472     1.0000 0.75037  0.20833  0.75383  Biso   1.000  H
  C490     1.0000 0.71307  0.25293  0.72525  Biso   1.000  C
  H473     1.0000 0.72757  0.30153  0.73373  Biso   1.000  H
  C491     1.0000 0.72067  0.06383  0.73749  Biso   1.000  C
  H474     1.0000 0.73807  0.03873  0.72443  Biso   1.000  H
  H475     1.0000 0.76317  0.08853  0.75043  Biso   1.000  H
  H476     1.0000 0.60127  0.97503  0.73693  Biso   1.000  H
  Mn45     1.0000 0.59194  0.22365  0.61416  Biso   1.000  Mn
  O79      1.0000 0.52113  0.11398  0.61568  Biso   1.000  O
  O80      1.0000 0.75205  0.26399  0.60229  Biso   1.000  O
  N171     1.0000 0.57307  0.23523  0.65446  Biso   1.000  N
  N172     1.0000 0.51037  0.18623  0.66351  Biso   1.000  N
  N173     1.0000 0.45027  0.13913  0.67226  Biso   1.000  N
  N174     1.0000 0.68257  0.20263  0.61270  Biso   1.000  N
  N175     1.0000 0.56177  0.32053  0.70215  Biso   1.000  N
  C492     1.0000 0.53497  0.06083  0.62676  Biso   1.000  C
  C493     1.0000 0.46857  0.99083  0.63608  Biso   1.000  C
  H477     1.0000 0.41687  0.98463  0.63473  Biso   1.000  H
  C494     1.0000 0.47767  0.93103  0.64713  Biso   1.000  C
  H478     1.0000 0.43227  0.88393  0.65303  Biso   1.000  H
  C495     1.0000 0.55307  0.93993  0.64959  Biso   1.000  C
  H479     1.0000 0.55927  0.89933  0.65753  Biso   1.000  H
  C496     1.0000 0.61847  0.00713  0.64054  Biso   1.000  C
  H480     1.0000 0.66967  0.01233  0.64223  Biso   1.000  H
  C497     1.0000 0.61177  0.06883  0.62869  Biso   1.000  C
  C498     1.0000 0.68367  0.13783  0.61858  Biso   1.000  C
  C499     1.0000 0.75897  0.13493  0.61421  Biso   1.000  C
  H481     1.0000 0.79917  0.16873  0.62673  Biso   1.000  H
  H482     1.0000 0.74757  0.07983  0.61593  Biso   1.000  H
  H483     1.0000 0.77897  0.15423  0.59703  Biso   1.000  H
  C500     1.0000 0.51047  0.33693  0.69035  Biso   1.000  C
  H484     1.0000 0.52347  0.35903  0.67373  Biso   1.000  H
  C501     1.0000 0.43907  0.32363  0.70116  Biso   1.000  C
  H485     1.0000 0.40477  0.33663  0.69203  Biso   1.000  H
  C502     1.0000 0.41877  0.29133  0.72512  Biso   1.000  C
  C503     1.0000 0.47017  0.27243  0.73733  Biso   1.000  C
  H486     1.0000 0.45797  0.24963  0.75383  Biso   1.000  H
  C504     1.0000 0.53987  0.28693  0.72525  Biso   1.000  C
  H487     1.0000 0.57397  0.27243  0.73373  Biso   1.000  H
  C505     1.0000 0.34317  0.27933  0.73749  Biso   1.000  C
  H488     1.0000 0.30067  0.26193  0.72443  Biso   1.000  H
  H489     1.0000 0.32537  0.23683  0.75043  Biso   1.000  H
  H490     1.0000 0.37377  0.39873  0.73693  Biso   1.000  H
  Mn46     1.0000 0.63172  0.40806  0.61416  Biso   1.000  Mn
  O81      1.0000 0.59286  0.47887  0.61568  Biso   1.000  O
  O82      1.0000 0.51195  0.24795  0.60229  Biso   1.000  O
  N176     1.0000 0.66217  0.42693  0.65446  Biso   1.000  N
  N177     1.0000 0.67587  0.48963  0.66351  Biso   1.000  N
  N178     1.0000 0.68887  0.54973  0.67226  Biso   1.000  N
  N179     1.0000 0.52007  0.31743  0.61270  Biso   1.000  N
  N180     1.0000 0.75877  0.43823  0.70215  Biso   1.000  N
  C506     1.0000 0.52587  0.46503  0.62676  Biso   1.000  C
  C507     1.0000 0.52227  0.53143  0.63608  Biso   1.000  C
  H491     1.0000 0.56777  0.58313  0.63473  Biso   1.000  H
  C508     1.0000 0.45337  0.52233  0.64713  Biso   1.000  C
  H492     1.0000 0.45167  0.56773  0.65303  Biso   1.000  H
  C509     1.0000 0.38687  0.44693  0.64959  Biso   1.000  C
  H493     1.0000 0.34007  0.44073  0.65753  Biso   1.000  H
  C510     1.0000 0.38867  0.38153  0.64054  Biso   1.000  C
  H494     1.0000 0.34267  0.33033  0.64223  Biso   1.000  H
  C511     1.0000 0.45707  0.38823  0.62869  Biso   1.000  C
  C512     1.0000 0.45417  0.31633  0.61858  Biso   1.000  C
  C513     1.0000 0.37597  0.24103  0.61421  Biso   1.000  C
  H495     1.0000 0.36957  0.20083  0.62673  Biso   1.000  H
  H496     1.0000 0.33227  0.25243  0.61593  Biso   1.000  H
  H497     1.0000 0.37527  0.22103  0.59703  Biso   1.000  H
  C514     1.0000 0.82647  0.48953  0.69035  Biso   1.000  C
  H498     1.0000 0.83557  0.47653  0.67373  Biso   1.000  H
  C515     1.0000 0.88457  0.56093  0.70116  Biso   1.000  C
  H499     1.0000 0.93187  0.59523  0.69203  Biso   1.000  H
  C516     1.0000 0.87257  0.58123  0.72512  Biso   1.000  C
  C517     1.0000 0.80227  0.52983  0.73733  Biso   1.000  C
  H500     1.0000 0.79167  0.54203  0.75383  Biso   1.000  H
  C518     1.0000 0.74707  0.46013  0.72525  Biso   1.000  C
  H501     1.0000 0.69847  0.42603  0.73373  Biso   1.000  H
  C519     1.0000 0.93617  0.65683  0.73749  Biso   1.000  C
  H502     1.0000 0.96127  0.69933  0.72443  Biso   1.000  H
  H503     1.0000 0.91147  0.67463  0.75043  Biso   1.000  H
  H504     1.0000 0.02497  0.62623  0.73693  Biso   1.000  H
  Mn47     1.0000 0.33333  0.66667  0.82165  Biso   1.000  Mn
  O83      1.0000 0.33333  0.66667  0.88826  Biso   1.000  O
  Mn48     1.0000 0.66667  0.33333  0.67835  Biso   1.000  Mn
  O84      1.0000 0.66667  0.33333  0.61174  Biso   1.000  O
  C520     1.0000 0.64365  0.00000  0.75000  Biso   1.000  C
  C521     1.0000 0.35635  0.35635  0.75000  Biso   1.000  C
  C522     1.0000 0.00000  0.64365  0.75000  Biso   1.000  C
