data_VETSOE_charged
_audit_creation_date              2014-07-02
_audit_creation_method            'Materials Studio'
_symmetry_space_group_name_H-M    'P1'
_symmetry_Int_Tables_number       1
_symmetry_cell_setting            triclinic
loop_
_symmetry_equiv_pos_as_xyz
  x,y,z
_cell_length_a                    35.7945
_cell_length_b                    35.7945
_cell_length_c                    35.7945
_cell_angle_alpha                 60.0000
_cell_angle_beta                  60.0000
_cell_angle_gamma                 60.0000
loop_
_atom_site_label
_atom_site_type_symbol
_atom_site_fract_x
_atom_site_fract_y
_atom_site_fract_z
_atom_site_U_iso_or_equiv
_atom_site_adp_type
_atom_site_occupancy
Mn1    Mn    0.46362   0.06367   0.93633   0.01267  Uiso   1.00
Mn2    Mn    0.06367   0.46362   0.53638   0.01267  Uiso   1.00
Mn3    Mn    0.93633   0.53638   0.46362   0.01267  Uiso   1.00
Mn4    Mn    0.53638   0.93633   0.06367   0.01267  Uiso   1.00
Mn5    Mn    0.46362   0.93633   0.53638   0.01267  Uiso   1.00
Mn6    Mn    0.06367   0.53638   0.93633   0.01267  Uiso   1.00
Mn7    Mn    0.93633   0.46362   0.06367   0.01267  Uiso   1.00
Mn8    Mn    0.53638   0.06367   0.46362   0.01267  Uiso   1.00
Mn9    Mn    0.46362   0.53638   0.06367   0.01267  Uiso   1.00
Mn10   Mn    0.06367   0.93633   0.46362   0.01267  Uiso   1.00
Mn11   Mn    0.93633   0.06367   0.53638   0.01267  Uiso   1.00
Mn12   Mn    0.53638   0.46362   0.93633   0.01267  Uiso   1.00
Mn13   Mn    0.43633   0.03638   0.56367   0.01267  Uiso   1.00
Mn14   Mn    0.03638   0.43633   0.96362   0.01267  Uiso   1.00
Mn15   Mn    0.96362   0.56367   0.03638   0.01267  Uiso   1.00
Mn16   Mn    0.56367   0.96362   0.43633   0.01267  Uiso   1.00
Mn17   Mn    0.56367   0.03638   0.96362   0.01267  Uiso   1.00
Mn18   Mn    0.96362   0.43633   0.56367   0.01267  Uiso   1.00
Mn19   Mn    0.03638   0.56367   0.43633   0.01267  Uiso   1.00
Mn20   Mn    0.43633   0.96362   0.03638   0.01267  Uiso   1.00
Mn21   Mn    0.96362   0.03638   0.43633   0.01267  Uiso   1.00
Mn22   Mn    0.56367   0.43633   0.03638   0.01267  Uiso   1.00
Mn23   Mn    0.43633   0.56367   0.96362   0.01267  Uiso   1.00
Mn24   Mn    0.03638   0.96362   0.56367   0.01267  Uiso   1.00
H1     H     0.45100   0.90820   0.96260   0.01267  Uiso   1.00
H2     H     0.45250   0.97970   0.81030   0.01267  Uiso   1.00
H3     H     0.45050   0.01930   0.84830   0.01267  Uiso   1.00
H4     H     0.38040   0.87200   0.96020   0.01267  Uiso   1.00
H5     H     0.40580   0.86060   0.99280   0.01267  Uiso   1.00
H6     H     0.40470   0.81990   0.98670   0.01267  Uiso   1.00
H7     H     0.52490   0.82310   0.90970   0.01267  Uiso   1.00
H8     H     0.50150   0.78710   0.95350   0.01267  Uiso   1.00
H9     H     0.50240   0.82840   0.95900   0.01267  Uiso   1.00
H10    H     0.90820   0.45100   0.67820   0.01267  Uiso   1.00
H11    H     0.97970   0.45250   0.75750   0.01267  Uiso   1.00
H12    H     0.01930   0.45050   0.68190   0.01267  Uiso   1.00
H13    H     0.87200   0.38040   0.78740   0.01267  Uiso   1.00
H14    H     0.86060   0.40580   0.74080   0.01267  Uiso   1.00
H15    H     0.81990   0.40470   0.78870   0.01267  Uiso   1.00
H16    H     0.82310   0.52490   0.74230   0.01267  Uiso   1.00
H17    H     0.78710   0.50150   0.75790   0.01267  Uiso   1.00
H18    H     0.82840   0.50240   0.71020   0.01267  Uiso   1.00
H19    H     0.96260   0.67820   0.45100   0.01267  Uiso   1.00
H20    H     0.81030   0.75750   0.45250   0.01267  Uiso   1.00
H21    H     0.84830   0.68190   0.45050   0.01267  Uiso   1.00
H22    H     0.96020   0.78740   0.38040   0.01267  Uiso   1.00
H23    H     0.99280   0.74080   0.40580   0.01267  Uiso   1.00
H24    H     0.98670   0.78870   0.40470   0.01267  Uiso   1.00
H25    H     0.90970   0.74230   0.52490   0.01267  Uiso   1.00
H26    H     0.95350   0.75790   0.50150   0.01267  Uiso   1.00
H27    H     0.95900   0.71020   0.50240   0.01267  Uiso   1.00
H28    H     0.67820   0.96260   0.90820   0.01267  Uiso   1.00
H29    H     0.75750   0.81030   0.97970   0.01267  Uiso   1.00
H30    H     0.68190   0.84830   0.01930   0.01267  Uiso   1.00
H31    H     0.78740   0.96020   0.87200   0.01267  Uiso   1.00
H32    H     0.74080   0.99280   0.86060   0.01267  Uiso   1.00
H33    H     0.78870   0.98670   0.81990   0.01267  Uiso   1.00
H34    H     0.74230   0.90970   0.82310   0.01267  Uiso   1.00
H35    H     0.75790   0.95350   0.78710   0.01267  Uiso   1.00
H36    H     0.71020   0.95900   0.82840   0.01267  Uiso   1.00
H37    H     0.45100   0.96260   0.67820   0.01267  Uiso   1.00
H38    H     0.45250   0.81030   0.75750   0.01267  Uiso   1.00
H39    H     0.45050   0.84830   0.68190   0.01267  Uiso   1.00
H40    H     0.38040   0.96020   0.78740   0.01267  Uiso   1.00
H41    H     0.40580   0.99280   0.74080   0.01267  Uiso   1.00
H42    H     0.40470   0.98670   0.78870   0.01267  Uiso   1.00
H43    H     0.52490   0.90970   0.74230   0.01267  Uiso   1.00
H44    H     0.50150   0.95350   0.75790   0.01267  Uiso   1.00
H45    H     0.50240   0.95900   0.71020   0.01267  Uiso   1.00
H46    H     0.90820   0.67820   0.96260   0.01267  Uiso   1.00
H47    H     0.97970   0.75750   0.81030   0.01267  Uiso   1.00
H48    H     0.01930   0.68190   0.84830   0.01267  Uiso   1.00
H49    H     0.87200   0.78740   0.96020   0.01267  Uiso   1.00
H50    H     0.86060   0.74080   0.99280   0.01267  Uiso   1.00
H51    H     0.81990   0.78870   0.98670   0.01267  Uiso   1.00
H52    H     0.82310   0.74230   0.90970   0.01267  Uiso   1.00
H53    H     0.78710   0.75790   0.95350   0.01267  Uiso   1.00
H54    H     0.82840   0.71020   0.95900   0.01267  Uiso   1.00
H55    H     0.96260   0.45100   0.90820   0.01267  Uiso   1.00
H56    H     0.81030   0.45250   0.97970   0.01267  Uiso   1.00
H57    H     0.84830   0.45050   0.01930   0.01267  Uiso   1.00
H58    H     0.96020   0.38040   0.87200   0.01267  Uiso   1.00
H59    H     0.99280   0.40580   0.86060   0.01267  Uiso   1.00
H60    H     0.98670   0.40470   0.81990   0.01267  Uiso   1.00
H61    H     0.90970   0.52490   0.82310   0.01267  Uiso   1.00
H62    H     0.95350   0.50150   0.78710   0.01267  Uiso   1.00
H63    H     0.95900   0.50240   0.82840   0.01267  Uiso   1.00
H64    H     0.67820   0.90820   0.45100   0.01267  Uiso   1.00
H65    H     0.75750   0.97970   0.45250   0.01267  Uiso   1.00
H66    H     0.68190   0.01930   0.45050   0.01267  Uiso   1.00
H67    H     0.78740   0.87200   0.38040   0.01267  Uiso   1.00
H68    H     0.74080   0.86060   0.40580   0.01267  Uiso   1.00
H69    H     0.78870   0.81990   0.40470   0.01267  Uiso   1.00
H70    H     0.74230   0.82310   0.52490   0.01267  Uiso   1.00
H71    H     0.75790   0.78710   0.50150   0.01267  Uiso   1.00
H72    H     0.71020   0.82840   0.50240   0.01267  Uiso   1.00
H73    H     0.45100   0.67820   0.90820   0.01267  Uiso   1.00
H74    H     0.45250   0.75750   0.97970   0.01267  Uiso   1.00
H75    H     0.45050   0.68190   0.01930   0.01267  Uiso   1.00
H76    H     0.38040   0.78740   0.87200   0.01267  Uiso   1.00
H77    H     0.40580   0.74080   0.86060   0.01267  Uiso   1.00
H78    H     0.40470   0.78870   0.81990   0.01267  Uiso   1.00
H79    H     0.52490   0.74230   0.82310   0.01267  Uiso   1.00
H80    H     0.50150   0.75790   0.78710   0.01267  Uiso   1.00
H81    H     0.50240   0.71020   0.82840   0.01267  Uiso   1.00
H82    H     0.90820   0.96260   0.45100   0.01267  Uiso   1.00
H83    H     0.97970   0.81030   0.45250   0.01267  Uiso   1.00
H84    H     0.01930   0.84830   0.45050   0.01267  Uiso   1.00
H85    H     0.87200   0.96020   0.38040   0.01267  Uiso   1.00
H86    H     0.86060   0.99280   0.40580   0.01267  Uiso   1.00
H87    H     0.81990   0.98670   0.40470   0.01267  Uiso   1.00
H88    H     0.82310   0.90970   0.52490   0.01267  Uiso   1.00
H89    H     0.78710   0.95350   0.50150   0.01267  Uiso   1.00
H90    H     0.82840   0.95900   0.50240   0.01267  Uiso   1.00
H91    H     0.96260   0.90820   0.67820   0.01267  Uiso   1.00
H92    H     0.81030   0.97970   0.75750   0.01267  Uiso   1.00
H93    H     0.84830   0.01930   0.68190   0.01267  Uiso   1.00
H94    H     0.96020   0.87200   0.78740   0.01267  Uiso   1.00
H95    H     0.99280   0.86060   0.74080   0.01267  Uiso   1.00
H96    H     0.98670   0.81990   0.78870   0.01267  Uiso   1.00
H97    H     0.90970   0.82310   0.74230   0.01267  Uiso   1.00
H98    H     0.95350   0.78710   0.75790   0.01267  Uiso   1.00
H99    H     0.95900   0.82840   0.71020   0.01267  Uiso   1.00
H100   H     0.67820   0.45100   0.96260   0.01267  Uiso   1.00
H101   H     0.75750   0.45250   0.81030   0.01267  Uiso   1.00
H102   H     0.68190   0.45050   0.84830   0.01267  Uiso   1.00
H103   H     0.78740   0.38040   0.96020   0.01267  Uiso   1.00
H104   H     0.74080   0.40580   0.99280   0.01267  Uiso   1.00
H105   H     0.78870   0.40470   0.98670   0.01267  Uiso   1.00
H106   H     0.74230   0.52490   0.90970   0.01267  Uiso   1.00
H107   H     0.75790   0.50150   0.95350   0.01267  Uiso   1.00
H108   H     0.71020   0.50240   0.95900   0.01267  Uiso   1.00
H109   H     0.59180   0.04900   0.53740   0.01267  Uiso   1.00
H110   H     0.52030   0.04750   0.68970   0.01267  Uiso   1.00
H111   H     0.48070   0.04950   0.65170   0.01267  Uiso   1.00
H112   H     0.62800   0.11960   0.53980   0.01267  Uiso   1.00
H113   H     0.63940   0.09420   0.50720   0.01267  Uiso   1.00
H114   H     0.68010   0.09530   0.51330   0.01267  Uiso   1.00
H115   H     0.67690   0.97510   0.59030   0.01267  Uiso   1.00
H116   H     0.71290   0.99850   0.54650   0.01267  Uiso   1.00
H117   H     0.67160   0.99760   0.54100   0.01267  Uiso   1.00
H118   H     0.04900   0.59180   0.82180   0.01267  Uiso   1.00
H119   H     0.04750   0.52030   0.74250   0.01267  Uiso   1.00
H120   H     0.04950   0.48070   0.81810   0.01267  Uiso   1.00
H121   H     0.11960   0.62800   0.71260   0.01267  Uiso   1.00
H122   H     0.09420   0.63940   0.75920   0.01267  Uiso   1.00
H123   H     0.09530   0.68010   0.71130   0.01267  Uiso   1.00
H124   H     0.97510   0.67690   0.75770   0.01267  Uiso   1.00
H125   H     0.99850   0.71290   0.74210   0.01267  Uiso   1.00
H126   H     0.99760   0.67160   0.78980   0.01267  Uiso   1.00
H127   H     0.82180   0.53740   0.04900   0.01267  Uiso   1.00
H128   H     0.74250   0.68970   0.04750   0.01267  Uiso   1.00
H129   H     0.81810   0.65170   0.04950   0.01267  Uiso   1.00
H130   H     0.71260   0.53980   0.11960   0.01267  Uiso   1.00
H131   H     0.75920   0.50720   0.09420   0.01267  Uiso   1.00
H132   H     0.71130   0.51330   0.09530   0.01267  Uiso   1.00
H133   H     0.75770   0.59030   0.97510   0.01267  Uiso   1.00
H134   H     0.74210   0.54650   0.99850   0.01267  Uiso   1.00
H135   H     0.78980   0.54100   0.99760   0.01267  Uiso   1.00
H136   H     0.53740   0.82180   0.59180   0.01267  Uiso   1.00
H137   H     0.68970   0.74250   0.52030   0.01267  Uiso   1.00
H138   H     0.65170   0.81810   0.48070   0.01267  Uiso   1.00
H139   H     0.53980   0.71260   0.62800   0.01267  Uiso   1.00
H140   H     0.50720   0.75920   0.63940   0.01267  Uiso   1.00
H141   H     0.51330   0.71130   0.68010   0.01267  Uiso   1.00
H142   H     0.59030   0.75770   0.67690   0.01267  Uiso   1.00
H143   H     0.54650   0.74210   0.71290   0.01267  Uiso   1.00
H144   H     0.54100   0.78980   0.67160   0.01267  Uiso   1.00
H145   H     0.53740   0.04900   0.82180   0.01267  Uiso   1.00
H146   H     0.68970   0.04750   0.74250   0.01267  Uiso   1.00
H147   H     0.65170   0.04950   0.81810   0.01267  Uiso   1.00
H148   H     0.53980   0.11960   0.71260   0.01267  Uiso   1.00
H149   H     0.50720   0.09420   0.75920   0.01267  Uiso   1.00
H150   H     0.51330   0.09530   0.71130   0.01267  Uiso   1.00
H151   H     0.59030   0.97510   0.75770   0.01267  Uiso   1.00
H152   H     0.54650   0.99850   0.74210   0.01267  Uiso   1.00
H153   H     0.54100   0.99760   0.78980   0.01267  Uiso   1.00
H154   H     0.82180   0.59180   0.53740   0.01267  Uiso   1.00
H155   H     0.74250   0.52030   0.68970   0.01267  Uiso   1.00
H156   H     0.81810   0.48070   0.65170   0.01267  Uiso   1.00
H157   H     0.71260   0.62800   0.53980   0.01267  Uiso   1.00
H158   H     0.75920   0.63940   0.50720   0.01267  Uiso   1.00
H159   H     0.71130   0.68010   0.51330   0.01267  Uiso   1.00
H160   H     0.75770   0.67690   0.59030   0.01267  Uiso   1.00
H161   H     0.74210   0.71290   0.54650   0.01267  Uiso   1.00
H162   H     0.78980   0.67160   0.54100   0.01267  Uiso   1.00
H163   H     0.04900   0.53740   0.59180   0.01267  Uiso   1.00
H164   H     0.04750   0.68970   0.52030   0.01267  Uiso   1.00
H165   H     0.04950   0.65170   0.48070   0.01267  Uiso   1.00
H166   H     0.11960   0.53980   0.62800   0.01267  Uiso   1.00
H167   H     0.09420   0.50720   0.63940   0.01267  Uiso   1.00
H168   H     0.09530   0.51330   0.68010   0.01267  Uiso   1.00
H169   H     0.97510   0.59030   0.67690   0.01267  Uiso   1.00
H170   H     0.99850   0.54650   0.71290   0.01267  Uiso   1.00
H171   H     0.99760   0.54100   0.67160   0.01267  Uiso   1.00
H172   H     0.59180   0.82180   0.04900   0.01267  Uiso   1.00
H173   H     0.52030   0.74250   0.04750   0.01267  Uiso   1.00
H174   H     0.48070   0.81810   0.04950   0.01267  Uiso   1.00
H175   H     0.62800   0.71260   0.11960   0.01267  Uiso   1.00
H176   H     0.63940   0.75920   0.09420   0.01267  Uiso   1.00
H177   H     0.68010   0.71130   0.09530   0.01267  Uiso   1.00
H178   H     0.67690   0.75770   0.97510   0.01267  Uiso   1.00
H179   H     0.71290   0.74210   0.99850   0.01267  Uiso   1.00
H180   H     0.67160   0.78980   0.99760   0.01267  Uiso   1.00
H181   H     0.82180   0.04900   0.59180   0.01267  Uiso   1.00
H182   H     0.74250   0.04750   0.52030   0.01267  Uiso   1.00
H183   H     0.81810   0.04950   0.48070   0.01267  Uiso   1.00
H184   H     0.71260   0.11960   0.62800   0.01267  Uiso   1.00
H185   H     0.75920   0.09420   0.63940   0.01267  Uiso   1.00
H186   H     0.71130   0.09530   0.68010   0.01267  Uiso   1.00
H187   H     0.75770   0.97510   0.67690   0.01267  Uiso   1.00
H188   H     0.74210   0.99850   0.71290   0.01267  Uiso   1.00
H189   H     0.78980   0.99760   0.67160   0.01267  Uiso   1.00
H190   H     0.53740   0.59180   0.04900   0.01267  Uiso   1.00
H191   H     0.68970   0.52030   0.04750   0.01267  Uiso   1.00
H192   H     0.65170   0.48070   0.04950   0.01267  Uiso   1.00
H193   H     0.53980   0.62800   0.11960   0.01267  Uiso   1.00
H194   H     0.50720   0.63940   0.09420   0.01267  Uiso   1.00
H195   H     0.51330   0.68010   0.09530   0.01267  Uiso   1.00
H196   H     0.59030   0.67690   0.97510   0.01267  Uiso   1.00
H197   H     0.54650   0.71290   0.99850   0.01267  Uiso   1.00
H198   H     0.54100   0.67160   0.99760   0.01267  Uiso   1.00
H199   H     0.59180   0.53740   0.82180   0.01267  Uiso   1.00
H200   H     0.52030   0.68970   0.74250   0.01267  Uiso   1.00
H201   H     0.48070   0.65170   0.81810   0.01267  Uiso   1.00
H202   H     0.62800   0.53980   0.71260   0.01267  Uiso   1.00
H203   H     0.63940   0.50720   0.75920   0.01267  Uiso   1.00
H204   H     0.68010   0.51330   0.71130   0.01267  Uiso   1.00
H205   H     0.67690   0.59030   0.75770   0.01267  Uiso   1.00
H206   H     0.71290   0.54650   0.74210   0.01267  Uiso   1.00
H207   H     0.67160   0.54100   0.78980   0.01267  Uiso   1.00
H208   H     0.04900   0.82180   0.53740   0.01267  Uiso   1.00
H209   H     0.04750   0.74250   0.68970   0.01267  Uiso   1.00
H210   H     0.04950   0.81810   0.65170   0.01267  Uiso   1.00
H211   H     0.11960   0.71260   0.53980   0.01267  Uiso   1.00
H212   H     0.09420   0.75920   0.50720   0.01267  Uiso   1.00
H213   H     0.09530   0.71130   0.51330   0.01267  Uiso   1.00
H214   H     0.97510   0.75770   0.59030   0.01267  Uiso   1.00
H215   H     0.99850   0.74210   0.54650   0.01267  Uiso   1.00
H216   H     0.99760   0.78980   0.54100   0.01267  Uiso   1.00
H217   H     0.54900   0.09180   0.03740   0.01267  Uiso   1.00
H218   H     0.54750   0.02030   0.18970   0.01267  Uiso   1.00
H219   H     0.54950   0.98070   0.15170   0.01267  Uiso   1.00
H220   H     0.61960   0.12800   0.03980   0.01267  Uiso   1.00
H221   H     0.59420   0.13940   0.00720   0.01267  Uiso   1.00
H222   H     0.59530   0.18010   0.01330   0.01267  Uiso   1.00
H223   H     0.47510   0.17690   0.09030   0.01267  Uiso   1.00
H224   H     0.49850   0.21290   0.04650   0.01267  Uiso   1.00
H225   H     0.49760   0.17160   0.04100   0.01267  Uiso   1.00
H226   H     0.09180   0.54900   0.32180   0.01267  Uiso   1.00
H227   H     0.02030   0.54750   0.24250   0.01267  Uiso   1.00
H228   H     0.98070   0.54950   0.31810   0.01267  Uiso   1.00
H229   H     0.12800   0.61960   0.21260   0.01267  Uiso   1.00
H230   H     0.13940   0.59420   0.25920   0.01267  Uiso   1.00
H231   H     0.18010   0.59530   0.21130   0.01267  Uiso   1.00
H232   H     0.17690   0.47510   0.25770   0.01267  Uiso   1.00
H233   H     0.21290   0.49850   0.24210   0.01267  Uiso   1.00
H234   H     0.17160   0.49760   0.28980   0.01267  Uiso   1.00
H235   H     0.03740   0.32180   0.54900   0.01267  Uiso   1.00
H236   H     0.18970   0.24250   0.54750   0.01267  Uiso   1.00
H237   H     0.15170   0.31810   0.54950   0.01267  Uiso   1.00
H238   H     0.03980   0.21260   0.61960   0.01267  Uiso   1.00
H239   H     0.00720   0.25920   0.59420   0.01267  Uiso   1.00
H240   H     0.01330   0.21130   0.59530   0.01267  Uiso   1.00
H241   H     0.09030   0.25770   0.47510   0.01267  Uiso   1.00
H242   H     0.04650   0.24210   0.49850   0.01267  Uiso   1.00
H243   H     0.04100   0.28980   0.49760   0.01267  Uiso   1.00
H244   H     0.32180   0.03740   0.09180   0.01267  Uiso   1.00
H245   H     0.24250   0.18970   0.02030   0.01267  Uiso   1.00
H246   H     0.31810   0.15170   0.98070   0.01267  Uiso   1.00
H247   H     0.21260   0.03980   0.12800   0.01267  Uiso   1.00
H248   H     0.25920   0.00720   0.13940   0.01267  Uiso   1.00
H249   H     0.21130   0.01330   0.18010   0.01267  Uiso   1.00
H250   H     0.25770   0.09030   0.17690   0.01267  Uiso   1.00
H251   H     0.24210   0.04650   0.21290   0.01267  Uiso   1.00
H252   H     0.28980   0.04100   0.17160   0.01267  Uiso   1.00
H253   H     0.54900   0.03740   0.32180   0.01267  Uiso   1.00
H254   H     0.54750   0.18970   0.24250   0.01267  Uiso   1.00
H255   H     0.54950   0.15170   0.31810   0.01267  Uiso   1.00
H256   H     0.61960   0.03980   0.21260   0.01267  Uiso   1.00
H257   H     0.59420   0.00720   0.25920   0.01267  Uiso   1.00
H258   H     0.59530   0.01330   0.21130   0.01267  Uiso   1.00
H259   H     0.47510   0.09030   0.25770   0.01267  Uiso   1.00
H260   H     0.49850   0.04650   0.24210   0.01267  Uiso   1.00
H261   H     0.49760   0.04100   0.28980   0.01267  Uiso   1.00
H262   H     0.09180   0.32180   0.03740   0.01267  Uiso   1.00
H263   H     0.02030   0.24250   0.18970   0.01267  Uiso   1.00
H264   H     0.98070   0.31810   0.15170   0.01267  Uiso   1.00
H265   H     0.12800   0.21260   0.03980   0.01267  Uiso   1.00
H266   H     0.13940   0.25920   0.00720   0.01267  Uiso   1.00
H267   H     0.18010   0.21130   0.01330   0.01267  Uiso   1.00
H268   H     0.17690   0.25770   0.09030   0.01267  Uiso   1.00
H269   H     0.21290   0.24210   0.04650   0.01267  Uiso   1.00
H270   H     0.17160   0.28980   0.04100   0.01267  Uiso   1.00
H271   H     0.03740   0.54900   0.09180   0.01267  Uiso   1.00
H272   H     0.18970   0.54750   0.02030   0.01267  Uiso   1.00
H273   H     0.15170   0.54950   0.98070   0.01267  Uiso   1.00
H274   H     0.03980   0.61960   0.12800   0.01267  Uiso   1.00
H275   H     0.00720   0.59420   0.13940   0.01267  Uiso   1.00
H276   H     0.01330   0.59530   0.18010   0.01267  Uiso   1.00
H277   H     0.09030   0.47510   0.17690   0.01267  Uiso   1.00
H278   H     0.04650   0.49850   0.21290   0.01267  Uiso   1.00
H279   H     0.04100   0.49760   0.17160   0.01267  Uiso   1.00
H280   H     0.32180   0.09180   0.54900   0.01267  Uiso   1.00
H281   H     0.24250   0.02030   0.54750   0.01267  Uiso   1.00
H282   H     0.31810   0.98070   0.54950   0.01267  Uiso   1.00
H283   H     0.21260   0.12800   0.61960   0.01267  Uiso   1.00
H284   H     0.25920   0.13940   0.59420   0.01267  Uiso   1.00
H285   H     0.21130   0.18010   0.59530   0.01267  Uiso   1.00
H286   H     0.25770   0.17690   0.47510   0.01267  Uiso   1.00
H287   H     0.24210   0.21290   0.49850   0.01267  Uiso   1.00
H288   H     0.28980   0.17160   0.49760   0.01267  Uiso   1.00
H289   H     0.54900   0.32180   0.09180   0.01267  Uiso   1.00
H290   H     0.54750   0.24250   0.02030   0.01267  Uiso   1.00
H291   H     0.54950   0.31810   0.98070   0.01267  Uiso   1.00
H292   H     0.61960   0.21260   0.12800   0.01267  Uiso   1.00
H293   H     0.59420   0.25920   0.13940   0.01267  Uiso   1.00
H294   H     0.59530   0.21130   0.18010   0.01267  Uiso   1.00
H295   H     0.47510   0.25770   0.17690   0.01267  Uiso   1.00
H296   H     0.49850   0.24210   0.21290   0.01267  Uiso   1.00
H297   H     0.49760   0.28980   0.17160   0.01267  Uiso   1.00
H298   H     0.09180   0.03740   0.54900   0.01267  Uiso   1.00
H299   H     0.02030   0.18970   0.54750   0.01267  Uiso   1.00
H300   H     0.98070   0.15170   0.54950   0.01267  Uiso   1.00
H301   H     0.12800   0.03980   0.61960   0.01267  Uiso   1.00
H302   H     0.13940   0.00720   0.59420   0.01267  Uiso   1.00
H303   H     0.18010   0.01330   0.59530   0.01267  Uiso   1.00
H304   H     0.17690   0.09030   0.47510   0.01267  Uiso   1.00
H305   H     0.21290   0.04650   0.49850   0.01267  Uiso   1.00
H306   H     0.17160   0.04100   0.49760   0.01267  Uiso   1.00
H307   H     0.03740   0.09180   0.32180   0.01267  Uiso   1.00
H308   H     0.18970   0.02030   0.24250   0.01267  Uiso   1.00
H309   H     0.15170   0.98070   0.31810   0.01267  Uiso   1.00
H310   H     0.03980   0.12800   0.21260   0.01267  Uiso   1.00
H311   H     0.00720   0.13940   0.25920   0.01267  Uiso   1.00
H312   H     0.01330   0.18010   0.21130   0.01267  Uiso   1.00
H313   H     0.09030   0.17690   0.25770   0.01267  Uiso   1.00
H314   H     0.04650   0.21290   0.24210   0.01267  Uiso   1.00
H315   H     0.04100   0.17160   0.28980   0.01267  Uiso   1.00
H316   H     0.32180   0.54900   0.03740   0.01267  Uiso   1.00
H317   H     0.24250   0.54750   0.18970   0.01267  Uiso   1.00
H318   H     0.31810   0.54950   0.15170   0.01267  Uiso   1.00
H319   H     0.21260   0.61960   0.03980   0.01267  Uiso   1.00
H320   H     0.25920   0.59420   0.00720   0.01267  Uiso   1.00
H321   H     0.21130   0.59530   0.01330   0.01267  Uiso   1.00
H322   H     0.25770   0.47510   0.09030   0.01267  Uiso   1.00
H323   H     0.24210   0.49850   0.04650   0.01267  Uiso   1.00
H324   H     0.28980   0.49760   0.04100   0.01267  Uiso   1.00
H325   H     0.40820   0.95100   0.46260   0.01267  Uiso   1.00
H326   H     0.47970   0.95250   0.31030   0.01267  Uiso   1.00
H327   H     0.51930   0.95050   0.34830   0.01267  Uiso   1.00
H328   H     0.37200   0.88040   0.46020   0.01267  Uiso   1.00
H329   H     0.36060   0.90580   0.49280   0.01267  Uiso   1.00
H330   H     0.31990   0.90470   0.48670   0.01267  Uiso   1.00
H331   H     0.32310   0.02490   0.40970   0.01267  Uiso   1.00
H332   H     0.28710   0.00150   0.45350   0.01267  Uiso   1.00
H333   H     0.32840   0.00240   0.45900   0.01267  Uiso   1.00
H334   H     0.95100   0.40820   0.17820   0.01267  Uiso   1.00
H335   H     0.95250   0.47970   0.25750   0.01267  Uiso   1.00
H336   H     0.95050   0.51930   0.18190   0.01267  Uiso   1.00
H337   H     0.88040   0.37200   0.28740   0.01267  Uiso   1.00
H338   H     0.90580   0.36060   0.24080   0.01267  Uiso   1.00
H339   H     0.90470   0.31990   0.28870   0.01267  Uiso   1.00
H340   H     0.02490   0.32310   0.24230   0.01267  Uiso   1.00
H341   H     0.00150   0.28710   0.25790   0.01267  Uiso   1.00
H342   H     0.00240   0.32840   0.21020   0.01267  Uiso   1.00
H343   H     0.17820   0.46260   0.95100   0.01267  Uiso   1.00
H344   H     0.25750   0.31030   0.95250   0.01267  Uiso   1.00
H345   H     0.18190   0.34830   0.95050   0.01267  Uiso   1.00
H346   H     0.28740   0.46020   0.88040   0.01267  Uiso   1.00
H347   H     0.24080   0.49280   0.90580   0.01267  Uiso   1.00
H348   H     0.28870   0.48670   0.90470   0.01267  Uiso   1.00
H349   H     0.24230   0.40970   0.02490   0.01267  Uiso   1.00
H350   H     0.25790   0.45350   0.00150   0.01267  Uiso   1.00
H351   H     0.21020   0.45900   0.00240   0.01267  Uiso   1.00
H352   H     0.46260   0.17820   0.40820   0.01267  Uiso   1.00
H353   H     0.31030   0.25750   0.47970   0.01267  Uiso   1.00
H354   H     0.34830   0.18190   0.51930   0.01267  Uiso   1.00
H355   H     0.46020   0.28740   0.37200   0.01267  Uiso   1.00
H356   H     0.49280   0.24080   0.36060   0.01267  Uiso   1.00
H357   H     0.48670   0.28870   0.31990   0.01267  Uiso   1.00
H358   H     0.40970   0.24230   0.32310   0.01267  Uiso   1.00
H359   H     0.45350   0.25790   0.28710   0.01267  Uiso   1.00
H360   H     0.45900   0.21020   0.32840   0.01267  Uiso   1.00
H361   H     0.46260   0.95100   0.17820   0.01267  Uiso   1.00
H362   H     0.31030   0.95250   0.25750   0.01267  Uiso   1.00
H363   H     0.34830   0.95050   0.18190   0.01267  Uiso   1.00
H364   H     0.46020   0.88040   0.28740   0.01267  Uiso   1.00
H365   H     0.49280   0.90580   0.24080   0.01267  Uiso   1.00
H366   H     0.48670   0.90470   0.28870   0.01267  Uiso   1.00
H367   H     0.40970   0.02490   0.24230   0.01267  Uiso   1.00
H368   H     0.45350   0.00150   0.25790   0.01267  Uiso   1.00
H369   H     0.45900   0.00240   0.21020   0.01267  Uiso   1.00
H370   H     0.17820   0.40820   0.46260   0.01267  Uiso   1.00
H371   H     0.25750   0.47970   0.31030   0.01267  Uiso   1.00
H372   H     0.18190   0.51930   0.34830   0.01267  Uiso   1.00
H373   H     0.28740   0.37200   0.46020   0.01267  Uiso   1.00
H374   H     0.24080   0.36060   0.49280   0.01267  Uiso   1.00
H375   H     0.28870   0.31990   0.48670   0.01267  Uiso   1.00
H376   H     0.24230   0.32310   0.40970   0.01267  Uiso   1.00
H377   H     0.25790   0.28710   0.45350   0.01267  Uiso   1.00
H378   H     0.21020   0.32840   0.45900   0.01267  Uiso   1.00
H379   H     0.95100   0.46260   0.40820   0.01267  Uiso   1.00
H380   H     0.95250   0.31030   0.47970   0.01267  Uiso   1.00
H381   H     0.95050   0.34830   0.51930   0.01267  Uiso   1.00
H382   H     0.88040   0.46020   0.37200   0.01267  Uiso   1.00
H383   H     0.90580   0.49280   0.36060   0.01267  Uiso   1.00
H384   H     0.90470   0.48670   0.31990   0.01267  Uiso   1.00
H385   H     0.02490   0.40970   0.32310   0.01267  Uiso   1.00
H386   H     0.00150   0.45350   0.28710   0.01267  Uiso   1.00
H387   H     0.00240   0.45900   0.32840   0.01267  Uiso   1.00
H388   H     0.40820   0.17820   0.95100   0.01267  Uiso   1.00
H389   H     0.47970   0.25750   0.95250   0.01267  Uiso   1.00
H390   H     0.51930   0.18190   0.95050   0.01267  Uiso   1.00
H391   H     0.37200   0.28740   0.88040   0.01267  Uiso   1.00
H392   H     0.36060   0.24080   0.90580   0.01267  Uiso   1.00
H393   H     0.31990   0.28870   0.90470   0.01267  Uiso   1.00
H394   H     0.32310   0.24230   0.02490   0.01267  Uiso   1.00
H395   H     0.28710   0.25790   0.00150   0.01267  Uiso   1.00
H396   H     0.32840   0.21020   0.00240   0.01267  Uiso   1.00
H397   H     0.17820   0.95100   0.40820   0.01267  Uiso   1.00
H398   H     0.25750   0.95250   0.47970   0.01267  Uiso   1.00
H399   H     0.18190   0.95050   0.51930   0.01267  Uiso   1.00
H400   H     0.28740   0.88040   0.37200   0.01267  Uiso   1.00
H401   H     0.24080   0.90580   0.36060   0.01267  Uiso   1.00
H402   H     0.28870   0.90470   0.31990   0.01267  Uiso   1.00
H403   H     0.24230   0.02490   0.32310   0.01267  Uiso   1.00
H404   H     0.25790   0.00150   0.28710   0.01267  Uiso   1.00
H405   H     0.21020   0.00240   0.32840   0.01267  Uiso   1.00
H406   H     0.46260   0.40820   0.95100   0.01267  Uiso   1.00
H407   H     0.31030   0.47970   0.95250   0.01267  Uiso   1.00
H408   H     0.34830   0.51930   0.95050   0.01267  Uiso   1.00
H409   H     0.46020   0.37200   0.88040   0.01267  Uiso   1.00
H410   H     0.49280   0.36060   0.90580   0.01267  Uiso   1.00
H411   H     0.48670   0.31990   0.90470   0.01267  Uiso   1.00
H412   H     0.40970   0.32310   0.02490   0.01267  Uiso   1.00
H413   H     0.45350   0.28710   0.00150   0.01267  Uiso   1.00
H414   H     0.45900   0.32840   0.00240   0.01267  Uiso   1.00
H415   H     0.40820   0.46260   0.17820   0.01267  Uiso   1.00
H416   H     0.47970   0.31030   0.25750   0.01267  Uiso   1.00
H417   H     0.51930   0.34830   0.18190   0.01267  Uiso   1.00
H418   H     0.37200   0.46020   0.28740   0.01267  Uiso   1.00
H419   H     0.36060   0.49280   0.24080   0.01267  Uiso   1.00
H420   H     0.31990   0.48670   0.28870   0.01267  Uiso   1.00
H421   H     0.32310   0.40970   0.24230   0.01267  Uiso   1.00
H422   H     0.28710   0.45350   0.25790   0.01267  Uiso   1.00
H423   H     0.32840   0.45900   0.21020   0.01267  Uiso   1.00
H424   H     0.95100   0.17820   0.46260   0.01267  Uiso   1.00
H425   H     0.95250   0.25750   0.31030   0.01267  Uiso   1.00
H426   H     0.95050   0.18190   0.34830   0.01267  Uiso   1.00
H427   H     0.88040   0.28740   0.46020   0.01267  Uiso   1.00
H428   H     0.90580   0.24080   0.49280   0.01267  Uiso   1.00
H429   H     0.90470   0.28870   0.48670   0.01267  Uiso   1.00
H430   H     0.02490   0.24230   0.40970   0.01267  Uiso   1.00
H431   H     0.00150   0.25790   0.45350   0.01267  Uiso   1.00
H432   H     0.00240   0.21020   0.45900   0.01267  Uiso   1.00
C1     C     0.44988   0.99172   0.93340   0.01267  Uiso   1.00
C2     C     0.45021   0.96791   0.90893   0.01267  Uiso   1.00
C3     C     0.45082   0.92294   0.93204   0.01267  Uiso   1.00
C4     C     0.45114   0.89990   0.91040   0.01267  Uiso   1.00
C5     C     0.45145   0.92095   0.86463   0.01267  Uiso   1.00
C6     C     0.45172   0.96518   0.84122   0.01267  Uiso   1.00
C7     C     0.45078   0.98850   0.86416   0.01267  Uiso   1.00
C8     C     0.45175   0.85077   0.93023   0.01267  Uiso   1.00
C9     C     0.45257   0.84635   0.88943   0.01267  Uiso   1.00
C10    C     0.45247   0.88643   0.85197   0.01267  Uiso   1.00
C11    C     0.40652   0.85080   0.97124   0.01267  Uiso   1.00
C12    C     0.49985   0.81927   0.93897   0.01267  Uiso   1.00
C13    C     0.99172   0.44988   0.62500   0.01267  Uiso   1.00
C14    C     0.96791   0.45021   0.67295   0.01267  Uiso   1.00
C15    C     0.92294   0.45082   0.69420   0.01267  Uiso   1.00
C16    C     0.89990   0.45114   0.73856   0.01267  Uiso   1.00
C17    C     0.92095   0.45145   0.76297   0.01267  Uiso   1.00
C18    C     0.96518   0.45172   0.74188   0.01267  Uiso   1.00
C19    C     0.98850   0.45078   0.69656   0.01267  Uiso   1.00
C20    C     0.85077   0.45175   0.76725   0.01267  Uiso   1.00
C21    C     0.84635   0.45257   0.81165   0.01267  Uiso   1.00
C22    C     0.88643   0.45247   0.80913   0.01267  Uiso   1.00
C23    C     0.85080   0.40652   0.77144   0.01267  Uiso   1.00
C24    C     0.81927   0.49985   0.74191   0.01267  Uiso   1.00
C25    C     0.93340   0.62500   0.44988   0.01267  Uiso   1.00
C26    C     0.90893   0.67295   0.45021   0.01267  Uiso   1.00
C27    C     0.93204   0.69420   0.45082   0.01267  Uiso   1.00
C28    C     0.91040   0.73856   0.45114   0.01267  Uiso   1.00
C29    C     0.86463   0.76297   0.45145   0.01267  Uiso   1.00
C30    C     0.84122   0.74188   0.45172   0.01267  Uiso   1.00
C31    C     0.86416   0.69656   0.45078   0.01267  Uiso   1.00
C32    C     0.93023   0.76725   0.45175   0.01267  Uiso   1.00
C33    C     0.88943   0.81165   0.45257   0.01267  Uiso   1.00
C34    C     0.85197   0.80913   0.45247   0.01267  Uiso   1.00
C35    C     0.97124   0.77144   0.40652   0.01267  Uiso   1.00
C36    C     0.93897   0.74191   0.49985   0.01267  Uiso   1.00
C37    C     0.62500   0.93340   0.99172   0.01267  Uiso   1.00
C38    C     0.67295   0.90893   0.96791   0.01267  Uiso   1.00
C39    C     0.69420   0.93204   0.92294   0.01267  Uiso   1.00
C40    C     0.73856   0.91040   0.89990   0.01267  Uiso   1.00
C41    C     0.76297   0.86463   0.92095   0.01267  Uiso   1.00
C42    C     0.74188   0.84122   0.96518   0.01267  Uiso   1.00
C43    C     0.69656   0.86416   0.98850   0.01267  Uiso   1.00
C44    C     0.76725   0.93023   0.85077   0.01267  Uiso   1.00
C45    C     0.81165   0.88943   0.84635   0.01267  Uiso   1.00
C46    C     0.80913   0.85197   0.88643   0.01267  Uiso   1.00
C47    C     0.77144   0.97124   0.85080   0.01267  Uiso   1.00
C48    C     0.74191   0.93897   0.81927   0.01267  Uiso   1.00
C49    C     0.44988   0.93340   0.62500   0.01267  Uiso   1.00
C50    C     0.45021   0.90893   0.67295   0.01267  Uiso   1.00
C51    C     0.45082   0.93204   0.69420   0.01267  Uiso   1.00
C52    C     0.45114   0.91040   0.73856   0.01267  Uiso   1.00
C53    C     0.45145   0.86463   0.76297   0.01267  Uiso   1.00
C54    C     0.45172   0.84122   0.74188   0.01267  Uiso   1.00
C55    C     0.45078   0.86416   0.69656   0.01267  Uiso   1.00
C56    C     0.45175   0.93023   0.76725   0.01267  Uiso   1.00
C57    C     0.45257   0.88943   0.81165   0.01267  Uiso   1.00
C58    C     0.45247   0.85197   0.80913   0.01267  Uiso   1.00
C59    C     0.40652   0.97124   0.77144   0.01267  Uiso   1.00
C60    C     0.49985   0.93897   0.74191   0.01267  Uiso   1.00
C61    C     0.99172   0.62500   0.93340   0.01267  Uiso   1.00
C62    C     0.96791   0.67295   0.90893   0.01267  Uiso   1.00
C63    C     0.92294   0.69420   0.93204   0.01267  Uiso   1.00
C64    C     0.89990   0.73856   0.91040   0.01267  Uiso   1.00
C65    C     0.92095   0.76297   0.86463   0.01267  Uiso   1.00
C66    C     0.96518   0.74188   0.84122   0.01267  Uiso   1.00
C67    C     0.98850   0.69656   0.86416   0.01267  Uiso   1.00
C68    C     0.85077   0.76725   0.93023   0.01267  Uiso   1.00
C69    C     0.84635   0.81165   0.88943   0.01267  Uiso   1.00
C70    C     0.88643   0.80913   0.85197   0.01267  Uiso   1.00
C71    C     0.85080   0.77144   0.97124   0.01267  Uiso   1.00
C72    C     0.81927   0.74191   0.93897   0.01267  Uiso   1.00
C73    C     0.93340   0.44988   0.99172   0.01267  Uiso   1.00
C74    C     0.90893   0.45021   0.96791   0.01267  Uiso   1.00
C75    C     0.93204   0.45082   0.92294   0.01267  Uiso   1.00
C76    C     0.91040   0.45114   0.89990   0.01267  Uiso   1.00
C77    C     0.86463   0.45145   0.92095   0.01267  Uiso   1.00
C78    C     0.84122   0.45172   0.96518   0.01267  Uiso   1.00
C79    C     0.86416   0.45078   0.98850   0.01267  Uiso   1.00
C80    C     0.93023   0.45175   0.85077   0.01267  Uiso   1.00
C81    C     0.88943   0.45257   0.84635   0.01267  Uiso   1.00
C82    C     0.85197   0.45247   0.88643   0.01267  Uiso   1.00
C83    C     0.97124   0.40652   0.85080   0.01267  Uiso   1.00
C84    C     0.93897   0.49985   0.81927   0.01267  Uiso   1.00
C85    C     0.62500   0.99172   0.44988   0.01267  Uiso   1.00
C86    C     0.67295   0.96791   0.45021   0.01267  Uiso   1.00
C87    C     0.69420   0.92294   0.45082   0.01267  Uiso   1.00
C88    C     0.73856   0.89990   0.45114   0.01267  Uiso   1.00
C89    C     0.76297   0.92095   0.45145   0.01267  Uiso   1.00
C90    C     0.74188   0.96518   0.45172   0.01267  Uiso   1.00
C91    C     0.69656   0.98850   0.45078   0.01267  Uiso   1.00
C92    C     0.76725   0.85077   0.45175   0.01267  Uiso   1.00
C93    C     0.81165   0.84635   0.45257   0.01267  Uiso   1.00
C94    C     0.80913   0.88643   0.45247   0.01267  Uiso   1.00
C95    C     0.77144   0.85080   0.40652   0.01267  Uiso   1.00
C96    C     0.74191   0.81927   0.49985   0.01267  Uiso   1.00
C97    C     0.44988   0.62500   0.99172   0.01267  Uiso   1.00
C98    C     0.45021   0.67295   0.96791   0.01267  Uiso   1.00
C99    C     0.45082   0.69420   0.92294   0.01267  Uiso   1.00
C100   C     0.45114   0.73856   0.89990   0.01267  Uiso   1.00
C101   C     0.45145   0.76297   0.92095   0.01267  Uiso   1.00
C102   C     0.45172   0.74188   0.96518   0.01267  Uiso   1.00
C103   C     0.45078   0.69656   0.98850   0.01267  Uiso   1.00
C104   C     0.45175   0.76725   0.85077   0.01267  Uiso   1.00
C105   C     0.45257   0.81165   0.84635   0.01267  Uiso   1.00
C106   C     0.45247   0.80913   0.88643   0.01267  Uiso   1.00
C107   C     0.40652   0.77144   0.85080   0.01267  Uiso   1.00
C108   C     0.49985   0.74191   0.81927   0.01267  Uiso   1.00
C109   C     0.99172   0.93340   0.44988   0.01267  Uiso   1.00
C110   C     0.96791   0.90893   0.45021   0.01267  Uiso   1.00
C111   C     0.92294   0.93204   0.45082   0.01267  Uiso   1.00
C112   C     0.89990   0.91040   0.45114   0.01267  Uiso   1.00
C113   C     0.92095   0.86463   0.45145   0.01267  Uiso   1.00
C114   C     0.96518   0.84122   0.45172   0.01267  Uiso   1.00
C115   C     0.98850   0.86416   0.45078   0.01267  Uiso   1.00
C116   C     0.85077   0.93023   0.45175   0.01267  Uiso   1.00
C117   C     0.84635   0.88943   0.45257   0.01267  Uiso   1.00
C118   C     0.88643   0.85197   0.45247   0.01267  Uiso   1.00
C119   C     0.85080   0.97124   0.40652   0.01267  Uiso   1.00
C120   C     0.81927   0.93897   0.49985   0.01267  Uiso   1.00
C121   C     0.93340   0.99172   0.62500   0.01267  Uiso   1.00
C122   C     0.90893   0.96791   0.67295   0.01267  Uiso   1.00
C123   C     0.93204   0.92294   0.69420   0.01267  Uiso   1.00
C124   C     0.91040   0.89990   0.73856   0.01267  Uiso   1.00
C125   C     0.86463   0.92095   0.76297   0.01267  Uiso   1.00
C126   C     0.84122   0.96518   0.74188   0.01267  Uiso   1.00
C127   C     0.86416   0.98850   0.69656   0.01267  Uiso   1.00
C128   C     0.93023   0.85077   0.76725   0.01267  Uiso   1.00
C129   C     0.88943   0.84635   0.81165   0.01267  Uiso   1.00
C130   C     0.85197   0.88643   0.80913   0.01267  Uiso   1.00
C131   C     0.97124   0.85080   0.77144   0.01267  Uiso   1.00
C132   C     0.93897   0.81927   0.74191   0.01267  Uiso   1.00
C133   C     0.62500   0.44988   0.93340   0.01267  Uiso   1.00
C134   C     0.67295   0.45021   0.90893   0.01267  Uiso   1.00
C135   C     0.69420   0.45082   0.93204   0.01267  Uiso   1.00
C136   C     0.73856   0.45114   0.91040   0.01267  Uiso   1.00
C137   C     0.76297   0.45145   0.86463   0.01267  Uiso   1.00
C138   C     0.74188   0.45172   0.84122   0.01267  Uiso   1.00
C139   C     0.69656   0.45078   0.86416   0.01267  Uiso   1.00
C140   C     0.76725   0.45175   0.93023   0.01267  Uiso   1.00
C141   C     0.81165   0.45257   0.88943   0.01267  Uiso   1.00
C142   C     0.80913   0.45247   0.85197   0.01267  Uiso   1.00
C143   C     0.77144   0.40652   0.97124   0.01267  Uiso   1.00
C144   C     0.74191   0.49985   0.93897   0.01267  Uiso   1.00
C145   C     0.50828   0.05012   0.56660   0.01267  Uiso   1.00
C146   C     0.53209   0.04979   0.59107   0.01267  Uiso   1.00
C147   C     0.57706   0.04918   0.56796   0.01267  Uiso   1.00
C148   C     0.60010   0.04886   0.58960   0.01267  Uiso   1.00
C149   C     0.57905   0.04855   0.63537   0.01267  Uiso   1.00
C150   C     0.53482   0.04828   0.65878   0.01267  Uiso   1.00
C151   C     0.51150   0.04922   0.63584   0.01267  Uiso   1.00
C152   C     0.64923   0.04825   0.56977   0.01267  Uiso   1.00
C153   C     0.65365   0.04743   0.61057   0.01267  Uiso   1.00
C154   C     0.61357   0.04753   0.64803   0.01267  Uiso   1.00
C155   C     0.64920   0.09348   0.52876   0.01267  Uiso   1.00
C156   C     0.68073   0.00015   0.56103   0.01267  Uiso   1.00
C157   C     0.05012   0.50828   0.87500   0.01267  Uiso   1.00
C158   C     0.04979   0.53209   0.82705   0.01267  Uiso   1.00
C159   C     0.04918   0.57706   0.80580   0.01267  Uiso   1.00
C160   C     0.04886   0.60010   0.76144   0.01267  Uiso   1.00
C161   C     0.04855   0.57905   0.73703   0.01267  Uiso   1.00
C162   C     0.04828   0.53482   0.75812   0.01267  Uiso   1.00
C163   C     0.04922   0.51150   0.80344   0.01267  Uiso   1.00
C164   C     0.04825   0.64923   0.73275   0.01267  Uiso   1.00
C165   C     0.04743   0.65365   0.68835   0.01267  Uiso   1.00
C166   C     0.04753   0.61357   0.69087   0.01267  Uiso   1.00
C167   C     0.09348   0.64920   0.72856   0.01267  Uiso   1.00
C168   C     0.00015   0.68073   0.75809   0.01267  Uiso   1.00
C169   C     0.87500   0.56660   0.05012   0.01267  Uiso   1.00
C170   C     0.82705   0.59107   0.04979   0.01267  Uiso   1.00
C171   C     0.80580   0.56796   0.04918   0.01267  Uiso   1.00
C172   C     0.76144   0.58960   0.04886   0.01267  Uiso   1.00
C173   C     0.73703   0.63537   0.04855   0.01267  Uiso   1.00
C174   C     0.75812   0.65878   0.04828   0.01267  Uiso   1.00
C175   C     0.80344   0.63584   0.04922   0.01267  Uiso   1.00
C176   C     0.73275   0.56977   0.04825   0.01267  Uiso   1.00
C177   C     0.68835   0.61057   0.04743   0.01267  Uiso   1.00
C178   C     0.69087   0.64803   0.04753   0.01267  Uiso   1.00
C179   C     0.72856   0.52876   0.09348   0.01267  Uiso   1.00
C180   C     0.75809   0.56103   0.00015   0.01267  Uiso   1.00
C181   C     0.56660   0.87500   0.50828   0.01267  Uiso   1.00
C182   C     0.59107   0.82705   0.53209   0.01267  Uiso   1.00
C183   C     0.56796   0.80580   0.57706   0.01267  Uiso   1.00
C184   C     0.58960   0.76144   0.60010   0.01267  Uiso   1.00
C185   C     0.63537   0.73703   0.57905   0.01267  Uiso   1.00
C186   C     0.65878   0.75812   0.53482   0.01267  Uiso   1.00
C187   C     0.63584   0.80344   0.51150   0.01267  Uiso   1.00
C188   C     0.56977   0.73275   0.64923   0.01267  Uiso   1.00
C189   C     0.61057   0.68835   0.65365   0.01267  Uiso   1.00
C190   C     0.64803   0.69087   0.61357   0.01267  Uiso   1.00
C191   C     0.52876   0.72856   0.64920   0.01267  Uiso   1.00
C192   C     0.56103   0.75809   0.68073   0.01267  Uiso   1.00
C193   C     0.56660   0.05012   0.87500   0.01267  Uiso   1.00
C194   C     0.59107   0.04979   0.82705   0.01267  Uiso   1.00
C195   C     0.56796   0.04918   0.80580   0.01267  Uiso   1.00
C196   C     0.58960   0.04886   0.76144   0.01267  Uiso   1.00
C197   C     0.63537   0.04855   0.73703   0.01267  Uiso   1.00
C198   C     0.65878   0.04828   0.75812   0.01267  Uiso   1.00
C199   C     0.63584   0.04922   0.80344   0.01267  Uiso   1.00
C200   C     0.56977   0.04825   0.73275   0.01267  Uiso   1.00
C201   C     0.61057   0.04743   0.68835   0.01267  Uiso   1.00
C202   C     0.64803   0.04753   0.69087   0.01267  Uiso   1.00
C203   C     0.52876   0.09348   0.72856   0.01267  Uiso   1.00
C204   C     0.56103   0.00015   0.75809   0.01267  Uiso   1.00
C205   C     0.87500   0.50828   0.56660   0.01267  Uiso   1.00
C206   C     0.82705   0.53209   0.59107   0.01267  Uiso   1.00
C207   C     0.80580   0.57706   0.56796   0.01267  Uiso   1.00
C208   C     0.76144   0.60010   0.58960   0.01267  Uiso   1.00
C209   C     0.73703   0.57905   0.63537   0.01267  Uiso   1.00
C210   C     0.75812   0.53482   0.65878   0.01267  Uiso   1.00
C211   C     0.80344   0.51150   0.63584   0.01267  Uiso   1.00
C212   C     0.73275   0.64923   0.56977   0.01267  Uiso   1.00
C213   C     0.68835   0.65365   0.61057   0.01267  Uiso   1.00
C214   C     0.69087   0.61357   0.64803   0.01267  Uiso   1.00
C215   C     0.72856   0.64920   0.52876   0.01267  Uiso   1.00
C216   C     0.75809   0.68073   0.56103   0.01267  Uiso   1.00
C217   C     0.05012   0.56660   0.50828   0.01267  Uiso   1.00
C218   C     0.04979   0.59107   0.53209   0.01267  Uiso   1.00
C219   C     0.04918   0.56796   0.57706   0.01267  Uiso   1.00
C220   C     0.04886   0.58960   0.60010   0.01267  Uiso   1.00
C221   C     0.04855   0.63537   0.57905   0.01267  Uiso   1.00
C222   C     0.04828   0.65878   0.53482   0.01267  Uiso   1.00
C223   C     0.04922   0.63584   0.51150   0.01267  Uiso   1.00
C224   C     0.04825   0.56977   0.64923   0.01267  Uiso   1.00
C225   C     0.04743   0.61057   0.65365   0.01267  Uiso   1.00
C226   C     0.04753   0.64803   0.61357   0.01267  Uiso   1.00
C227   C     0.09348   0.52876   0.64920   0.01267  Uiso   1.00
C228   C     0.00015   0.56103   0.68073   0.01267  Uiso   1.00
C229   C     0.50828   0.87500   0.05012   0.01267  Uiso   1.00
C230   C     0.53209   0.82705   0.04979   0.01267  Uiso   1.00
C231   C     0.57706   0.80580   0.04918   0.01267  Uiso   1.00
C232   C     0.60010   0.76144   0.04886   0.01267  Uiso   1.00
C233   C     0.57905   0.73703   0.04855   0.01267  Uiso   1.00
C234   C     0.53482   0.75812   0.04828   0.01267  Uiso   1.00
C235   C     0.51150   0.80344   0.04922   0.01267  Uiso   1.00
C236   C     0.64923   0.73275   0.04825   0.01267  Uiso   1.00
C237   C     0.65365   0.68835   0.04743   0.01267  Uiso   1.00
C238   C     0.61357   0.69087   0.04753   0.01267  Uiso   1.00
C239   C     0.64920   0.72856   0.09348   0.01267  Uiso   1.00
C240   C     0.68073   0.75809   0.00015   0.01267  Uiso   1.00
C241   C     0.87500   0.05012   0.50828   0.01267  Uiso   1.00
C242   C     0.82705   0.04979   0.53209   0.01267  Uiso   1.00
C243   C     0.80580   0.04918   0.57706   0.01267  Uiso   1.00
C244   C     0.76144   0.04886   0.60010   0.01267  Uiso   1.00
C245   C     0.73703   0.04855   0.57905   0.01267  Uiso   1.00
C246   C     0.75812   0.04828   0.53482   0.01267  Uiso   1.00
C247   C     0.80344   0.04922   0.51150   0.01267  Uiso   1.00
C248   C     0.73275   0.04825   0.64923   0.01267  Uiso   1.00
C249   C     0.68835   0.04743   0.65365   0.01267  Uiso   1.00
C250   C     0.69087   0.04753   0.61357   0.01267  Uiso   1.00
C251   C     0.72856   0.09348   0.64920   0.01267  Uiso   1.00
C252   C     0.75809   0.00015   0.68073   0.01267  Uiso   1.00
C253   C     0.56660   0.50828   0.05012   0.01267  Uiso   1.00
C254   C     0.59107   0.53209   0.04979   0.01267  Uiso   1.00
C255   C     0.56796   0.57706   0.04918   0.01267  Uiso   1.00
C256   C     0.58960   0.60010   0.04886   0.01267  Uiso   1.00
C257   C     0.63537   0.57905   0.04855   0.01267  Uiso   1.00
C258   C     0.65878   0.53482   0.04828   0.01267  Uiso   1.00
C259   C     0.63584   0.51150   0.04922   0.01267  Uiso   1.00
C260   C     0.56977   0.64923   0.04825   0.01267  Uiso   1.00
C261   C     0.61057   0.65365   0.04743   0.01267  Uiso   1.00
C262   C     0.64803   0.61357   0.04753   0.01267  Uiso   1.00
C263   C     0.52876   0.64920   0.09348   0.01267  Uiso   1.00
C264   C     0.56103   0.68073   0.00015   0.01267  Uiso   1.00
C265   C     0.50828   0.56660   0.87500   0.01267  Uiso   1.00
C266   C     0.53209   0.59107   0.82705   0.01267  Uiso   1.00
C267   C     0.57706   0.56796   0.80580   0.01267  Uiso   1.00
C268   C     0.60010   0.58960   0.76144   0.01267  Uiso   1.00
C269   C     0.57905   0.63537   0.73703   0.01267  Uiso   1.00
C270   C     0.53482   0.65878   0.75812   0.01267  Uiso   1.00
C271   C     0.51150   0.63584   0.80344   0.01267  Uiso   1.00
C272   C     0.64923   0.56977   0.73275   0.01267  Uiso   1.00
C273   C     0.65365   0.61057   0.68835   0.01267  Uiso   1.00
C274   C     0.61357   0.64803   0.69087   0.01267  Uiso   1.00
C275   C     0.64920   0.52876   0.72856   0.01267  Uiso   1.00
C276   C     0.68073   0.56103   0.75809   0.01267  Uiso   1.00
C277   C     0.05012   0.87500   0.56660   0.01267  Uiso   1.00
C278   C     0.04979   0.82705   0.59107   0.01267  Uiso   1.00
C279   C     0.04918   0.80580   0.56796   0.01267  Uiso   1.00
C280   C     0.04886   0.76144   0.58960   0.01267  Uiso   1.00
C281   C     0.04855   0.73703   0.63537   0.01267  Uiso   1.00
C282   C     0.04828   0.75812   0.65878   0.01267  Uiso   1.00
C283   C     0.04922   0.80344   0.63584   0.01267  Uiso   1.00
C284   C     0.04825   0.73275   0.56977   0.01267  Uiso   1.00
C285   C     0.04743   0.68835   0.61057   0.01267  Uiso   1.00
C286   C     0.04753   0.69087   0.64803   0.01267  Uiso   1.00
C287   C     0.09348   0.72856   0.52876   0.01267  Uiso   1.00
C288   C     0.00015   0.75809   0.56103   0.01267  Uiso   1.00
C289   C     0.55012   0.00828   0.06660   0.01267  Uiso   1.00
C290   C     0.54979   0.03209   0.09107   0.01267  Uiso   1.00
C291   C     0.54918   0.07706   0.06796   0.01267  Uiso   1.00
C292   C     0.54886   0.10010   0.08960   0.01267  Uiso   1.00
C293   C     0.54855   0.07905   0.13537   0.01267  Uiso   1.00
C294   C     0.54828   0.03482   0.15878   0.01267  Uiso   1.00
C295   C     0.54922   0.01150   0.13584   0.01267  Uiso   1.00
C296   C     0.54825   0.14923   0.06977   0.01267  Uiso   1.00
C297   C     0.54743   0.15365   0.11057   0.01267  Uiso   1.00
C298   C     0.54753   0.11357   0.14803   0.01267  Uiso   1.00
C299   C     0.59348   0.14920   0.02876   0.01267  Uiso   1.00
C300   C     0.50015   0.18073   0.06103   0.01267  Uiso   1.00
C301   C     0.00828   0.55012   0.37500   0.01267  Uiso   1.00
C302   C     0.03209   0.54979   0.32705   0.01267  Uiso   1.00
C303   C     0.07706   0.54918   0.30580   0.01267  Uiso   1.00
C304   C     0.10010   0.54886   0.26144   0.01267  Uiso   1.00
C305   C     0.07905   0.54855   0.23703   0.01267  Uiso   1.00
C306   C     0.03482   0.54828   0.25812   0.01267  Uiso   1.00
C307   C     0.01150   0.54922   0.30344   0.01267  Uiso   1.00
C308   C     0.14923   0.54825   0.23275   0.01267  Uiso   1.00
C309   C     0.15365   0.54743   0.18835   0.01267  Uiso   1.00
C310   C     0.11357   0.54753   0.19087   0.01267  Uiso   1.00
C311   C     0.14920   0.59348   0.22856   0.01267  Uiso   1.00
C312   C     0.18073   0.50015   0.25809   0.01267  Uiso   1.00
C313   C     0.06660   0.37500   0.55012   0.01267  Uiso   1.00
C314   C     0.09107   0.32705   0.54979   0.01267  Uiso   1.00
C315   C     0.06796   0.30580   0.54918   0.01267  Uiso   1.00
C316   C     0.08960   0.26144   0.54886   0.01267  Uiso   1.00
C317   C     0.13537   0.23703   0.54855   0.01267  Uiso   1.00
C318   C     0.15878   0.25812   0.54828   0.01267  Uiso   1.00
C319   C     0.13584   0.30344   0.54922   0.01267  Uiso   1.00
C320   C     0.06977   0.23275   0.54825   0.01267  Uiso   1.00
C321   C     0.11057   0.18835   0.54743   0.01267  Uiso   1.00
C322   C     0.14803   0.19087   0.54753   0.01267  Uiso   1.00
C323   C     0.02876   0.22856   0.59348   0.01267  Uiso   1.00
C324   C     0.06103   0.25809   0.50015   0.01267  Uiso   1.00
C325   C     0.37500   0.06660   0.00828   0.01267  Uiso   1.00
C326   C     0.32705   0.09107   0.03209   0.01267  Uiso   1.00
C327   C     0.30580   0.06796   0.07706   0.01267  Uiso   1.00
C328   C     0.26144   0.08960   0.10010   0.01267  Uiso   1.00
C329   C     0.23703   0.13537   0.07905   0.01267  Uiso   1.00
C330   C     0.25812   0.15878   0.03482   0.01267  Uiso   1.00
C331   C     0.30344   0.13584   0.01150   0.01267  Uiso   1.00
C332   C     0.23275   0.06977   0.14923   0.01267  Uiso   1.00
C333   C     0.18835   0.11057   0.15365   0.01267  Uiso   1.00
C334   C     0.19087   0.14803   0.11357   0.01267  Uiso   1.00
C335   C     0.22856   0.02876   0.14920   0.01267  Uiso   1.00
C336   C     0.25809   0.06103   0.18073   0.01267  Uiso   1.00
C337   C     0.55012   0.06660   0.37500   0.01267  Uiso   1.00
C338   C     0.54979   0.09107   0.32705   0.01267  Uiso   1.00
C339   C     0.54918   0.06796   0.30580   0.01267  Uiso   1.00
C340   C     0.54886   0.08960   0.26144   0.01267  Uiso   1.00
C341   C     0.54855   0.13537   0.23703   0.01267  Uiso   1.00
C342   C     0.54828   0.15878   0.25812   0.01267  Uiso   1.00
C343   C     0.54922   0.13584   0.30344   0.01267  Uiso   1.00
C344   C     0.54825   0.06977   0.23275   0.01267  Uiso   1.00
C345   C     0.54743   0.11057   0.18835   0.01267  Uiso   1.00
C346   C     0.54753   0.14803   0.19087   0.01267  Uiso   1.00
C347   C     0.59348   0.02876   0.22856   0.01267  Uiso   1.00
C348   C     0.50015   0.06103   0.25809   0.01267  Uiso   1.00
C349   C     0.00828   0.37500   0.06660   0.01267  Uiso   1.00
C350   C     0.03209   0.32705   0.09107   0.01267  Uiso   1.00
C351   C     0.07706   0.30580   0.06796   0.01267  Uiso   1.00
C352   C     0.10010   0.26144   0.08960   0.01267  Uiso   1.00
C353   C     0.07905   0.23703   0.13537   0.01267  Uiso   1.00
C354   C     0.03482   0.25812   0.15878   0.01267  Uiso   1.00
C355   C     0.01150   0.30344   0.13584   0.01267  Uiso   1.00
C356   C     0.14923   0.23275   0.06977   0.01267  Uiso   1.00
C357   C     0.15365   0.18835   0.11057   0.01267  Uiso   1.00
C358   C     0.11357   0.19087   0.14803   0.01267  Uiso   1.00
C359   C     0.14920   0.22856   0.02876   0.01267  Uiso   1.00
C360   C     0.18073   0.25809   0.06103   0.01267  Uiso   1.00
C361   C     0.06660   0.55012   0.00828   0.01267  Uiso   1.00
C362   C     0.09107   0.54979   0.03209   0.01267  Uiso   1.00
C363   C     0.06796   0.54918   0.07706   0.01267  Uiso   1.00
C364   C     0.08960   0.54886   0.10010   0.01267  Uiso   1.00
C365   C     0.13537   0.54855   0.07905   0.01267  Uiso   1.00
C366   C     0.15878   0.54828   0.03482   0.01267  Uiso   1.00
C367   C     0.13584   0.54922   0.01150   0.01267  Uiso   1.00
C368   C     0.06977   0.54825   0.14923   0.01267  Uiso   1.00
C369   C     0.11057   0.54743   0.15365   0.01267  Uiso   1.00
C370   C     0.14803   0.54753   0.11357   0.01267  Uiso   1.00
C371   C     0.02876   0.59348   0.14920   0.01267  Uiso   1.00
C372   C     0.06103   0.50015   0.18073   0.01267  Uiso   1.00
C373   C     0.37500   0.00828   0.55012   0.01267  Uiso   1.00
C374   C     0.32705   0.03209   0.54979   0.01267  Uiso   1.00
C375   C     0.30580   0.07706   0.54918   0.01267  Uiso   1.00
C376   C     0.26144   0.10010   0.54886   0.01267  Uiso   1.00
C377   C     0.23703   0.07905   0.54855   0.01267  Uiso   1.00
C378   C     0.25812   0.03482   0.54828   0.01267  Uiso   1.00
C379   C     0.30344   0.01150   0.54922   0.01267  Uiso   1.00
C380   C     0.23275   0.14923   0.54825   0.01267  Uiso   1.00
C381   C     0.18835   0.15365   0.54743   0.01267  Uiso   1.00
C382   C     0.19087   0.11357   0.54753   0.01267  Uiso   1.00
C383   C     0.22856   0.14920   0.59348   0.01267  Uiso   1.00
C384   C     0.25809   0.18073   0.50015   0.01267  Uiso   1.00
C385   C     0.55012   0.37500   0.00828   0.01267  Uiso   1.00
C386   C     0.54979   0.32705   0.03209   0.01267  Uiso   1.00
C387   C     0.54918   0.30580   0.07706   0.01267  Uiso   1.00
C388   C     0.54886   0.26144   0.10010   0.01267  Uiso   1.00
C389   C     0.54855   0.23703   0.07905   0.01267  Uiso   1.00
C390   C     0.54828   0.25812   0.03482   0.01267  Uiso   1.00
C391   C     0.54922   0.30344   0.01150   0.01267  Uiso   1.00
C392   C     0.54825   0.23275   0.14923   0.01267  Uiso   1.00
C393   C     0.54743   0.18835   0.15365   0.01267  Uiso   1.00
C394   C     0.54753   0.19087   0.11357   0.01267  Uiso   1.00
C395   C     0.59348   0.22856   0.14920   0.01267  Uiso   1.00
C396   C     0.50015   0.25809   0.18073   0.01267  Uiso   1.00
C397   C     0.00828   0.06660   0.55012   0.01267  Uiso   1.00
C398   C     0.03209   0.09107   0.54979   0.01267  Uiso   1.00
C399   C     0.07706   0.06796   0.54918   0.01267  Uiso   1.00
C400   C     0.10010   0.08960   0.54886   0.01267  Uiso   1.00
C401   C     0.07905   0.13537   0.54855   0.01267  Uiso   1.00
C402   C     0.03482   0.15878   0.54828   0.01267  Uiso   1.00
C403   C     0.01150   0.13584   0.54922   0.01267  Uiso   1.00
C404   C     0.14923   0.06977   0.54825   0.01267  Uiso   1.00
C405   C     0.15365   0.11057   0.54743   0.01267  Uiso   1.00
C406   C     0.11357   0.14803   0.54753   0.01267  Uiso   1.00
C407   C     0.14920   0.02876   0.59348   0.01267  Uiso   1.00
C408   C     0.18073   0.06103   0.50015   0.01267  Uiso   1.00
C409   C     0.06660   0.00828   0.37500   0.01267  Uiso   1.00
C410   C     0.09107   0.03209   0.32705   0.01267  Uiso   1.00
C411   C     0.06796   0.07706   0.30580   0.01267  Uiso   1.00
C412   C     0.08960   0.10010   0.26144   0.01267  Uiso   1.00
C413   C     0.13537   0.07905   0.23703   0.01267  Uiso   1.00
C414   C     0.15878   0.03482   0.25812   0.01267  Uiso   1.00
C415   C     0.13584   0.01150   0.30344   0.01267  Uiso   1.00
C416   C     0.06977   0.14923   0.23275   0.01267  Uiso   1.00
C417   C     0.11057   0.15365   0.18835   0.01267  Uiso   1.00
C418   C     0.14803   0.11357   0.19087   0.01267  Uiso   1.00
C419   C     0.02876   0.14920   0.22856   0.01267  Uiso   1.00
C420   C     0.06103   0.18073   0.25809   0.01267  Uiso   1.00
C421   C     0.37500   0.55012   0.06660   0.01267  Uiso   1.00
C422   C     0.32705   0.54979   0.09107   0.01267  Uiso   1.00
C423   C     0.30580   0.54918   0.06796   0.01267  Uiso   1.00
C424   C     0.26144   0.54886   0.08960   0.01267  Uiso   1.00
C425   C     0.23703   0.54855   0.13537   0.01267  Uiso   1.00
C426   C     0.25812   0.54828   0.15878   0.01267  Uiso   1.00
C427   C     0.30344   0.54922   0.13584   0.01267  Uiso   1.00
C428   C     0.23275   0.54825   0.06977   0.01267  Uiso   1.00
C429   C     0.18835   0.54743   0.11057   0.01267  Uiso   1.00
C430   C     0.19087   0.54753   0.14803   0.01267  Uiso   1.00
C431   C     0.22856   0.59348   0.02876   0.01267  Uiso   1.00
C432   C     0.25809   0.50015   0.06103   0.01267  Uiso   1.00
C433   C     0.49172   0.94988   0.43340   0.01267  Uiso   1.00
C434   C     0.46791   0.95021   0.40893   0.01267  Uiso   1.00
C435   C     0.42294   0.95082   0.43204   0.01267  Uiso   1.00
C436   C     0.39990   0.95114   0.41040   0.01267  Uiso   1.00
C437   C     0.42095   0.95145   0.36463   0.01267  Uiso   1.00
C438   C     0.46518   0.95172   0.34122   0.01267  Uiso   1.00
C439   C     0.48850   0.95078   0.36416   0.01267  Uiso   1.00
C440   C     0.35077   0.95175   0.43023   0.01267  Uiso   1.00
C441   C     0.34635   0.95257   0.38943   0.01267  Uiso   1.00
C442   C     0.38643   0.95247   0.35197   0.01267  Uiso   1.00
C443   C     0.35080   0.90652   0.47124   0.01267  Uiso   1.00
C444   C     0.31927   0.99985   0.43897   0.01267  Uiso   1.00
C445   C     0.94988   0.49172   0.12500   0.01267  Uiso   1.00
C446   C     0.95021   0.46791   0.17295   0.01267  Uiso   1.00
C447   C     0.95082   0.42294   0.19420   0.01267  Uiso   1.00
C448   C     0.95114   0.39990   0.23856   0.01267  Uiso   1.00
C449   C     0.95145   0.42095   0.26297   0.01267  Uiso   1.00
C450   C     0.95172   0.46518   0.24188   0.01267  Uiso   1.00
C451   C     0.95078   0.48850   0.19656   0.01267  Uiso   1.00
C452   C     0.95175   0.35077   0.26725   0.01267  Uiso   1.00
C453   C     0.95257   0.34635   0.31165   0.01267  Uiso   1.00
C454   C     0.95247   0.38643   0.30913   0.01267  Uiso   1.00
C455   C     0.90652   0.35080   0.27144   0.01267  Uiso   1.00
C456   C     0.99985   0.31927   0.24191   0.01267  Uiso   1.00
C457   C     0.12500   0.43340   0.94988   0.01267  Uiso   1.00
C458   C     0.17295   0.40893   0.95021   0.01267  Uiso   1.00
C459   C     0.19420   0.43204   0.95082   0.01267  Uiso   1.00
C460   C     0.23856   0.41040   0.95114   0.01267  Uiso   1.00
C461   C     0.26297   0.36463   0.95145   0.01267  Uiso   1.00
C462   C     0.24188   0.34122   0.95172   0.01267  Uiso   1.00
C463   C     0.19656   0.36416   0.95078   0.01267  Uiso   1.00
C464   C     0.26725   0.43023   0.95175   0.01267  Uiso   1.00
C465   C     0.31165   0.38943   0.95257   0.01267  Uiso   1.00
C466   C     0.30913   0.35197   0.95247   0.01267  Uiso   1.00
C467   C     0.27144   0.47124   0.90652   0.01267  Uiso   1.00
C468   C     0.24191   0.43897   0.99985   0.01267  Uiso   1.00
C469   C     0.43340   0.12500   0.49172   0.01267  Uiso   1.00
C470   C     0.40893   0.17295   0.46791   0.01267  Uiso   1.00
C471   C     0.43204   0.19420   0.42294   0.01267  Uiso   1.00
C472   C     0.41040   0.23856   0.39990   0.01267  Uiso   1.00
C473   C     0.36463   0.26297   0.42095   0.01267  Uiso   1.00
C474   C     0.34122   0.24188   0.46518   0.01267  Uiso   1.00
C475   C     0.36416   0.19656   0.48850   0.01267  Uiso   1.00
C476   C     0.43023   0.26725   0.35077   0.01267  Uiso   1.00
C477   C     0.38943   0.31165   0.34635   0.01267  Uiso   1.00
C478   C     0.35197   0.30913   0.38643   0.01267  Uiso   1.00
C479   C     0.47124   0.27144   0.35080   0.01267  Uiso   1.00
C480   C     0.43897   0.24191   0.31927   0.01267  Uiso   1.00
C481   C     0.43340   0.94988   0.12500   0.01267  Uiso   1.00
C482   C     0.40893   0.95021   0.17295   0.01267  Uiso   1.00
C483   C     0.43204   0.95082   0.19420   0.01267  Uiso   1.00
C484   C     0.41040   0.95114   0.23856   0.01267  Uiso   1.00
C485   C     0.36463   0.95145   0.26297   0.01267  Uiso   1.00
C486   C     0.34122   0.95172   0.24188   0.01267  Uiso   1.00
C487   C     0.36416   0.95078   0.19656   0.01267  Uiso   1.00
C488   C     0.43023   0.95175   0.26725   0.01267  Uiso   1.00
C489   C     0.38943   0.95257   0.31165   0.01267  Uiso   1.00
C490   C     0.35197   0.95247   0.30913   0.01267  Uiso   1.00
C491   C     0.47124   0.90652   0.27144   0.01267  Uiso   1.00
C492   C     0.43897   0.99985   0.24191   0.01267  Uiso   1.00
C493   C     0.12500   0.49172   0.43340   0.01267  Uiso   1.00
C494   C     0.17295   0.46791   0.40893   0.01267  Uiso   1.00
C495   C     0.19420   0.42294   0.43204   0.01267  Uiso   1.00
C496   C     0.23856   0.39990   0.41040   0.01267  Uiso   1.00
C497   C     0.26297   0.42095   0.36463   0.01267  Uiso   1.00
C498   C     0.24188   0.46518   0.34122   0.01267  Uiso   1.00
C499   C     0.19656   0.48850   0.36416   0.01267  Uiso   1.00
C500   C     0.26725   0.35077   0.43023   0.01267  Uiso   1.00
C501   C     0.31165   0.34635   0.38943   0.01267  Uiso   1.00
C502   C     0.30913   0.38643   0.35197   0.01267  Uiso   1.00
C503   C     0.27144   0.35080   0.47124   0.01267  Uiso   1.00
C504   C     0.24191   0.31927   0.43897   0.01267  Uiso   1.00
C505   C     0.94988   0.43340   0.49172   0.01267  Uiso   1.00
C506   C     0.95021   0.40893   0.46791   0.01267  Uiso   1.00
C507   C     0.95082   0.43204   0.42294   0.01267  Uiso   1.00
C508   C     0.95114   0.41040   0.39990   0.01267  Uiso   1.00
C509   C     0.95145   0.36463   0.42095   0.01267  Uiso   1.00
C510   C     0.95172   0.34122   0.46518   0.01267  Uiso   1.00
C511   C     0.95078   0.36416   0.48850   0.01267  Uiso   1.00
C512   C     0.95175   0.43023   0.35077   0.01267  Uiso   1.00
C513   C     0.95257   0.38943   0.34635   0.01267  Uiso   1.00
C514   C     0.95247   0.35197   0.38643   0.01267  Uiso   1.00
C515   C     0.90652   0.47124   0.35080   0.01267  Uiso   1.00
C516   C     0.99985   0.43897   0.31927   0.01267  Uiso   1.00
C517   C     0.49172   0.12500   0.94988   0.01267  Uiso   1.00
C518   C     0.46791   0.17295   0.95021   0.01267  Uiso   1.00
C519   C     0.42294   0.19420   0.95082   0.01267  Uiso   1.00
C520   C     0.39990   0.23856   0.95114   0.01267  Uiso   1.00
C521   C     0.42095   0.26297   0.95145   0.01267  Uiso   1.00
C522   C     0.46518   0.24188   0.95172   0.01267  Uiso   1.00
C523   C     0.48850   0.19656   0.95078   0.01267  Uiso   1.00
C524   C     0.35077   0.26725   0.95175   0.01267  Uiso   1.00
C525   C     0.34635   0.31165   0.95257   0.01267  Uiso   1.00
C526   C     0.38643   0.30913   0.95247   0.01267  Uiso   1.00
C527   C     0.35080   0.27144   0.90652   0.01267  Uiso   1.00
C528   C     0.31927   0.24191   0.99985   0.01267  Uiso   1.00
C529   C     0.12500   0.94988   0.49172   0.01267  Uiso   1.00
C530   C     0.17295   0.95021   0.46791   0.01267  Uiso   1.00
C531   C     0.19420   0.95082   0.42294   0.01267  Uiso   1.00
C532   C     0.23856   0.95114   0.39990   0.01267  Uiso   1.00
C533   C     0.26297   0.95145   0.42095   0.01267  Uiso   1.00
C534   C     0.24188   0.95172   0.46518   0.01267  Uiso   1.00
C535   C     0.19656   0.95078   0.48850   0.01267  Uiso   1.00
C536   C     0.26725   0.95175   0.35077   0.01267  Uiso   1.00
C537   C     0.31165   0.95257   0.34635   0.01267  Uiso   1.00
C538   C     0.30913   0.95247   0.38643   0.01267  Uiso   1.00
C539   C     0.27144   0.90652   0.35080   0.01267  Uiso   1.00
C540   C     0.24191   0.99985   0.31927   0.01267  Uiso   1.00
C541   C     0.43340   0.49172   0.94988   0.01267  Uiso   1.00
C542   C     0.40893   0.46791   0.95021   0.01267  Uiso   1.00
C543   C     0.43204   0.42294   0.95082   0.01267  Uiso   1.00
C544   C     0.41040   0.39990   0.95114   0.01267  Uiso   1.00
C545   C     0.36463   0.42095   0.95145   0.01267  Uiso   1.00
C546   C     0.34122   0.46518   0.95172   0.01267  Uiso   1.00
C547   C     0.36416   0.48850   0.95078   0.01267  Uiso   1.00
C548   C     0.43023   0.35077   0.95175   0.01267  Uiso   1.00
C549   C     0.38943   0.34635   0.95257   0.01267  Uiso   1.00
C550   C     0.35197   0.38643   0.95247   0.01267  Uiso   1.00
C551   C     0.47124   0.35080   0.90652   0.01267  Uiso   1.00
C552   C     0.43897   0.31927   0.99985   0.01267  Uiso   1.00
C553   C     0.49172   0.43340   0.12500   0.01267  Uiso   1.00
C554   C     0.46791   0.40893   0.17295   0.01267  Uiso   1.00
C555   C     0.42294   0.43204   0.19420   0.01267  Uiso   1.00
C556   C     0.39990   0.41040   0.23856   0.01267  Uiso   1.00
C557   C     0.42095   0.36463   0.26297   0.01267  Uiso   1.00
C558   C     0.46518   0.34122   0.24188   0.01267  Uiso   1.00
C559   C     0.48850   0.36416   0.19656   0.01267  Uiso   1.00
C560   C     0.35077   0.43023   0.26725   0.01267  Uiso   1.00
C561   C     0.34635   0.38943   0.31165   0.01267  Uiso   1.00
C562   C     0.38643   0.35197   0.30913   0.01267  Uiso   1.00
C563   C     0.35080   0.47124   0.27144   0.01267  Uiso   1.00
C564   C     0.31927   0.43897   0.24191   0.01267  Uiso   1.00
C565   C     0.94988   0.12500   0.43340   0.01267  Uiso   1.00
C566   C     0.95021   0.17295   0.40893   0.01267  Uiso   1.00
C567   C     0.95082   0.19420   0.43204   0.01267  Uiso   1.00
C568   C     0.95114   0.23856   0.41040   0.01267  Uiso   1.00
C569   C     0.95145   0.26297   0.36463   0.01267  Uiso   1.00
C570   C     0.95172   0.24188   0.34122   0.01267  Uiso   1.00
C571   C     0.95078   0.19656   0.36416   0.01267  Uiso   1.00
C572   C     0.95175   0.26725   0.43023   0.01267  Uiso   1.00
C573   C     0.95257   0.31165   0.38943   0.01267  Uiso   1.00
C574   C     0.95247   0.30913   0.35197   0.01267  Uiso   1.00
C575   C     0.90652   0.27144   0.47124   0.01267  Uiso   1.00
C576   C     0.99985   0.24191   0.43897   0.01267  Uiso   1.00
Cl1    Cl    0.48921   0.01079   0.01079   0.01267  Uiso   1.00
Cl2    Cl    0.01079   0.48921   0.48921   0.01267  Uiso   1.00
Cl3    Cl    0.48921   0.01079   0.48921   0.01267  Uiso   1.00
Cl4    Cl    0.01079   0.48921   0.01079   0.01267  Uiso   1.00
Cl5    Cl    0.48921   0.48921   0.01079   0.01267  Uiso   1.00
Cl6    Cl    0.01079   0.01079   0.48921   0.01267  Uiso   1.00
Cl7    Cl    0.51079   0.98921   0.98921   0.01267  Uiso   1.00
Cl8    Cl    0.98921   0.51079   0.51079   0.01267  Uiso   1.00
Cl9    Cl    0.51079   0.98921   0.51079   0.01267  Uiso   1.00
Cl10   Cl    0.98921   0.51079   0.98921   0.01267  Uiso   1.00
Cl11   Cl    0.51079   0.51079   0.98921   0.01267  Uiso   1.00
Cl12   Cl    0.98921   0.98921   0.51079   0.01267  Uiso   1.00
O1     O     0.45422   0.02946   0.91142   0.01267  Uiso   1.00
O2     O     0.42661   0.97757   0.98147   0.01267  Uiso   1.00
O3     O     0.02946   0.45422   0.60490   0.01267  Uiso   1.00
O4     O     0.97757   0.42661   0.61435   0.01267  Uiso   1.00
O5     O     0.91142   0.60490   0.45422   0.01267  Uiso   1.00
O6     O     0.98147   0.61435   0.42661   0.01267  Uiso   1.00
O7     O     0.60490   0.91142   0.02946   0.01267  Uiso   1.00
O8     O     0.61435   0.98147   0.97757   0.01267  Uiso   1.00
O9     O     0.45422   0.91142   0.60490   0.01267  Uiso   1.00
O10    O     0.42661   0.98147   0.61435   0.01267  Uiso   1.00
O11    O     0.02946   0.60490   0.91142   0.01267  Uiso   1.00
O12    O     0.97757   0.61435   0.98147   0.01267  Uiso   1.00
O13    O     0.91142   0.45422   0.02946   0.01267  Uiso   1.00
O14    O     0.98147   0.42661   0.97757   0.01267  Uiso   1.00
O15    O     0.60490   0.02946   0.45422   0.01267  Uiso   1.00
O16    O     0.61435   0.97757   0.42661   0.01267  Uiso   1.00
O17    O     0.45422   0.60490   0.02946   0.01267  Uiso   1.00
O18    O     0.42661   0.61435   0.97757   0.01267  Uiso   1.00
O19    O     0.02946   0.91142   0.45422   0.01267  Uiso   1.00
O20    O     0.97757   0.98147   0.42661   0.01267  Uiso   1.00
O21    O     0.91142   0.02946   0.60490   0.01267  Uiso   1.00
O22    O     0.98147   0.97757   0.61435   0.01267  Uiso   1.00
O23    O     0.60490   0.45422   0.91142   0.01267  Uiso   1.00
O24    O     0.61435   0.42661   0.98147   0.01267  Uiso   1.00
O25    O     0.47054   0.04578   0.58858   0.01267  Uiso   1.00
O26    O     0.52243   0.07339   0.51853   0.01267  Uiso   1.00
O27    O     0.04578   0.47054   0.89510   0.01267  Uiso   1.00
O28    O     0.07339   0.52243   0.88565   0.01267  Uiso   1.00
O29    O     0.89510   0.58858   0.04578   0.01267  Uiso   1.00
O30    O     0.88565   0.51853   0.07339   0.01267  Uiso   1.00
O31    O     0.58858   0.89510   0.47054   0.01267  Uiso   1.00
O32    O     0.51853   0.88565   0.52243   0.01267  Uiso   1.00
O33    O     0.58858   0.04578   0.89510   0.01267  Uiso   1.00
O34    O     0.51853   0.07339   0.88565   0.01267  Uiso   1.00
O35    O     0.89510   0.47054   0.58858   0.01267  Uiso   1.00
O36    O     0.88565   0.52243   0.51853   0.01267  Uiso   1.00
O37    O     0.04578   0.58858   0.47054   0.01267  Uiso   1.00
O38    O     0.07339   0.51853   0.52243   0.01267  Uiso   1.00
O39    O     0.47054   0.89510   0.04578   0.01267  Uiso   1.00
O40    O     0.52243   0.88565   0.07339   0.01267  Uiso   1.00
O41    O     0.89510   0.04578   0.47054   0.01267  Uiso   1.00
O42    O     0.88565   0.07339   0.52243   0.01267  Uiso   1.00
O43    O     0.58858   0.47054   0.04578   0.01267  Uiso   1.00
O44    O     0.51853   0.52243   0.07339   0.01267  Uiso   1.00
O45    O     0.47054   0.58858   0.89510   0.01267  Uiso   1.00
O46    O     0.52243   0.51853   0.88565   0.01267  Uiso   1.00
O47    O     0.04578   0.89510   0.58858   0.01267  Uiso   1.00
O48    O     0.07339   0.88565   0.51853   0.01267  Uiso   1.00
O49    O     0.54578   0.97054   0.08858   0.01267  Uiso   1.00
O50    O     0.57339   0.02243   0.01853   0.01267  Uiso   1.00
O51    O     0.97054   0.54578   0.39510   0.01267  Uiso   1.00
O52    O     0.02243   0.57339   0.38565   0.01267  Uiso   1.00
O53    O     0.08858   0.39510   0.54578   0.01267  Uiso   1.00
O54    O     0.01853   0.38565   0.57339   0.01267  Uiso   1.00
O55    O     0.39510   0.08858   0.97054   0.01267  Uiso   1.00
O56    O     0.38565   0.01853   0.02243   0.01267  Uiso   1.00
O57    O     0.54578   0.08858   0.39510   0.01267  Uiso   1.00
O58    O     0.57339   0.01853   0.38565   0.01267  Uiso   1.00
O59    O     0.97054   0.39510   0.08858   0.01267  Uiso   1.00
O60    O     0.02243   0.38565   0.01853   0.01267  Uiso   1.00
O61    O     0.08858   0.54578   0.97054   0.01267  Uiso   1.00
O62    O     0.01853   0.57339   0.02243   0.01267  Uiso   1.00
O63    O     0.39510   0.97054   0.54578   0.01267  Uiso   1.00
O64    O     0.38565   0.02243   0.57339   0.01267  Uiso   1.00
O65    O     0.54578   0.39510   0.97054   0.01267  Uiso   1.00
O66    O     0.57339   0.38565   0.02243   0.01267  Uiso   1.00
O67    O     0.97054   0.08858   0.54578   0.01267  Uiso   1.00
O68    O     0.02243   0.01853   0.57339   0.01267  Uiso   1.00
O69    O     0.08858   0.97054   0.39510   0.01267  Uiso   1.00
O70    O     0.01853   0.02243   0.38565   0.01267  Uiso   1.00
O71    O     0.39510   0.54578   0.08858   0.01267  Uiso   1.00
O72    O     0.38565   0.57339   0.01853   0.01267  Uiso   1.00
O73    O     0.52946   0.95422   0.41142   0.01267  Uiso   1.00
O74    O     0.47757   0.92661   0.48147   0.01267  Uiso   1.00
O75    O     0.95422   0.52946   0.10490   0.01267  Uiso   1.00
O76    O     0.92661   0.47757   0.11435   0.01267  Uiso   1.00
O77    O     0.10490   0.41142   0.95422   0.01267  Uiso   1.00
O78    O     0.11435   0.48147   0.92661   0.01267  Uiso   1.00
O79    O     0.41142   0.10490   0.52946   0.01267  Uiso   1.00
O80    O     0.48147   0.11435   0.47757   0.01267  Uiso   1.00
O81    O     0.41142   0.95422   0.10490   0.01267  Uiso   1.00
O82    O     0.48147   0.92661   0.11435   0.01267  Uiso   1.00
O83    O     0.10490   0.52946   0.41142   0.01267  Uiso   1.00
O84    O     0.11435   0.47757   0.48147   0.01267  Uiso   1.00
O85    O     0.95422   0.41142   0.52946   0.01267  Uiso   1.00
O86    O     0.92661   0.48147   0.47757   0.01267  Uiso   1.00
O87    O     0.52946   0.10490   0.95422   0.01267  Uiso   1.00
O88    O     0.47757   0.11435   0.92661   0.01267  Uiso   1.00
O89    O     0.10490   0.95422   0.52946   0.01267  Uiso   1.00
O90    O     0.11435   0.92661   0.47757   0.01267  Uiso   1.00
O91    O     0.41142   0.52946   0.95422   0.01267  Uiso   1.00
O92    O     0.48147   0.47757   0.92661   0.01267  Uiso   1.00
O93    O     0.52946   0.41142   0.10490   0.01267  Uiso   1.00
O94    O     0.47757   0.48147   0.11435   0.01267  Uiso   1.00
O95    O     0.95422   0.10490   0.41142   0.01267  Uiso   1.00
O96    O     0.92661   0.11435   0.48147   0.01267  Uiso   1.00
Mn25   Mn    0.75000   0.75000   0.75000   0.01267  Uiso   1.00
Mn26   Mn    0.25000   0.25000   0.25000   0.01267  Uiso   1.00
