data_VEWKUF_clean
_audit_creation_date              2015-10-29
_audit_creation_method            'Materials Studio'
_symmetry_space_group_name_H-M    'P1'
_symmetry_Int_Tables_number       1
_symmetry_cell_setting            triclinic
loop_
_symmetry_equiv_pos_as_xyz
  x,y,z
_cell_length_a                    20.6536
_cell_length_b                    20.7926
_cell_length_c                    33.4974
_cell_angle_alpha                 90.0000
_cell_angle_beta                  90.0000
_cell_angle_gamma                 118.6190
loop_
_atom_site_label
_atom_site_type_symbol
_atom_site_fract_x
_atom_site_fract_y
_atom_site_fract_z
_atom_site_U_iso_or_equiv
_atom_site_adp_type
_atom_site_occupancy
Zn1    Zn    0.65271   0.81726   0.00192   0.01267  Uiso   1.00
Zn2    Zn    0.84293   0.18873   0.93992   0.01267  Uiso   1.00
Zn3    Zn    0.74912   0.00187   0.96994   0.01267  Uiso   1.00
Zn4    Zn    0.34719   0.18262   0.50174   0.01267  Uiso   1.00
Zn5    Zn    0.15687   0.81103   0.43980   0.01267  Uiso   1.00
Zn6    Zn    0.25114   0.99789   0.47029   0.01267  Uiso   1.00
C7     C     0.79320   0.13363   0.01331   0.01267  Uiso   1.00
C8     C     0.79245   0.14069   0.05712   0.01267  Uiso   1.00
C9     C     0.85115   0.19915   0.07686   0.01267  Uiso   1.00
C10    C     0.85486   0.20082   0.11848   0.01267  Uiso   1.00
C11    C     0.79930   0.14482   0.14136   0.01267  Uiso   1.00
C12    C     0.73867   0.08848   0.12148   0.01267  Uiso   1.00
C13    C     0.73540   0.08635   0.07986   0.01267  Uiso   1.00
C14    C     0.28698   0.92118   0.41327   0.01267  Uiso   1.00
C15    C     0.35938   0.94668   0.39405   0.01267  Uiso   1.00
C16    C     0.38914   0.89891   0.38867   0.01267  Uiso   1.00
C17    C     0.46077   0.92526   0.37394   0.01267  Uiso   1.00
C18    C     0.50397  -0.00010   0.36466   0.01267  Uiso   1.00
C19    C     0.47350   0.04703   0.36967   0.01267  Uiso   1.00
C20    C     0.40184   0.02054   0.38368   0.01267  Uiso   1.00
C21    C     0.29875   0.12988   0.42764   0.01267  Uiso   1.00
C22    C     0.30063   0.13627   0.38374   0.01267  Uiso   1.00
C23    C     0.24159   0.08495   0.36089   0.01267  Uiso   1.00
C24    C     0.24456   0.08776   0.31933   0.01267  Uiso   1.00
C25    C     0.30741   0.14110   0.29939   0.01267  Uiso   1.00
C26    C     0.36648   0.19289   0.32251   0.01267  Uiso   1.00
C27    C     0.36272   0.19099   0.36417   0.01267  Uiso   1.00
C28    C     0.78322   0.92510   0.02886   0.01267  Uiso   1.00
C29    C     0.85432   0.95164   0.04989   0.01267  Uiso   1.00
C30    C     0.88514   0.90516   0.05630   0.01267  Uiso   1.00
C31    C     0.95685   0.93328   0.07121   0.01267  Uiso   1.00
C32    C    -0.00104   0.00834   0.08015   0.01267  Uiso   1.00
C33    C     0.96649   0.05377   0.07552   0.01267  Uiso   1.00
C34    C     0.89500   0.02571   0.06079   0.01267  Uiso   1.00
C35    C     0.07753   0.04038   0.09235   0.01267  Uiso   1.00
C36    C     0.12334   0.01532   0.07531   0.01267  Uiso   1.00
C37    C     0.19817   0.04810   0.08493   0.01267  Uiso   1.00
C38    C     0.23062   0.10900   0.11113   0.01267  Uiso   1.00
C39    C     0.18326   0.13224   0.12886   0.01267  Uiso   1.00
C40    C     0.10822   0.09856   0.11969   0.01267  Uiso   1.00
C41    C     0.80513   0.14473   0.18564   0.01267  Uiso   1.00
C42    C     0.83830   0.21082   0.20700   0.01267  Uiso   1.00
C43    C     0.84380   0.21115   0.24849   0.01267  Uiso   1.00
C44    C     0.81695   0.14508   0.27034   0.01267  Uiso   1.00
C45    C     0.78184   0.07884   0.24857   0.01267  Uiso   1.00
C46    C     0.77709   0.07864   0.20701   0.01267  Uiso   1.00
C47    C     0.85078   0.22136   0.33474   0.01267  Uiso   1.00
C48    C     0.92773   0.26774   0.33129   0.01267  Uiso   1.00
C49    C     0.96201   0.33841   0.34778   0.01267  Uiso   1.00
C50    C     0.92029   0.36586   0.36768   0.01267  Uiso   1.00
C51    C     0.84381   0.32033   0.37073   0.01267  Uiso   1.00
C52    C     0.81012   0.24906   0.35582   0.01267  Uiso   1.00
C53    C     0.73196   0.09852   0.32791   0.01267  Uiso   1.00
C54    C     0.68233   0.11938   0.31068   0.01267  Uiso   1.00
C55    C     0.70210   0.03762   0.35414   0.01267  Uiso   1.00
C56    C     0.31356   0.14725   0.12327   0.01267  Uiso   1.00
C57    C     0.35247   0.10570   0.10538   0.01267  Uiso   1.00
C58    C     0.36568   0.11013   0.06384   0.01267  Uiso   1.00
C59    C     0.40052   0.07452   0.04605   0.01267  Uiso   1.00
C60    C     0.42471   0.03385   0.06907   0.01267  Uiso   1.00
C61    C     0.41300   0.02955   0.11047   0.01267  Uiso   1.00
C62    C     0.37838   0.06565   0.12847   0.01267  Uiso   1.00
C63    C     0.35613   0.22701   0.10662   0.01267  Uiso   1.00
C64    C     0.32186   0.26243   0.08639   0.01267  Uiso   1.00
C65    C     0.36325   0.33370   0.07143   0.01267  Uiso   1.00
C66    C     0.44046   0.37193   0.07542   0.01267  Uiso   1.00
C67    C     0.47501   0.33680   0.09505   0.01267  Uiso   1.00
C68    C     0.43389   0.26570   0.10990   0.01267  Uiso   1.00
C69    C     0.48510   0.44761   0.05884   0.01267  Uiso   1.00
C70    C     0.45809   0.49828   0.05911   0.01267  Uiso   1.00
C71    C     0.50097   0.56959   0.04434   0.01267  Uiso   1.00
C72    C     0.57211   0.59237   0.02903   0.01267  Uiso   1.00
C73    C     0.59874   0.54154   0.02826   0.01267  Uiso   1.00
C74    C     0.55580   0.47020   0.04281   0.01267  Uiso   1.00
C75    C     0.31078   0.14289   0.25485   0.01267  Uiso   1.00
C76    C     0.27148   0.07863   0.23226   0.01267  Uiso   1.00
C77    C     0.35183   0.20923   0.23439   0.01267  Uiso   1.00
C78    C     0.58085   0.02968   0.35020   0.01267  Uiso   1.00
C79    C     0.60847   0.08587   0.32173   0.01267  Uiso   1.00
C80    C     0.62801   0.00475   0.36566   0.01267  Uiso   1.00
C81    C     0.81509   0.14255   0.31670   0.01267  Uiso   1.00
C82    C     0.85938   0.10583   0.33391   0.01267  Uiso   1.00
C83    C     0.86925   0.10613   0.37563   0.01267  Uiso   1.00
C84    C     0.90651   0.07221   0.39289   0.01267  Uiso   1.00
C85    C     0.93751   0.03845   0.36905   0.01267  Uiso   1.00
C86    C     0.93114   0.04069   0.32740   0.01267  Uiso   1.00
C87    C     0.89358   0.07447   0.31006   0.01267  Uiso   1.00
C88    C     0.97826   0.00310   0.38747   0.01267  Uiso   1.00
C89    C     0.97796   0.94158   0.36964   0.01267  Uiso   1.00
C90    C     0.46608   0.00014   0.05008   0.01267  Uiso   1.00
C91    C     0.45934   0.93329   0.06381   0.01267  Uiso   1.00
C92    C     0.31526   0.14711   0.16973   0.01267  Uiso   1.00
C93    C     0.35394   0.21146   0.19278   0.01267  Uiso   1.00
C94    C     0.27239   0.08097   0.19061   0.01267  Uiso   1.00
C95    C     0.60549   0.91888   0.00229   0.01267  Uiso   1.00
C96    C     0.50254   0.90500   0.04721   0.01267  Uiso   1.00
C97    C     0.55273   0.94277   0.01638   0.01267  Uiso   1.00
C98    C     0.55676   0.00753   0.00148   0.01267  Uiso   1.00
C99    C     0.51481   0.03639   0.01847   0.01267  Uiso   1.00
C100   C     0.10945   0.91241   0.43646   0.01267  Uiso   1.00
C101   C     0.01909   0.91084   0.38598   0.01267  Uiso   1.00
C102   C     0.06073   0.94034   0.42079   0.01267  Uiso   1.00
C103   C     0.05903   0.99998   0.43940   0.01267  Uiso   1.00
C104   C     0.01889   0.03136   0.42281   0.01267  Uiso   1.00
C105   C     0.95528   0.44095   0.38574   0.01267  Uiso   1.00
C106   C     0.92556   0.45486   0.42053   0.01267  Uiso   1.00
C107   C     0.95511   0.52563   0.43642   0.01267  Uiso   1.00
C108   C     0.01653   0.58441   0.41858   0.01267  Uiso   1.00
C109   C     0.04756   0.57040   0.38447   0.01267  Uiso   1.00
C110   C     0.01715   0.49978   0.36811   0.01267  Uiso   1.00
C111   C     0.61831   0.66893   0.01451   0.01267  Uiso   1.00
C112   C     0.04872   0.65992   0.43532   0.01267  Uiso   1.00
C113   C     0.20711   0.86575   0.51318   0.01267  Uiso   1.00
C114   C     0.20823   0.85943   0.55702   0.01267  Uiso   1.00
C115   C     0.14941   0.80125   0.57671   0.01267  Uiso   1.00
C116   C     0.14542   0.79963   0.61828   0.01267  Uiso   1.00
C117   C     0.20086   0.85557   0.64123   0.01267  Uiso   1.00
C118   C     0.26158   0.91199   0.62141   0.01267  Uiso   1.00
C119   C     0.26512   0.91408   0.57978   0.01267  Uiso   1.00
C120   C     0.71273   0.07908   0.91347   0.01267  Uiso   1.00
C121   C     0.64030   0.05345   0.89426   0.01267  Uiso   1.00
C122   C     0.61062   0.10121   0.88874   0.01267  Uiso   1.00
C123   C     0.53914   0.07488   0.87386   0.01267  Uiso   1.00
C124   C     0.49597   1.00025   0.86453   0.01267  Uiso   1.00
C125   C     0.52646   0.95314   0.86957   0.01267  Uiso   1.00
C126   C     0.59804   0.97963   0.88372   0.01267  Uiso   1.00
C127   C     0.70178   0.86957   0.92781   0.01267  Uiso   1.00
C128   C     0.70013   0.86387   0.88392   0.01267  Uiso   1.00
C129   C     0.75890   0.91547   0.86095   0.01267  Uiso   1.00
C130   C     0.75547   0.91250   0.81938   0.01267  Uiso   1.00
C131   C     0.69237   0.85894   0.79963   0.01267  Uiso   1.00
C132   C     0.63344   0.80757   0.82297   0.01267  Uiso   1.00
C133   C     0.63776   0.80953   0.86455   0.01267  Uiso   1.00
C134   C     0.21656   0.07515   0.52871   0.01267  Uiso   1.00
C135   C     0.14556   0.04861   0.54978   0.01267  Uiso   1.00
C136   C     0.11483   0.09508   0.55633   0.01267  Uiso   1.00
C137   C     0.04327   0.06696   0.57140   0.01267  Uiso   1.00
C138   C     1.00121   0.99188   0.58034   0.01267  Uiso   1.00
C139   C     0.03372   0.94650   0.57569   0.01267  Uiso   1.00
C140   C     0.10512   0.97460   0.56084   0.01267  Uiso   1.00
C141   C     0.92255   0.95976   0.59239   0.01267  Uiso   1.00
C142   C     0.87680   0.98480   0.57524   0.01267  Uiso   1.00
C143   C     0.80195   0.95203   0.58476   0.01267  Uiso   1.00
C144   C     0.76943   0.89115   0.61096   0.01267  Uiso   1.00
C145   C     0.81667   0.86782   0.62874   0.01267  Uiso   1.00
C146   C     0.89172   0.90148   0.61966   0.01267  Uiso   1.00
C147   C     0.19493   0.85545   0.68554   0.01267  Uiso   1.00
C148   C     0.16174   0.78928   0.70686   0.01267  Uiso   1.00
C149   C     0.15619   0.78888   0.74837   0.01267  Uiso   1.00
C150   C     0.18299   0.85492   0.77025   0.01267  Uiso   1.00
C151   C     0.21813   0.92119   0.74851   0.01267  Uiso   1.00
C152   C     0.22294   0.92146   0.70695   0.01267  Uiso   1.00
C153   C     0.14918   0.77861   0.83468   0.01267  Uiso   1.00
C154   C     0.07223   0.73223   0.83125   0.01267  Uiso   1.00
C155   C     0.03796   0.66158   0.84776   0.01267  Uiso   1.00
C156   C     0.07969   0.63415   0.86767   0.01267  Uiso   1.00
C157   C     0.15616   0.67970   0.87073   0.01267  Uiso   1.00
C158   C     0.18984   0.75095   0.85579   0.01267  Uiso   1.00
C159   C     0.26791   0.90149   0.82787   0.01267  Uiso   1.00
C160   C     0.31754   0.88064   0.81064   0.01267  Uiso   1.00
C161   C     0.29775   0.96238   0.85410   0.01267  Uiso   1.00
C162   C     0.68656   0.85298   0.62306   0.01267  Uiso   1.00
C163   C     0.64762   0.89440   0.60517   0.01267  Uiso   1.00
C164   C     0.63434   0.88990   0.56363   0.01267  Uiso   1.00
C165   C     0.59946   0.92550   0.54588   0.01267  Uiso   1.00
C166   C     0.57533   0.96620   0.56895   0.01267  Uiso   1.00
C167   C     0.58706   0.97044   0.61034   0.01267  Uiso   1.00
C168   C     0.62183   0.93449   0.62828   0.01267  Uiso   1.00
C169   C     0.64394   0.77308   0.60673   0.01267  Uiso   1.00
C170   C     0.67810   0.73763   0.58644   0.01267  Uiso   1.00
C171   C     0.63667   0.66635   0.57151   0.01267  Uiso   1.00
C172   C     0.55947   0.62815   0.57555   0.01267  Uiso   1.00
C173   C     0.52501   0.66331   0.59525   0.01267  Uiso   1.00
C174   C     0.56622   0.73438   0.61016   0.01267  Uiso   1.00
C175   C     0.51480   0.55247   0.55895   0.01267  Uiso   1.00
C176   C     0.54186   0.50183   0.55915   0.01267  Uiso   1.00
C177   C     0.49902   0.43054   0.54435   0.01267  Uiso   1.00
C178   C     0.42788   0.40772   0.52907   0.01267  Uiso   1.00
C179   C     0.40119   0.45854   0.52832   0.01267  Uiso   1.00
C180   C     0.44410   0.52987   0.54292   0.01267  Uiso   1.00
C181   C     0.68866   0.85615   0.75507   0.01267  Uiso   1.00
C182   C     0.72804   0.92024   0.73226   0.01267  Uiso   1.00
C183   C     0.64735   0.78909   0.73520   0.01267  Uiso   1.00
C184   C     0.41903   0.97042   0.85011   0.01267  Uiso   1.00
C185   C     0.39141   0.91420   0.82166   0.01267  Uiso   1.00
C186   C     0.37184   0.99528   0.86562   0.01267  Uiso   1.00
C187   C     0.18480   0.85742   0.81664   0.01267  Uiso   1.00
C188   C     0.14051   0.89408   0.83387   0.01267  Uiso   1.00
C189   C     0.13066   0.89379   0.87560   0.01267  Uiso   1.00
C190   C     0.09345   0.92776   0.89286   0.01267  Uiso   1.00
C191   C     0.06254   0.96160   0.86900   0.01267  Uiso   1.00
C192   C     0.06885   0.95929   0.82736   0.01267  Uiso   1.00
C193   C     0.10636   0.92549   0.81002   0.01267  Uiso   1.00
C194   C     0.02197   0.99706   0.88739   0.01267  Uiso   1.00
C195   C     0.02231   0.05861   0.86955   0.01267  Uiso   1.00
C196   C     0.53407   1.00000   0.55003   0.01267  Uiso   1.00
C197   C     0.54084   0.06686   0.56379   0.01267  Uiso   1.00
C198   C     0.68475   0.85314   0.66939   0.01267  Uiso   1.00
C199   C     0.64434   0.78547   0.69374   0.01267  Uiso   1.00
C200   C     0.72758   0.91856   0.69061   0.01267  Uiso   1.00
C201   C     0.39407   0.08039   0.50262   0.01267  Uiso   1.00
C202   C     0.49742   0.09502   0.54728   0.01267  Uiso   1.00
C203   C     0.44706   0.05704   0.51658   0.01267  Uiso   1.00
C204   C     0.44331   0.99245   0.50152   0.01267  Uiso   1.00
C205   C     0.48534   0.96373   0.51846   0.01267  Uiso   1.00
C206   C     0.89016   0.08681   0.93618   0.01267  Uiso   1.00
C207   C     0.98097   0.08922   0.88585   0.01267  Uiso   1.00
C208   C     0.93910   0.05944   0.92055   0.01267  Uiso   1.00
C209   C     0.94109  -0.00000   0.93927   0.01267  Uiso   1.00
C210   C     0.98135   0.96878   0.92271   0.01267  Uiso   1.00
C211   C     0.04470   0.55906   0.88572   0.01267  Uiso   1.00
C212   C     0.07443   0.54514   0.92052   0.01267  Uiso   1.00
C213   C     0.04487   0.47437   0.93641   0.01267  Uiso   1.00
C214   C     0.98343   0.41559   0.91857   0.01267  Uiso   1.00
C215   C     0.95241   0.42961   0.88447   0.01267  Uiso   1.00
C216   C     0.98283   0.50022   0.86810   0.01267  Uiso   1.00
C217   C     0.38172   0.33116   0.51451   0.01267  Uiso   1.00
C218   C     0.95130   0.34007   0.93531   0.01267  Uiso   1.00
O219   O     0.34795   0.18119   0.44852   0.01267  Uiso   1.00
O220   O     0.24692   0.07339   0.44426   0.01267  Uiso   1.00
O221   O     0.24934   0.85425   0.42271   0.01267  Uiso   1.00
O222   O     0.26361   0.96652   0.42092   0.01267  Uiso   1.00
O223   O     0.15004   0.94394   0.46652   0.01267  Uiso   1.00
O224   O     0.10918   0.85682   0.42022   0.01267  Uiso   1.00
O225   O     0.60912   0.86701   0.02026   0.01267  Uiso   1.00
O226   O     0.64785   0.95215   0.97291   0.01267  Uiso   1.00
O227   O     0.74303   0.07617   0.99646   0.01267  Uiso   1.00
O228   O     0.84315   0.18540   0.99296   0.01267  Uiso   1.00
O229   O     0.74499   0.85736   0.02039   0.01267  Uiso   1.00
O230   O     0.76122   0.97092   0.01936   0.01267  Uiso   1.00
O231   O     0.11562   0.71481   0.42059   0.01267  Uiso   1.00
O232   O     0.59549   0.72134   0.02089   0.01267  Uiso   1.00
O233   O     0.67668   0.68667   0.99759   0.01267  Uiso   1.00
O234   O     0.01776   0.67408   0.46217   0.01267  Uiso   1.00
O235   O     0.65240   0.81844   0.94864   0.01267  Uiso   1.00
O236   O     0.75353   0.92582   0.94451   0.01267  Uiso   1.00
O237   O     0.75023   0.14590   0.92313   0.01267  Uiso   1.00
O238   O     0.73637   0.03371   0.92074   0.01267  Uiso   1.00
O239   O     0.84941   0.05459   0.96612   0.01267  Uiso   1.00
O240   O     0.89031   0.14263   0.92034   0.01267  Uiso   1.00
O241   O     0.39051   0.13264   0.52013   0.01267  Uiso   1.00
O242   O     0.35145   0.04621   0.47346   0.01267  Uiso   1.00
O243   O     0.25724   0.92283   0.49616   0.01267  Uiso   1.00
O244   O     0.15690   0.81417   0.49292   0.01267  Uiso   1.00
O245   O     0.25466   0.14278   0.51992   0.01267  Uiso   1.00
O246   O     0.23869   0.02916   0.51953   0.01267  Uiso   1.00
O247   O     0.88442   0.28507   0.92058   0.01267  Uiso   1.00
O248   O     0.40448   0.27867   0.52084   0.01267  Uiso   1.00
O249   O     0.32339   0.31347   0.49757   0.01267  Uiso   1.00
O250   O     0.98232   0.32598   0.96216   0.01267  Uiso   1.00
H251   H     0.89554   0.24267   0.06023   0.00000  Uiso   1.00
H252   H     0.90263   0.24492   0.13257   0.00000  Uiso   1.00
H253   H     0.69368   0.04562   0.13802   0.00000  Uiso   1.00
H254   H     0.68867   0.04144   0.06548   0.00000  Uiso   1.00
H255   H     0.35773   0.84149   0.39656   0.00000  Uiso   1.00
H256   H     0.48216   0.88725   0.36986   0.00000  Uiso   1.00
H257   H     0.50567   0.10511   0.36363   0.00000  Uiso   1.00
H258   H     0.38057   0.05858   0.38742   0.00000  Uiso   1.00
H259   H     0.19283   0.04238   0.37512   0.00000  Uiso   1.00
H260   H     0.19696   0.04814   0.30300   0.00000  Uiso   1.00
H261   H     0.41642   0.23435   0.30867   0.00000  Uiso   1.00
H262   H     0.40915   0.23150   0.38100   0.00000  Uiso   1.00
H263   H     0.85488   0.84757   0.04864   0.00000  Uiso   1.00
H264   H     0.97963   0.89641   0.07516   0.00000  Uiso   1.00
H265   H     0.99736   0.11183   0.08174   0.00000  Uiso   1.00
H266   H     0.87268   0.06281   0.05665   0.00000  Uiso   1.00
H267   H     0.10173  -0.02900   0.05381   0.00000  Uiso   1.00
H268   H     0.22913   0.02437   0.07137   0.00000  Uiso   1.00
H269   H     0.20482   0.17738   0.14983   0.00000  Uiso   1.00
H270   H     0.07418   0.11831   0.13407   0.00000  Uiso   1.00
H271   H     0.85834   0.26284   0.19180   0.00000  Uiso   1.00
H272   H     0.86686   0.26391   0.26292   0.00000  Uiso   1.00
H273   H     0.75773   0.02668   0.26403   0.00000  Uiso   1.00
H274   H     0.75141   0.02640   0.19173   0.00000  Uiso   1.00
H275   H     0.96139   0.24878   0.31567   0.00000  Uiso   1.00
H276   H     1.02134   0.37089   0.34537   0.00000  Uiso   1.00
H277   H     0.80913   0.33960   0.38479   0.00000  Uiso   1.00
H278   H     0.75190   0.21681   0.36152   0.00000  Uiso   1.00
H279   H     0.70167   0.16439   0.28968   0.00000  Uiso   1.00
H280   H     0.73486   0.01493   0.36664   0.00000  Uiso   1.00
H281   H     0.34828   0.14119   0.04487   0.00000  Uiso   1.00
H282   H     0.40857   0.07917   0.01403   0.00000  Uiso   1.00
H283   H     0.43275   0.00024   0.12930   0.00000  Uiso   1.00
H284   H     0.37397   0.06243   0.16053   0.00000  Uiso   1.00
H285   H     0.26320   0.23584   0.08124   0.00000  Uiso   1.00
H286   H     0.33446   0.35816   0.05592   0.00000  Uiso   1.00
H287   H     0.53412   0.36448   0.09948   0.00000  Uiso   1.00
H288   H     0.46297   0.24064   0.12458   0.00000  Uiso   1.00
H289   H     0.40426   0.48339   0.07143   0.00000  Uiso   1.00
H290   H     0.47837   0.60702   0.04508   0.00000  Uiso   1.00
H291   H     0.65320   0.55699   0.01668   0.00000  Uiso   1.00
H292   H     0.57800   0.43250   0.04121   0.00000  Uiso   1.00
H293   H     0.24003   0.02594   0.24657   0.00000  Uiso   1.00
H294   H     0.38128   0.26046   0.25034   0.00000  Uiso   1.00
H295   H     0.57317   0.10512   0.30838   0.00000  Uiso   1.00
H296   H     0.60833  -0.03883   0.38761   0.00000  Uiso   1.00
H297   H     0.84611   0.13141   0.39515   0.00000  Uiso   1.00
H298   H     0.90995   0.07178   0.42511   0.00000  Uiso   1.00
H299   H     0.95656   0.01759   0.30794   0.00000  Uiso   1.00
H300   H     0.89304   0.07601   0.27790   0.00000  Uiso   1.00
H301   H     0.94599   0.91697   0.34299   0.00000  Uiso   1.00
H302   H     0.42132   0.90316   0.08764   0.00000  Uiso   1.00
H303   H     0.38506   0.26483   0.17947   0.00000  Uiso   1.00
H304   H     0.23993   0.03038   0.17443   0.00000  Uiso   1.00
H305   H     0.49760   0.85436   0.05906   0.00000  Uiso   1.00
H306   H     0.59455   0.03778  -0.02231   0.00000  Uiso   1.00
H307   H     0.52268   0.08871   0.00770   0.00000  Uiso   1.00
H308   H     0.01918   0.86468   0.37106   0.00000  Uiso   1.00
H309   H     0.09010   1.02363   0.46648   0.00000  Uiso   1.00
H310   H     0.02141   0.07902   0.43729   0.00000  Uiso   1.00
H311   H     0.87947   0.41084   0.43582   0.00000  Uiso   1.00
H312   H     0.92994   0.53405   0.46287   0.00000  Uiso   1.00
H313   H     0.09497   0.61437   0.37002   0.00000  Uiso   1.00
H314   H     0.04138   0.49178   0.34117   0.00000  Uiso   1.00
H315   H     0.10505   0.75797   0.55997   0.00000  Uiso   1.00
H316   H     0.09757   0.75545   0.63228   0.00000  Uiso   1.00
H317   H     0.30645   0.95483   0.63803   0.00000  Uiso   1.00
H318   H     0.31182   0.95924   0.56550   0.00000  Uiso   1.00
H319   H     0.64215   0.15871   0.89648   0.00000  Uiso   1.00
H320   H     0.51773   0.11287   0.86972   0.00000  Uiso   1.00
H321   H     0.49429   0.89507   0.86352   0.00000  Uiso   1.00
H322   H     0.61954   0.94172   0.88728   0.00000  Uiso   1.00
H323   H     0.80775   0.95834   0.87502   0.00000  Uiso   1.00
H324   H     0.80297   0.95191   0.80289   0.00000  Uiso   1.00
H325   H     0.58323   0.76607   0.80938   0.00000  Uiso   1.00
H326   H     0.59148   0.76940   0.88159   0.00000  Uiso   1.00
H327   H     0.14516   0.15273   0.54876   0.00000  Uiso   1.00
H328   H     0.02046   0.10380   0.57540   0.00000  Uiso   1.00
H329   H     0.00293   0.88844   0.58194   0.00000  Uiso   1.00
H330   H     0.12771   0.93767   0.55684   0.00000  Uiso   1.00
H331   H     0.89845   1.02913   0.55374   0.00000  Uiso   1.00
H332   H     0.77098   0.97572   0.57115   0.00000  Uiso   1.00
H333   H     0.79495   0.82262   0.64966   0.00000  Uiso   1.00
H334   H     0.92562   0.88163   0.63410   0.00000  Uiso   1.00
H335   H     0.14170   0.73729   0.69162   0.00000  Uiso   1.00
H336   H     0.13312   0.73611   0.76279   0.00000  Uiso   1.00
H337   H     0.24223   0.97333   0.76396   0.00000  Uiso   1.00
H338   H     0.24862   0.97370   0.69169   0.00000  Uiso   1.00
H339   H     0.03856   0.75120   0.81566   0.00000  Uiso   1.00
H340   H    -0.02138   0.62911   0.84537   0.00000  Uiso   1.00
H341   H     0.19084   0.66044   0.88480   0.00000  Uiso   1.00
H342   H     0.24805   0.78323   0.86151   0.00000  Uiso   1.00
H343   H     0.29819   0.83560   0.78967   0.00000  Uiso   1.00
H344   H     0.26495   0.98504   0.86661   0.00000  Uiso   1.00
H345   H     0.65182   0.85891   0.54464   0.00000  Uiso   1.00
H346   H     0.59134   0.92088   0.51387   0.00000  Uiso   1.00
H347   H     0.56724   0.99963   0.62922   0.00000  Uiso   1.00
H348   H     0.62651   0.93791   0.66033   0.00000  Uiso   1.00
H349   H     0.73673   0.76425   0.58116   0.00000  Uiso   1.00
H350   H     0.66542   0.64190   0.55596   0.00000  Uiso   1.00
H351   H     0.46589   0.63569   0.59966   0.00000  Uiso   1.00
H352   H     0.53722   0.75954   0.62484   0.00000  Uiso   1.00
H353   H     0.59572   0.51672   0.57143   0.00000  Uiso   1.00
H354   H     0.52164   0.39313   0.54504   0.00000  Uiso   1.00
H355   H     0.34674   0.44308   0.51673   0.00000  Uiso   1.00
H356   H     0.42188   0.56756   0.54133   0.00000  Uiso   1.00
H357   H     0.75954   0.97288   0.74659   0.00000  Uiso   1.00
H358   H     0.61837   0.73831   0.75161   0.00000  Uiso   1.00
H359   H     0.42667   0.89493   0.80831   0.00000  Uiso   1.00
H360   H     0.39147   1.03882   0.88760   0.00000  Uiso   1.00
H361   H     0.15387   0.86860   0.89513   0.00000  Uiso   1.00
H362   H     0.09003   0.92823   0.92508   0.00000  Uiso   1.00
H363   H     0.04348   0.98244   0.80790   0.00000  Uiso   1.00
H364   H     0.10698   0.92402   0.77787   0.00000  Uiso   1.00
H365   H     0.05427   0.08314   0.84290   0.00000  Uiso   1.00
H366   H     0.57884   0.09692   0.58762   0.00000  Uiso   1.00
H367   H     0.61371   0.73195   0.68045   0.00000  Uiso   1.00
H368   H     0.76031   0.96941   0.67471   0.00000  Uiso   1.00
H369   H     0.50228   0.14565   0.55916   0.00000  Uiso   1.00
H370   H     0.40561   0.96219   0.47773   0.00000  Uiso   1.00
H371   H     0.47730   0.91138   0.50770   0.00000  Uiso   1.00
H372   H     0.98093   0.13545   0.87094   0.00000  Uiso   1.00
H373   H     0.91014  -0.02363   0.96634   0.00000  Uiso   1.00
H374   H     0.97872   0.92110   0.93718   0.00000  Uiso   1.00
H375   H     0.12054   0.58914   0.93580   0.00000  Uiso   1.00
H376   H     0.07004   0.46594   0.96286   0.00000  Uiso   1.00
H377   H     0.90501   0.38563   0.87001   0.00000  Uiso   1.00
H378   H     0.95861   0.50821   0.84116   0.00000  Uiso   1.00
loop_
_geom_bond_atom_site_label_1
_geom_bond_atom_site_label_2
_geom_bond_distance
_geom_bond_site_symmetry_2
_ccdc_geom_bond_type
Zn1    O225    1.775   .     S
Zn1    O229    1.785   .     S
Zn1    O232    1.876   .     S
Zn1    O235    1.785   1_554 S
Zn2    O228    1.778   .     S
Zn2    O237    1.773   .     S
Zn2    O240    1.790   .     S
Zn2    O247    1.877   .     S
Zn3    O226    1.839   1_545 S
Zn3    O227    1.838   .     S
Zn3    O230    1.836   1_546 S
Zn3    O236    1.836   1_545 S
Zn3    O238    1.841   .     S
Zn3    O239    1.826   .     S
Zn4    O219    1.783   .     S
Zn4    O241    1.775   .     S
Zn4    O245    1.787   .     S
Zn4    O248    1.880   .     S
Zn5    O221    1.772   .     S
Zn5    O224    1.790   .     S
Zn5    O231    1.874   .     S
Zn5    O244    1.781   .     S
Zn6    O220    1.834   1_565 S
Zn6    O222    1.841   .     S
Zn6    O223    1.841   .     S
Zn6    O242    1.822   1_565 S
Zn6    O243    1.841   .     S
Zn6    O246    1.836   1_565 S
C7     C8      1.476   .     S
C7     O227    1.278   1_554 A
C7     O228    1.274   1_554 A
C8     C9      1.404   .     A
C8     C13     1.404   .     A
C9     C10     1.396   .     A
C9     H251    1.084   .     S
C10    C11     1.407   .     A
C10    H252    1.082   .     S
C11    C12     1.407   .     A
C11    C41     1.488   .     S
C12    C13     1.395   .     A
C12    H253    1.082   .     S
C13    H254    1.083   .     S
C14    C15     1.474   .     S
C14    O221    1.267   .     A
C14    O222    1.274   .     A
C15    C16     1.408   .     A
C15    C20     1.399   1_565 A
C16    C17     1.398   .     A
C16    H255    1.083   .     S
C17    C18     1.405   1_565 A
C17    H256    1.083   .     S
C18    C17     1.405   1_545 A
C18    C19     1.406   .     A
C18    C78     1.482   .     S
C19    C20     1.390   .     A
C19    H257    1.082   .     S
C20    C15     1.399   1_545 A
C20    H258    1.080   .     S
C21    C22     1.475   .     S
C21    O219    1.273   .     A
C21    O220    1.277   .     A
C22    C23     1.402   .     A
C22    C27     1.404   .     A
C23    C24     1.394   .     A
C23    H259    1.082   .     S
C24    C25     1.408   .     A
C24    H260    1.081   .     S
C25    C26     1.410   .     A
C25    C75     1.493   .     S
C26    C27     1.397   .     A
C26    H261    1.082   .     S
C27    H262    1.083   .     S
C28    C29     1.477   .     S
C28    O229    1.274   .     A
C28    O230    1.277   .     A
C29    C30     1.405   .     A
C29    C34     1.404   1_565 A
C30    C31     1.398   .     A
C30    H263    1.083   .     S
C31    C32     1.408   1_665 A
C31    H264    1.083   .     S
C32    C31     1.408   1_445 A
C32    C33     1.405   1_455 A
C32    C35     1.486   .     S
C33    C32     1.405   1_655 A
C33    C34     1.393   .     A
C33    H265    1.082   .     S
C34    C29     1.404   1_545 A
C34    H266    1.081   .     S
C35    C36     1.402   .     A
C35    C40     1.403   .     A
C36    C37     1.396   .     A
C36    H267    1.083   .     S
C37    C38     1.418   .     A
C37    H268    1.077   .     S
C38    C39     1.413   .     A
C38    C56     1.558   .     S
C39    C40     1.395   .     A
C39    H269    1.083   .     S
C40    H270    1.082   .     S
C41    C42     1.403   .     A
C41    C46     1.405   .     A
C42    C43     1.394   .     A
C42    H271    1.082   .     S
C43    C44     1.414   .     A
C43    H272    1.079   .     S
C44    C45     1.413   .     A
C44    C81     1.554   .     S
C45    C46     1.396   .     A
C45    H273    1.084   .     S
C46    H274    1.082   .     S
C47    C48     1.415   .     A
C47    C52     1.414   .     A
C47    C81     1.561   .     S
C48    C49     1.403   .     A
C48    H275    1.084   .     S
C49    C50     1.408   .     A
C49    H276    1.082   .     S
C50    C51     1.403   .     A
C50    C105    1.498   .     S
C51    C52     1.393   .     A
C51    H277    1.082   .     S
C52    H278    1.077   .     S
C53    C54     1.413   .     A
C53    C55     1.417   .     A
C53    C81     1.556   .     S
C54    C79     1.390   .     A
C54    H279    1.083   .     S
C55    C80     1.399   .     A
C55    H280    1.078   .     S
C56    C57     1.554   .     S
C56    C63     1.561   .     S
C56    C92     1.557   .     S
C57    C58     1.413   .     A
C57    C62     1.416   .     A
C58    C59     1.390   .     A
C58    H281    1.083   .     S
C59    C60     1.402   .     A
C59    H282    1.082   .     S
C60    C61     1.403   .     A
C60    C90     1.483   .     S
C61    C62     1.397   .     A
C61    H283    1.083   .     S
C62    H284    1.077   .     S
C63    C64     1.415   .     A
C63    C68     1.414   .     A
C64    C65     1.402   .     A
C64    H285    1.078   .     S
C65    C66     1.407   .     A
C65    H286    1.082   .     S
C66    C67     1.405   .     A
C66    C69     1.498   .     S
C67    C68     1.397   .     A
C67    H287    1.082   .     S
C68    H288    1.084   .     S
C69    C70     1.409   .     A
C69    C74     1.409   .     A
C70    C71     1.403   .     A
C70    H289    1.083   .     S
C71    C72     1.407   .     A
C71    H290    1.083   .     S
C72    C73     1.406   .     A
C72    C111    1.492   .     S
C73    C74     1.401   .     A
C73    H291    1.083   .     S
C74    H292    1.083   .     S
C75    C76     1.406   .     A
C75    C77     1.404   .     A
C76    C94     1.396   .     A
C76    H293    1.082   .     S
C77    C93     1.394   .     A
C77    H294    1.081   .     S
C78    C79     1.401   .     A
C78    C80     1.403   .     A
C79    H295    1.082   .     S
C80    H296    1.083   .     S
C81    C82     1.556   .     S
C82    C83     1.412   .     A
C82    C87     1.416   .     A
C83    C84     1.394   .     A
C83    H297    1.083   .     S
C84    C85     1.404   .     A
C84    H298    1.082   .     S
C85    C86     1.404   .     A
C85    C88     1.491   .     S
C86    C87     1.398   .     A
C86    H299    1.083   .     S
C87    H300    1.078   .     S
C88    C89     1.409   1_545 A
C88    C104    1.407   1_655 A
C89    C88     1.409   1_565 A
C89    C101    1.396   1_655 A
C89    H301    1.082   .     S
C90    C91     1.406   1_545 A
C90    C99     1.405   .     A
C91    C90     1.406   1_565 A
C91    C96     1.398   .     A
C91    H302    1.084   .     S
C92    C93     1.414   .     A
C92    C94     1.413   .     A
C93    H303    1.077   .     S
C94    H304    1.084   .     S
C95    C97     1.475   .     S
C95    O225    1.268   .     A
C95    O226    1.278   1_554 A
C96    C97     1.406   .     A
C96    H305    1.084   .     S
C97    C98     1.401   1_565 A
C98    C97     1.401   1_545 A
C98    C99     1.390   .     A
C98    H306    1.082   .     S
C99    H307    1.082   .     S
C100   C102    1.478   .     S
C100   O223    1.273   .     A
C100   O224    1.275   .     A
C101   C89     1.396   1_455 A
C101   C102    1.404   .     A
C101   H308    1.083   .     S
C102   C103    1.403   .     A
C103   C104    1.393   1_565 A
C103   H309    1.083   .     S
C104   C88     1.407   1_455 A
C104   C103    1.393   1_545 A
C104   H310    1.082   .     S
C105   C106    1.410   .     A
C105   C110    1.407   1_655 A
C106   C107    1.400   .     A
C106   H311    1.082   .     S
C107   C108    1.405   1_655 A
C107   H312    1.083   .     S
C108   C107    1.405   1_455 A
C108   C109    1.407   .     A
C108   C112    1.490   .     S
C109   C110    1.403   .     A
C109   H313    1.082   .     S
C110   C105    1.407   1_455 A
C110   H314    1.083   .     S
C111   O232    1.395   .     S
C111   O233    1.219   1_554 D
C112   O231    1.394   .     S
C112   O234    1.219   .     D
C113   C114    1.475   .     S
C113   O243    1.276   .     A
C113   O244    1.273   .     A
C114   C115    1.402   .     A
C114   C119    1.405   .     A
C115   C116    1.395   .     A
C115   H315    1.083   .     S
C116   C117    1.407   .     A
C116   H316    1.082   .     S
C117   C118    1.407   .     A
C117   C147    1.489   .     S
C118   C119    1.396   .     A
C118   H317    1.082   .     S
C119   H318    1.083   .     S
C120   C121    1.474   .     S
C120   O237    1.267   .     A
C120   O238    1.276   .     A
C121   C122    1.407   .     A
C121   C126    1.400   1_545 A
C122   C123    1.398   .     A
C122   H319    1.084   .     S
C123   C124    1.405   1_545 A
C123   H320    1.083   .     S
C124   C123    1.405   1_565 A
C124   C125    1.405   .     A
C124   C184    1.483   .     S
C125   C126    1.390   .     A
C125   H321    1.083   .     S
C126   C121    1.400   1_565 A
C126   H322    1.081   .     S
C127   C128    1.474   .     S
C127   O235    1.272   .     A
C127   O236    1.275   .     A
C128   C129    1.403   .     A
C128   C133    1.401   .     A
C129   C130    1.394   .     A
C129   H323    1.083   .     S
C130   C131    1.409   .     A
C130   H324    1.081   .     S
C131   C132    1.410   .     A
C131   C181    1.494   .     S
C132   C133    1.395   .     A
C132   H325    1.082   .     S
C133   H326    1.083   .     S
C134   C135    1.476   .     S
C134   O245    1.274   .     A
C134   O246    1.279   .     A
C135   C136    1.404   .     A
C135   C140    1.404   1_545 A
C136   C137    1.398   .     A
C136   H327    1.084   .     S
C137   C138    1.408   1_445 A
C137   H328    1.083   .     S
C138   C137    1.408   1_665 A
C138   C139    1.404   1_655 A
C138   C141    1.486   .     S
C139   C138    1.404   1_455 A
C139   C140    1.392   .     A
C139   H329    1.082   .     S
C140   C135    1.404   1_565 A
C140   H330    1.081   .     S
C141   C142    1.402   .     A
C141   C146    1.403   .     A
C142   C143    1.395   .     A
C142   H331    1.083   .     S
C143   C144    1.417   .     A
C143   H332    1.078   .     S
C144   C145    1.412   .     A
C144   C162    1.556   .     S
C145   C146    1.395   .     A
C145   H333    1.083   .     S
C146   H334    1.082   .     S
C147   C148    1.403   .     A
C147   C152    1.405   .     A
C148   C149    1.395   .     A
C148   H335    1.082   .     S
C149   C150    1.414   .     A
C149   H336    1.079   .     S
C150   C151    1.414   .     A
C150   C187    1.555   .     S
C151   C152    1.395   .     A
C151   H337    1.084   .     S
C152   H338    1.082   .     S
C153   C154    1.415   .     A
C153   C158    1.414   .     A
C153   C187    1.561   .     S
C154   C155    1.403   .     A
C154   H339    1.084   .     S
C155   C156    1.408   .     A
C155   H340    1.082   .     S
C156   C157    1.403   .     A
C156   C211    1.498   .     S
C157   C158    1.394   .     A
C157   H341    1.082   .     S
C158   H342    1.077   .     S
C159   C160    1.413   .     A
C159   C161    1.417   .     A
C159   C187    1.556   .     S
C160   C185    1.390   .     A
C160   H343    1.083   .     S
C161   C186    1.399   .     A
C161   H344    1.078   .     S
C162   C163    1.553   .     S
C162   C169    1.560   .     S
C162   C198    1.552   .     S
C163   C164    1.413   .     A
C163   C168    1.415   .     A
C164   C165    1.390   .     A
C164   H345    1.083   .     S
C165   C166    1.402   .     A
C165   H346    1.082   .     S
C166   C167    1.403   .     A
C166   C196    1.482   .     S
C167   C168    1.396   .     A
C167   H347    1.083   .     S
C168   H348    1.077   .     S
C169   C170    1.415   .     A
C169   C174    1.414   .     A
C170   C171    1.401   .     A
C170   H349    1.078   .     S
C171   C172    1.406   .     A
C171   H350    1.082   .     S
C172   C173    1.405   .     A
C172   C175    1.499   .     S
C173   C174    1.398   .     A
C173   H351    1.082   .     S
C174   H352    1.084   .     S
C175   C176    1.409   .     A
C175   C180    1.409   .     A
C176   C177    1.403   .     A
C176   H353    1.083   .     S
C177   C178    1.407   .     A
C177   H354    1.083   .     S
C178   C179    1.407   .     A
C178   C217    1.492   .     S
C179   C180    1.402   .     A
C179   H355    1.083   .     S
C180   H356    1.083   .     S
C181   C182    1.408   .     A
C181   C183    1.406   .     A
C182   C200    1.396   .     A
C182   H357    1.081   .     S
C183   C199    1.391   .     A
C183   H358    1.082   .     S
C184   C185    1.400   .     A
C184   C186    1.403   .     A
C185   H359    1.082   .     S
C186   H360    1.084   .     S
C187   C188    1.555   .     S
C188   C189    1.412   .     A
C188   C193    1.415   .     A
C189   C190    1.394   .     A
C189   H361    1.083   .     S
C190   C191    1.404   .     A
C190   H362    1.082   .     S
C191   C192    1.404   .     A
C191   C194    1.489   .     S
C192   C193    1.398   .     A
C192   H363    1.083   .     S
C193   H364    1.078   .     S
C194   C195    1.409   1_565 A
C194   C210    1.406   1_455 A
C195   C194    1.409   1_545 A
C195   C207    1.397   1_455 A
C195   H365    1.082   .     S
C196   C197    1.407   1_565 A
C196   C205    1.405   .     A
C197   C196    1.407   1_545 A
C197   C202    1.399   .     A
C197   H366    1.083   .     S
C198   C199    1.489   .     S
C198   C200    1.409   .     A
C199   H367    1.078   .     S
C200   H368    1.084   .     S
C201   C203    1.470   .     S
C201   O241    1.267   .     A
C201   O242    1.278   .     A
C202   C203    1.406   .     A
C202   H369    1.084   .     S
C203   C204    1.401   1_545 A
C204   C203    1.401   1_565 A
C204   C205    1.389   .     A
C204   H370    1.081   .     S
C205   H371    1.081   .     S
C206   C208    1.473   .     S
C206   O239    1.274   .     A
C206   O240    1.275   .     A
C207   C195    1.397   1_655 A
C207   C208    1.403   .     A
C207   H372    1.083   .     S
C208   C209    1.404   .     A
C209   C210    1.392   1_545 A
C209   H373    1.082   .     S
C210   C209    1.392   1_565 A
C210   C194    1.406   1_655 A
C210   H374    1.081   .     S
C211   C212    1.410   .     A
C211   C216    1.407   1_455 A
C212   C213    1.400   .     A
C212   H375    1.082   .     S
C213   C214    1.405   1_455 A
C213   H376    1.083   .     S
C214   C213    1.405   1_655 A
C214   C215    1.407   .     A
C214   C218    1.491   .     S
C215   C216    1.403   .     A
C215   H377    1.082   .     S
C216   C211    1.407   1_655 A
C216   H378    1.083   .     S
C217   O248    1.396   .     S
C217   O249    1.218   .     D
C218   O247    1.395   .     S
C218   O250    1.219   .     D
O220   Zn6     1.834   1_545 S
O226   Zn3     1.839   1_565 S
O226   C95     1.278   1_556 A
O227   C7      1.278   1_556 A
O228   C7      1.274   1_556 A
O230   Zn3     1.836   1_564 S
O233   C111    1.219   1_556 D
O235   Zn1     1.785   1_556 S
O236   Zn3     1.836   1_565 S
O242   Zn6     1.822   1_545 S
O246   Zn6     1.836   1_545 S
