data_VEZMIY_clean
_audit_creation_date              2014-07-02
_audit_creation_method            'Materials Studio'
_symmetry_space_group_name_H-M    'P1'
_symmetry_Int_Tables_number       1
_symmetry_cell_setting            triclinic
loop_
_symmetry_equiv_pos_as_xyz
  x,y,z
_cell_length_a                    20.6090
_cell_length_b                    20.6090
_cell_length_c                    28.3140
_cell_angle_alpha                 90.0000
_cell_angle_beta                  90.0000
_cell_angle_gamma                 120.0000
loop_
_atom_site_label
_atom_site_type_symbol
_atom_site_fract_x
_atom_site_fract_y
_atom_site_fract_z
_atom_site_U_iso_or_equiv
_atom_site_adp_type
_atom_site_occupancy
K1     K     0.75283   0.14799   0.95217   0.01267  Uiso   1.00
K2     K     0.19305   0.92219   0.87002   0.01267  Uiso   1.00
K3     K     0.51722   0.57620   0.86686   0.01267  Uiso   1.00
K4     K     0.39516   0.24717   0.61884   0.01267  Uiso   1.00
K5     K     0.72914   0.80695   0.53669   0.01267  Uiso   1.00
K6     K     0.05898   0.48278   0.53353   0.01267  Uiso   1.00
K7     K     0.85201   0.60484   0.28550   0.01267  Uiso   1.00
K8     K     0.07781   0.27086   0.20335   0.01267  Uiso   1.00
K9     K     0.42380   0.94102   0.20019   0.01267  Uiso   1.00
K10    K     0.24717   0.85201   0.45217   0.01267  Uiso   1.00
K11    K     0.80695   0.07781   0.37002   0.01267  Uiso   1.00
K12    K     0.48278   0.42380   0.36686   0.01267  Uiso   1.00
K13    K     0.60484   0.75283   0.11884   0.01267  Uiso   1.00
K14    K     0.27086   0.19305   0.03669   0.01267  Uiso   1.00
K15    K     0.94102   0.51722   0.03353   0.01267  Uiso   1.00
K16    K     0.14799   0.39516   0.78550   0.01267  Uiso   1.00
K17    K     0.92219   0.72914   0.70335   0.01267  Uiso   1.00
K18    K     0.57620   0.05898   0.70019   0.01267  Uiso   1.00
Cd1    Cd    0.66700   0.11066   0.82489   0.01267  Uiso   1.00
Cd2    Cd    0.23198   0.00113   0.99828   0.01267  Uiso   1.00
Cd3    Cd    0.33411   0.42424   0.82477   0.01267  Uiso   1.00
Cd4    Cd    0.44366   0.33300   0.49156   0.01267  Uiso   1.00
Cd5    Cd    0.76915   0.76802   0.66494   0.01267  Uiso   1.00
Cd6    Cd    0.09013   0.66589   0.49144   0.01267  Uiso   1.00
Cd7    Cd    0.88934   0.55634   0.15822   0.01267  Uiso   1.00
Cd8    Cd    0.99887   0.23085   0.33161   0.01267  Uiso   1.00
Cd9    Cd    0.57576   0.90987   0.15810   0.01267  Uiso   1.00
Cd10   Cd    0.33300   0.88934   0.32489   0.01267  Uiso   1.00
Cd11   Cd    0.76802   0.99887   0.49828   0.01267  Uiso   1.00
Cd12   Cd    0.66589   0.57576   0.32477   0.01267  Uiso   1.00
Cd13   Cd    0.55634   0.66700   0.99156   0.01267  Uiso   1.00
Cd14   Cd    0.23085   0.23198   0.16494   0.01267  Uiso   1.00
Cd15   Cd    0.90987   0.33411   0.99144   0.01267  Uiso   1.00
Cd16   Cd    0.11066   0.44366   0.65822   0.01267  Uiso   1.00
Cd17   Cd    0.00113   0.76915   0.83161   0.01267  Uiso   1.00
Cd18   Cd    0.42424   0.09013   0.65810   0.01267  Uiso   1.00
H1     H     0.87260   0.31120   0.73000   0.01267  Uiso   1.00
H2     H     0.84320   0.37310   0.60040   0.01267  Uiso   1.00
H3     H     0.71560   0.30960   0.61240   0.01267  Uiso   1.00
H4     H     0.66290   0.23650   0.67990   0.01267  Uiso   1.00
H5     H     0.76580   0.96600   0.75750   0.01267  Uiso   1.00
H6     H     0.89680   0.89140   0.81110   0.01267  Uiso   1.00
H7     H     0.91780   0.96260   0.87710   0.01267  Uiso   1.00
H8     H     0.86430   0.03820   0.88500   0.01267  Uiso   1.00
H9     H     0.46390   0.12010   0.91230   0.01267  Uiso   1.00
H10    H     0.67280   0.25990   0.95920   0.01267  Uiso   1.00
H11    H     0.62360   0.28230   0.02740   0.01267  Uiso   1.00
H12    H     0.49280   0.23030   0.03420   0.01267  Uiso   1.00
H13    H     0.52540   0.62630   0.73600   0.01267  Uiso   1.00
H14    H     0.51250   0.69670   0.60660   0.01267  Uiso   1.00
H15    H     0.38240   0.63870   0.61510   0.01267  Uiso   1.00
H16    H     0.32510   0.55560   0.67750   0.01267  Uiso   1.00
H17    H     0.14850   0.44410   0.90970   0.01267  Uiso   1.00
H18    H     0.35070   0.58570   0.96320   0.01267  Uiso   1.00
H19    H     0.29270   0.61890   0.02180   0.01267  Uiso   1.00
H20    H     0.16230   0.55080   0.02880   0.01267  Uiso   1.00
H21    H     0.21600   0.19100   0.91000   0.01267  Uiso   1.00
H22    H     0.10920   0.17020   0.79050   0.01267  Uiso   1.00
H23    H     0.04660   0.04430   0.80000   0.01267  Uiso   1.00
H24    H     0.06960   0.98740   0.86390   0.01267  Uiso   1.00
H25    H     0.43860   0.12740   0.39667   0.01267  Uiso   1.00
H26    H     0.52990   0.15680   0.26707   0.01267  Uiso   1.00
H27    H     0.59400   0.28440   0.27907   0.01267  Uiso   1.00
H28    H     0.57360   0.33710   0.34657   0.01267  Uiso   1.00
H29    H     0.20020   0.23420   0.42417   0.01267  Uiso   1.00
H30    H     0.99460   0.10320   0.47777   0.01267  Uiso   1.00
H31    H     0.04480   0.08220   0.54377   0.01267  Uiso   1.00
H32    H     0.17390   0.13570   0.55167   0.01267  Uiso   1.00
H33    H     0.65620   0.53610   0.57897   0.01267  Uiso   1.00
H34    H     0.58710   0.32720   0.62587   0.01267  Uiso   1.00
H35    H     0.65870   0.37640   0.69407   0.01267  Uiso   1.00
H36    H     0.73750   0.50720   0.70087   0.01267  Uiso   1.00
H37    H     0.10090   0.47460   0.40267   0.01267  Uiso   1.00
H38    H     0.18420   0.48750   0.27327   0.01267  Uiso   1.00
H39    H     0.25630   0.61760   0.28177   0.01267  Uiso   1.00
H40    H     0.23050   0.67490   0.34417   0.01267  Uiso   1.00
H41    H     0.29560   0.85150   0.57637   0.01267  Uiso   1.00
H42    H     0.23500   0.64930   0.62987   0.01267  Uiso   1.00
H43    H     0.32620   0.70730   0.68847   0.01267  Uiso   1.00
H44    H     0.38850   0.83770   0.69547   0.01267  Uiso   1.00
H45    H     0.97500   0.78400   0.57667   0.01267  Uiso   1.00
H46    H     0.06100   0.89080   0.45717   0.01267  Uiso   1.00
H47    H     0.99770   0.95340   0.46667   0.01267  Uiso   1.00
H48    H     0.91780   0.93040   0.53057   0.01267  Uiso   1.00
H49    H     0.68880   0.56140   0.06333   0.01267  Uiso   1.00
H50    H     0.62690   0.47010   0.93373   0.01267  Uiso   1.00
H51    H     0.69040   0.40600   0.94573   0.01267  Uiso   1.00
H52    H     0.76350   0.42640   0.01323   0.01267  Uiso   1.00
H53    H     0.03400   0.79980   0.09083   0.01267  Uiso   1.00
H54    H     0.10860   0.00540   0.14443   0.01267  Uiso   1.00
H55    H     0.03740   0.95520   0.21043   0.01267  Uiso   1.00
H56    H     0.96180   0.82610   0.21833   0.01267  Uiso   1.00
H57    H     0.87990   0.34380   0.24563   0.01267  Uiso   1.00
H58    H     0.74010   0.41290   0.29253   0.01267  Uiso   1.00
H59    H     0.71770   0.34130   0.36073   0.01267  Uiso   1.00
H60    H     0.76970   0.26250   0.36753   0.01267  Uiso   1.00
H61    H     0.37370   0.89910   0.06933   0.01267  Uiso   1.00
H62    H     0.30330   0.81580   0.93993   0.01267  Uiso   1.00
H63    H     0.36130   0.74370   0.94843   0.01267  Uiso   1.00
H64    H     0.44440   0.76950   0.01083   0.01267  Uiso   1.00
H65    H     0.55590   0.70440   0.24303   0.01267  Uiso   1.00
H66    H     0.41430   0.76500   0.29653   0.01267  Uiso   1.00
H67    H     0.38110   0.67380   0.35513   0.01267  Uiso   1.00
H68    H     0.44920   0.61150   0.36213   0.01267  Uiso   1.00
H69    H     0.80900   0.02500   0.24333   0.01267  Uiso   1.00
H70    H     0.82980   0.93900   0.12383   0.01267  Uiso   1.00
H71    H     0.95570   0.00230   0.13333   0.01267  Uiso   1.00
H72    H     0.01260   0.08220   0.19723   0.01267  Uiso   1.00
H73    H     0.12740   0.68880   0.23000   0.01267  Uiso   1.00
H74    H     0.15680   0.62690   0.10040   0.01267  Uiso   1.00
H75    H     0.28440   0.69040   0.11240   0.01267  Uiso   1.00
H76    H     0.33710   0.76350   0.17990   0.01267  Uiso   1.00
H77    H     0.23420   0.03400   0.25750   0.01267  Uiso   1.00
H78    H     0.10320   0.10860   0.31110   0.01267  Uiso   1.00
H79    H     0.08220   0.03740   0.37710   0.01267  Uiso   1.00
H80    H     0.13570   0.96180   0.38500   0.01267  Uiso   1.00
H81    H     0.53610   0.87990   0.41230   0.01267  Uiso   1.00
H82    H     0.32720   0.74010   0.45920   0.01267  Uiso   1.00
H83    H     0.37640   0.71770   0.52740   0.01267  Uiso   1.00
H84    H     0.50720   0.76970   0.53420   0.01267  Uiso   1.00
H85    H     0.47460   0.37370   0.23600   0.01267  Uiso   1.00
H86    H     0.48750   0.30330   0.10660   0.01267  Uiso   1.00
H87    H     0.61760   0.36130   0.11510   0.01267  Uiso   1.00
H88    H     0.67490   0.44440   0.17750   0.01267  Uiso   1.00
H89    H     0.85150   0.55590   0.40970   0.01267  Uiso   1.00
H90    H     0.64930   0.41430   0.46320   0.01267  Uiso   1.00
H91    H     0.70730   0.38110   0.52180   0.01267  Uiso   1.00
H92    H     0.83770   0.44920   0.52880   0.01267  Uiso   1.00
H93    H     0.78400   0.80900   0.41000   0.01267  Uiso   1.00
H94    H     0.89080   0.82980   0.29050   0.01267  Uiso   1.00
H95    H     0.95340   0.95570   0.30000   0.01267  Uiso   1.00
H96    H     0.93040   0.01260   0.36390   0.01267  Uiso   1.00
H97    H     0.56140   0.87260   0.89667   0.01267  Uiso   1.00
H98    H     0.47010   0.84320   0.76707   0.01267  Uiso   1.00
H99    H     0.40600   0.71560   0.77907   0.01267  Uiso   1.00
H100   H     0.42640   0.66290   0.84657   0.01267  Uiso   1.00
H101   H     0.79980   0.76580   0.92417   0.01267  Uiso   1.00
H102   H     0.00540   0.89680   0.97777   0.01267  Uiso   1.00
H103   H     0.95520   0.91780   0.04377   0.01267  Uiso   1.00
H104   H     0.82610   0.86430   0.05167   0.01267  Uiso   1.00
H105   H     0.34380   0.46390   0.07897   0.01267  Uiso   1.00
H106   H     0.41290   0.67280   0.12587   0.01267  Uiso   1.00
H107   H     0.34130   0.62360   0.19407   0.01267  Uiso   1.00
H108   H     0.26250   0.49280   0.20087   0.01267  Uiso   1.00
H109   H     0.89910   0.52540   0.90267   0.01267  Uiso   1.00
H110   H     0.81580   0.51250   0.77327   0.01267  Uiso   1.00
H111   H     0.74370   0.38240   0.78177   0.01267  Uiso   1.00
H112   H     0.76950   0.32510   0.84417   0.01267  Uiso   1.00
H113   H     0.70440   0.14850   0.07637   0.01267  Uiso   1.00
H114   H     0.76500   0.35070   0.12987   0.01267  Uiso   1.00
H115   H     0.67380   0.29270   0.18847   0.01267  Uiso   1.00
H116   H     0.61150   0.16230   0.19547   0.01267  Uiso   1.00
H117   H     0.02500   0.21600   0.07667   0.01267  Uiso   1.00
H118   H     0.93900   0.10920   0.95717   0.01267  Uiso   1.00
H119   H     0.00230   0.04660   0.96667   0.01267  Uiso   1.00
H120   H     0.08220   0.06960   0.03057   0.01267  Uiso   1.00
H121   H     0.31120   0.43860   0.56333   0.01267  Uiso   1.00
H122   H     0.37310   0.52990   0.43373   0.01267  Uiso   1.00
H123   H     0.30960   0.59400   0.44573   0.01267  Uiso   1.00
H124   H     0.23650   0.57360   0.51323   0.01267  Uiso   1.00
H125   H     0.96600   0.20020   0.59083   0.01267  Uiso   1.00
H126   H     0.89140   0.99460   0.64443   0.01267  Uiso   1.00
H127   H     0.96260   0.04480   0.71043   0.01267  Uiso   1.00
H128   H     0.03820   0.17390   0.71833   0.01267  Uiso   1.00
H129   H     0.12010   0.65620   0.74563   0.01267  Uiso   1.00
H130   H     0.25990   0.58710   0.79253   0.01267  Uiso   1.00
H131   H     0.28230   0.65870   0.86073   0.01267  Uiso   1.00
H132   H     0.23030   0.73750   0.86753   0.01267  Uiso   1.00
H133   H     0.62630   0.10090   0.56933   0.01267  Uiso   1.00
H134   H     0.69670   0.18420   0.43993   0.01267  Uiso   1.00
H135   H     0.63870   0.25630   0.44843   0.01267  Uiso   1.00
H136   H     0.55560   0.23050   0.51083   0.01267  Uiso   1.00
H137   H     0.44410   0.29560   0.74303   0.01267  Uiso   1.00
H138   H     0.58570   0.23500   0.79653   0.01267  Uiso   1.00
H139   H     0.61890   0.32620   0.85513   0.01267  Uiso   1.00
H140   H     0.55080   0.38850   0.86213   0.01267  Uiso   1.00
H141   H     0.19100   0.97500   0.74333   0.01267  Uiso   1.00
H142   H     0.17020   0.06100   0.62383   0.01267  Uiso   1.00
H143   H     0.04430   0.99770   0.63333   0.01267  Uiso   1.00
H144   H     0.98740   0.91780   0.69723   0.01267  Uiso   1.00
C1     C     0.84100   0.31020   0.70630   0.01267  Uiso   1.00
C2     C     0.87280   0.35100   0.66430   0.01267  Uiso   1.00
C3     C     0.82380   0.34800   0.62880   0.01267  Uiso   1.00
C4     C     0.74670   0.30810   0.63560   0.01267  Uiso   1.00
C5     C     0.71460   0.26580   0.67640   0.01267  Uiso   1.00
C6     C     0.76530   0.26940   0.71300   0.01267  Uiso   1.00
C7     C     0.95490   0.39470   0.65830   0.01267  Uiso   1.00
C8     C     0.73430   0.22000   0.75620   0.01267  Uiso   1.00
C9     C     0.79540   0.96510   0.78200   0.01267  Uiso   1.00
C10    C     0.82870   0.92150   0.77810   0.01267  Uiso   1.00
C11    C     0.87460   0.92100   0.81400   0.01267  Uiso   1.00
C12    C     0.88710   0.96340   0.85330   0.01267  Uiso   1.00
C13    C     0.85430   0.00830   0.85830   0.01267  Uiso   1.00
C14    C     0.80620   0.00830   0.82290   0.01267  Uiso   1.00
C15    C     0.80930   0.86870   0.73590   0.01267  Uiso   1.00
C16    C     0.76560   0.05200   0.82860   0.01267  Uiso   1.00
C17    C     0.49550   0.15050   0.93610   0.01267  Uiso   1.00
C18    C     0.57290   0.18380   0.93170   0.01267  Uiso   1.00
C19    C     0.62130   0.23550   0.96410   0.01267  Uiso   1.00
C20    C     0.59180   0.25040   0.00410   0.01267  Uiso   1.00
C21    C     0.51320   0.21700   0.00930   0.01267  Uiso   1.00
C22    C     0.46720   0.16380   0.97620   0.01267  Uiso   1.00
C23    C     0.60220   0.16030   0.89110   0.01267  Uiso   1.00
C24    C     0.38090   0.11990   0.98580   0.01267  Uiso   1.00
C25    C     0.49650   0.62630   0.71070   0.01267  Uiso   1.00
C26    C     0.53280   0.67000   0.67120   0.01267  Uiso   1.00
C27    C     0.48960   0.67080   0.63420   0.01267  Uiso   1.00
C28    C     0.41120   0.63270   0.63810   0.01267  Uiso   1.00
C29    C     0.37700   0.58570   0.67670   0.01267  Uiso   1.00
C30    C     0.41960   0.58330   0.71380   0.01267  Uiso   1.00
C31    C     0.61590   0.71090   0.66650   0.01267  Uiso   1.00
C32    C     0.38490   0.53080   0.75420   0.01267  Uiso   1.00
C33    C     0.17770   0.47700   0.93350   0.01267  Uiso   1.00
C34    C     0.25660   0.51290   0.93010   0.01267  Uiso   1.00
C35    C     0.29870   0.56320   0.96410   0.01267  Uiso   1.00
C36    C     0.26410   0.58120   0.00030   0.01267  Uiso   1.00
C37    C     0.18560   0.54140   0.00370   0.01267  Uiso   1.00
C38    C     0.14330   0.48940   0.97060   0.01267  Uiso   1.00
C39    C     0.28950   0.49110   0.89110   0.01267  Uiso   1.00
C40    C     0.05890   0.44130   0.97710   0.01267  Uiso   1.00
C41    C     0.18290   0.16240   0.89090   0.01267  Uiso   1.00
C42    C     0.17160   0.19640   0.84960   0.01267  Uiso   1.00
C43    C     0.11910   0.14960   0.81680   0.01267  Uiso   1.00
C44    C     0.08170   0.07390   0.82260   0.01267  Uiso   1.00
C45    C     0.09400   0.03920   0.86100   0.01267  Uiso   1.00
C46    C     0.14610   0.08760   0.89580   0.01267  Uiso   1.00
C47    C     0.22080   0.27950   0.84420   0.01267  Uiso   1.00
C48    C     0.16870   0.05440   0.93640   0.01267  Uiso   1.00
C49    C     0.46920   0.15900   0.37297   0.01267  Uiso   1.00
C50    C     0.47820   0.12720   0.33097   0.01267  Uiso   1.00
C51    C     0.52420   0.17620   0.29547   0.01267  Uiso   1.00
C52    C     0.56140   0.25330   0.30227   0.01267  Uiso   1.00
C53    C     0.55120   0.28540   0.34307   0.01267  Uiso   1.00
C54    C     0.50410   0.23470   0.37967   0.01267  Uiso   1.00
C55    C     0.43980   0.04510   0.32497   0.01267  Uiso   1.00
C56    C     0.48570   0.26570   0.42287   0.01267  Uiso   1.00
C57    C     0.16970   0.20460   0.44867   0.01267  Uiso   1.00
C58    C     0.09280   0.17130   0.44477   0.01267  Uiso   1.00
C59    C     0.04640   0.12540   0.48067   0.01267  Uiso   1.00
C60    C     0.07630   0.11290   0.51997   0.01267  Uiso   1.00
C61    C     0.15400   0.14570   0.52497   0.01267  Uiso   1.00
C62    C     0.20210   0.19380   0.48957   0.01267  Uiso   1.00
C63    C     0.05940   0.19070   0.40257   0.01267  Uiso   1.00
C64    C     0.28640   0.23440   0.49527   0.01267  Uiso   1.00
C65    C     0.65500   0.50450   0.60277   0.01267  Uiso   1.00
C66    C     0.61090   0.42710   0.59837   0.01267  Uiso   1.00
C67    C     0.61420   0.37870   0.63077   0.01267  Uiso   1.00
C68    C     0.65860   0.40820   0.67077   0.01267  Uiso   1.00
C69    C     0.70380   0.48680   0.67597   0.01267  Uiso   1.00
C70    C     0.69660   0.53280   0.64287   0.01267  Uiso   1.00
C71    C     0.55810   0.39780   0.55777   0.01267  Uiso   1.00
C72    C     0.73900   0.61910   0.65247   0.01267  Uiso   1.00
C73    C     0.12980   0.50350   0.37737   0.01267  Uiso   1.00
C74    C     0.13720   0.46720   0.33787   0.01267  Uiso   1.00
C75    C     0.18120   0.51040   0.30087   0.01267  Uiso   1.00
C76    C     0.22150   0.58880   0.30477   0.01267  Uiso   1.00
C77    C     0.20870   0.62300   0.34337   0.01267  Uiso   1.00
C78    C     0.16370   0.58040   0.38047   0.01267  Uiso   1.00
C79    C     0.09500   0.38410   0.33317   0.01267  Uiso   1.00
C80    C     0.14590   0.61510   0.42087   0.01267  Uiso   1.00
C81    C     0.29930   0.82230   0.60017   0.01267  Uiso   1.00
C82    C     0.25630   0.74340   0.59677   0.01267  Uiso   1.00
C83    C     0.26450   0.70130   0.63077   0.01267  Uiso   1.00
C84    C     0.31710   0.73590   0.66697   0.01267  Uiso   1.00
C85    C     0.35580   0.81440   0.67037   0.01267  Uiso   1.00
C86    C     0.34610   0.85670   0.63727   0.01267  Uiso   1.00
C87    C     0.20160   0.71050   0.55777   0.01267  Uiso   1.00
C88    C     0.38240   0.94110   0.64377   0.01267  Uiso   1.00
C89    C     0.97950   0.81710   0.55757   0.01267  Uiso   1.00
C90    C     0.02480   0.82840   0.51627   0.01267  Uiso   1.00
C91    C     0.03050   0.88090   0.48347   0.01267  Uiso   1.00
C92    C     0.99220   0.91830   0.48927   0.01267  Uiso   1.00
C93    C     0.94520   0.90600   0.52767   0.01267  Uiso   1.00
C94    C     0.94150   0.85390   0.56247   0.01267  Uiso   1.00
C95    C     0.05870   0.77920   0.51087   0.01267  Uiso   1.00
C96    C     0.88570   0.83130   0.60307   0.01267  Uiso   1.00
C97    C     0.68980   0.53080   0.03963   0.01267  Uiso   1.00
C98    C     0.64900   0.52180   0.99763   0.01267  Uiso   1.00
C99    C     0.65200   0.47580   0.96213   0.01267  Uiso   1.00
C100   C     0.69190   0.43860   0.96893   0.01267  Uiso   1.00
C101   C     0.73420   0.44880   0.00973   0.01267  Uiso   1.00
C102   C     0.73060   0.49590   0.04633   0.01267  Uiso   1.00
C103   C     0.60530   0.56020   0.99163   0.01267  Uiso   1.00
C104   C     0.78000   0.51430   0.08953   0.01267  Uiso   1.00
C105   C     0.03490   0.83030   0.11533   0.01267  Uiso   1.00
C106   C     0.07850   0.90720   0.11143   0.01267  Uiso   1.00
C107   C     0.07900   0.95360   0.14733   0.01267  Uiso   1.00
C108   C     0.03660   0.92370   0.18663   0.01267  Uiso   1.00
C109   C     0.99170   0.84600   0.19163   0.01267  Uiso   1.00
C110   C     0.99170   0.79790   0.15623   0.01267  Uiso   1.00
C111   C     0.13130   0.94060   0.06923   0.01267  Uiso   1.00
C112   C     0.94800   0.71360   0.16193   0.01267  Uiso   1.00
C113   C     0.84950   0.34500   0.26943   0.01267  Uiso   1.00
C114   C     0.81620   0.38910   0.26503   0.01267  Uiso   1.00
C115   C     0.76450   0.38580   0.29743   0.01267  Uiso   1.00
C116   C     0.74960   0.34140   0.33743   0.01267  Uiso   1.00
C117   C     0.78300   0.29620   0.34263   0.01267  Uiso   1.00
C118   C     0.83620   0.30340   0.30953   0.01267  Uiso   1.00
C119   C     0.83970   0.44190   0.22443   0.01267  Uiso   1.00
C120   C     0.88010   0.26100   0.31913   0.01267  Uiso   1.00
C121   C     0.37370   0.87020   0.04403   0.01267  Uiso   1.00
C122   C     0.33000   0.86280   0.00453   0.01267  Uiso   1.00
C123   C     0.32920   0.81880   0.96753   0.01267  Uiso   1.00
C124   C     0.36730   0.77850   0.97143   0.01267  Uiso   1.00
C125   C     0.41430   0.79130   0.01003   0.01267  Uiso   1.00
C126   C     0.41670   0.83630   0.04713   0.01267  Uiso   1.00
C127   C     0.28910   0.90500   0.99983   0.01267  Uiso   1.00
C128   C     0.46920   0.85410   0.08753   0.01267  Uiso   1.00
C129   C     0.52300   0.70070   0.26683   0.01267  Uiso   1.00
C130   C     0.48710   0.74370   0.26343   0.01267  Uiso   1.00
C131   C     0.43680   0.73550   0.29743   0.01267  Uiso   1.00
C132   C     0.41880   0.68290   0.33363   0.01267  Uiso   1.00
C133   C     0.45860   0.64420   0.33703   0.01267  Uiso   1.00
C134   C     0.51060   0.65390   0.30393   0.01267  Uiso   1.00
C135   C     0.50890   0.79840   0.22443   0.01267  Uiso   1.00
C136   C     0.55870   0.61760   0.31043   0.01267  Uiso   1.00
C137   C     0.83760   0.02050   0.22423   0.01267  Uiso   1.00
C138   C     0.80360   0.97520   0.18293   0.01267  Uiso   1.00
C139   C     0.85040   0.96950   0.15013   0.01267  Uiso   1.00
C140   C     0.92610   0.00780   0.15593   0.01267  Uiso   1.00
C141   C     0.96080   0.05480   0.19433   0.01267  Uiso   1.00
C142   C     0.91240   0.05850   0.22913   0.01267  Uiso   1.00
C143   C     0.72050   0.94130   0.17753   0.01267  Uiso   1.00
C144   C     0.94560   0.11430   0.26973   0.01267  Uiso   1.00
C145   C     0.15900   0.68980   0.20630   0.01267  Uiso   1.00
C146   C     0.12720   0.64900   0.16430   0.01267  Uiso   1.00
C147   C     0.17620   0.65200   0.12880   0.01267  Uiso   1.00
C148   C     0.25330   0.69190   0.13560   0.01267  Uiso   1.00
C149   C     0.28540   0.73420   0.17640   0.01267  Uiso   1.00
C150   C     0.23470   0.73060   0.21300   0.01267  Uiso   1.00
C151   C     0.04510   0.60530   0.15830   0.01267  Uiso   1.00
C152   C     0.26570   0.78000   0.25620   0.01267  Uiso   1.00
C153   C     0.20460   0.03490   0.28200   0.01267  Uiso   1.00
C154   C     0.17130   0.07850   0.27810   0.01267  Uiso   1.00
C155   C     0.12540   0.07900   0.31400   0.01267  Uiso   1.00
C156   C     0.11290   0.03660   0.35330   0.01267  Uiso   1.00
C157   C     0.14570   0.99170   0.35830   0.01267  Uiso   1.00
C158   C     0.19380   0.99170   0.32290   0.01267  Uiso   1.00
C159   C     0.19070   0.13130   0.23590   0.01267  Uiso   1.00
C160   C     0.23440   0.94800   0.32860   0.01267  Uiso   1.00
C161   C     0.50450   0.84950   0.43610   0.01267  Uiso   1.00
C162   C     0.42710   0.81620   0.43170   0.01267  Uiso   1.00
C163   C     0.37870   0.76450   0.46410   0.01267  Uiso   1.00
C164   C     0.40820   0.74960   0.50410   0.01267  Uiso   1.00
C165   C     0.48680   0.78300   0.50930   0.01267  Uiso   1.00
C166   C     0.53280   0.83620   0.47620   0.01267  Uiso   1.00
C167   C     0.39780   0.83970   0.39110   0.01267  Uiso   1.00
C168   C     0.61910   0.88010   0.48580   0.01267  Uiso   1.00
C169   C     0.50350   0.37370   0.21070   0.01267  Uiso   1.00
C170   C     0.46720   0.33000   0.17120   0.01267  Uiso   1.00
C171   C     0.51040   0.32920   0.13420   0.01267  Uiso   1.00
C172   C     0.58880   0.36730   0.13810   0.01267  Uiso   1.00
C173   C     0.62300   0.41430   0.17670   0.01267  Uiso   1.00
C174   C     0.58040   0.41670   0.21380   0.01267  Uiso   1.00
C175   C     0.38410   0.28910   0.16650   0.01267  Uiso   1.00
C176   C     0.61510   0.46920   0.25420   0.01267  Uiso   1.00
C177   C     0.82230   0.52300   0.43350   0.01267  Uiso   1.00
C178   C     0.74340   0.48710   0.43010   0.01267  Uiso   1.00
C179   C     0.70130   0.43680   0.46410   0.01267  Uiso   1.00
C180   C     0.73590   0.41880   0.50030   0.01267  Uiso   1.00
C181   C     0.81440   0.45860   0.50370   0.01267  Uiso   1.00
C182   C     0.85670   0.51060   0.47060   0.01267  Uiso   1.00
C183   C     0.71050   0.50890   0.39110   0.01267  Uiso   1.00
C184   C     0.94110   0.55870   0.47710   0.01267  Uiso   1.00
C185   C     0.81710   0.83760   0.39090   0.01267  Uiso   1.00
C186   C     0.82840   0.80360   0.34960   0.01267  Uiso   1.00
C187   C     0.88090   0.85040   0.31680   0.01267  Uiso   1.00
C188   C     0.91830   0.92610   0.32260   0.01267  Uiso   1.00
C189   C     0.90600   0.96080   0.36100   0.01267  Uiso   1.00
C190   C     0.85390   0.91240   0.39580   0.01267  Uiso   1.00
C191   C     0.77920   0.72050   0.34420   0.01267  Uiso   1.00
C192   C     0.83130   0.94560   0.43640   0.01267  Uiso   1.00
C193   C     0.53080   0.84100   0.87297   0.01267  Uiso   1.00
C194   C     0.52180   0.87280   0.83097   0.01267  Uiso   1.00
C195   C     0.47580   0.82380   0.79547   0.01267  Uiso   1.00
C196   C     0.43860   0.74670   0.80227   0.01267  Uiso   1.00
C197   C     0.44880   0.71460   0.84307   0.01267  Uiso   1.00
C198   C     0.49590   0.76530   0.87967   0.01267  Uiso   1.00
C199   C     0.56020   0.95490   0.82497   0.01267  Uiso   1.00
C200   C     0.51430   0.73430   0.92287   0.01267  Uiso   1.00
C201   C     0.83030   0.79540   0.94867   0.01267  Uiso   1.00
C202   C     0.90720   0.82870   0.94477   0.01267  Uiso   1.00
C203   C     0.95360   0.87460   0.98067   0.01267  Uiso   1.00
C204   C     0.92370   0.88710   0.01997   0.01267  Uiso   1.00
C205   C     0.84600   0.85430   0.02497   0.01267  Uiso   1.00
C206   C     0.79790   0.80620   0.98957   0.01267  Uiso   1.00
C207   C     0.94060   0.80930   0.90257   0.01267  Uiso   1.00
C208   C     0.71360   0.76560   0.99527   0.01267  Uiso   1.00
C209   C     0.34500   0.49550   0.10277   0.01267  Uiso   1.00
C210   C     0.38910   0.57290   0.09837   0.01267  Uiso   1.00
C211   C     0.38580   0.62130   0.13077   0.01267  Uiso   1.00
C212   C     0.34140   0.59180   0.17077   0.01267  Uiso   1.00
C213   C     0.29620   0.51320   0.17597   0.01267  Uiso   1.00
C214   C     0.30340   0.46720   0.14287   0.01267  Uiso   1.00
C215   C     0.44190   0.60220   0.05777   0.01267  Uiso   1.00
C216   C     0.26100   0.38090   0.15247   0.01267  Uiso   1.00
C217   C     0.87020   0.49650   0.87737   0.01267  Uiso   1.00
C218   C     0.86280   0.53280   0.83787   0.01267  Uiso   1.00
C219   C     0.81880   0.48960   0.80087   0.01267  Uiso   1.00
C220   C     0.77850   0.41120   0.80477   0.01267  Uiso   1.00
C221   C     0.79130   0.37700   0.84337   0.01267  Uiso   1.00
C222   C     0.83630   0.41960   0.88047   0.01267  Uiso   1.00
C223   C     0.90500   0.61590   0.83317   0.01267  Uiso   1.00
C224   C     0.85410   0.38490   0.92087   0.01267  Uiso   1.00
C225   C     0.70070   0.17770   0.10017   0.01267  Uiso   1.00
C226   C     0.74370   0.25660   0.09677   0.01267  Uiso   1.00
C227   C     0.73550   0.29870   0.13077   0.01267  Uiso   1.00
C228   C     0.68290   0.26410   0.16697   0.01267  Uiso   1.00
C229   C     0.64420   0.18560   0.17037   0.01267  Uiso   1.00
C230   C     0.65390   0.14330   0.13727   0.01267  Uiso   1.00
C231   C     0.79840   0.28950   0.05777   0.01267  Uiso   1.00
C232   C     0.61760   0.05890   0.14377   0.01267  Uiso   1.00
C233   C     0.02050   0.18290   0.05757   0.01267  Uiso   1.00
C234   C     0.97520   0.17160   0.01627   0.01267  Uiso   1.00
C235   C     0.96950   0.11910   0.98347   0.01267  Uiso   1.00
C236   C     0.00780   0.08170   0.98927   0.01267  Uiso   1.00
C237   C     0.05480   0.09400   0.02767   0.01267  Uiso   1.00
C238   C     0.05850   0.14610   0.06247   0.01267  Uiso   1.00
C239   C     0.94130   0.22080   0.01087   0.01267  Uiso   1.00
C240   C     0.11430   0.16870   0.10307   0.01267  Uiso   1.00
C241   C     0.31020   0.46920   0.53963   0.01267  Uiso   1.00
C242   C     0.35100   0.47820   0.49763   0.01267  Uiso   1.00
C243   C     0.34800   0.52420   0.46213   0.01267  Uiso   1.00
C244   C     0.30810   0.56140   0.46893   0.01267  Uiso   1.00
C245   C     0.26580   0.55120   0.50973   0.01267  Uiso   1.00
C246   C     0.26940   0.50410   0.54633   0.01267  Uiso   1.00
C247   C     0.39470   0.43980   0.49163   0.01267  Uiso   1.00
C248   C     0.22000   0.48570   0.58953   0.01267  Uiso   1.00
C249   C     0.96510   0.16970   0.61533   0.01267  Uiso   1.00
C250   C     0.92150   0.09280   0.61143   0.01267  Uiso   1.00
C251   C     0.92100   0.04640   0.64733   0.01267  Uiso   1.00
C252   C     0.96340   0.07630   0.68663   0.01267  Uiso   1.00
C253   C     0.00830   0.15400   0.69163   0.01267  Uiso   1.00
C254   C     0.00830   0.20210   0.65623   0.01267  Uiso   1.00
C255   C     0.86870   0.05940   0.56923   0.01267  Uiso   1.00
C256   C     0.05200   0.28640   0.66193   0.01267  Uiso   1.00
C257   C     0.15050   0.65500   0.76943   0.01267  Uiso   1.00
C258   C     0.18380   0.61090   0.76503   0.01267  Uiso   1.00
C259   C     0.23550   0.61420   0.79743   0.01267  Uiso   1.00
C260   C     0.25040   0.65860   0.83743   0.01267  Uiso   1.00
C261   C     0.21700   0.70380   0.84263   0.01267  Uiso   1.00
C262   C     0.16380   0.69660   0.80953   0.01267  Uiso   1.00
C263   C     0.16030   0.55810   0.72443   0.01267  Uiso   1.00
C264   C     0.11990   0.73900   0.81913   0.01267  Uiso   1.00
C265   C     0.62630   0.12980   0.54403   0.01267  Uiso   1.00
C266   C     0.67000   0.13720   0.50453   0.01267  Uiso   1.00
C267   C     0.67080   0.18120   0.46753   0.01267  Uiso   1.00
C268   C     0.63270   0.22150   0.47143   0.01267  Uiso   1.00
C269   C     0.58570   0.20870   0.51003   0.01267  Uiso   1.00
C270   C     0.58330   0.16370   0.54713   0.01267  Uiso   1.00
C271   C     0.71090   0.09500   0.49983   0.01267  Uiso   1.00
C272   C     0.53080   0.14590   0.58753   0.01267  Uiso   1.00
C273   C     0.47700   0.29930   0.76683   0.01267  Uiso   1.00
C274   C     0.51290   0.25630   0.76343   0.01267  Uiso   1.00
C275   C     0.56320   0.26450   0.79743   0.01267  Uiso   1.00
C276   C     0.58120   0.31710   0.83363   0.01267  Uiso   1.00
C277   C     0.54140   0.35580   0.83703   0.01267  Uiso   1.00
C278   C     0.48940   0.34610   0.80393   0.01267  Uiso   1.00
C279   C     0.49110   0.20160   0.72443   0.01267  Uiso   1.00
C280   C     0.44130   0.38240   0.81043   0.01267  Uiso   1.00
C281   C     0.16240   0.97950   0.72423   0.01267  Uiso   1.00
C282   C     0.19640   0.02480   0.68293   0.01267  Uiso   1.00
C283   C     0.14960   0.03050   0.65013   0.01267  Uiso   1.00
C284   C     0.07390   0.99220   0.65593   0.01267  Uiso   1.00
C285   C     0.03920   0.94520   0.69433   0.01267  Uiso   1.00
C286   C     0.08760   0.94150   0.72913   0.01267  Uiso   1.00
C287   C     0.27950   0.05870   0.67753   0.01267  Uiso   1.00
C288   C     0.05440   0.88570   0.76973   0.01267  Uiso   1.00
O1     O     0.98260   0.42210   0.61850   0.01267  Uiso   1.00
O2     O     0.99540   0.39740   0.69310   0.01267  Uiso   1.00
O3     O     0.66440   0.16910   0.75610   0.01267  Uiso   1.00
O4     O     0.77580   0.22600   0.79030   0.01267  Uiso   1.00
O5     O     0.81940   0.81400   0.73930   0.01267  Uiso   1.00
O6     O     0.78150   0.88280   0.70030   0.01267  Uiso   1.00
O7     O     0.77020   0.08440   0.86780   0.01267  Uiso   1.00
O8     O     0.73060   0.05660   0.79470   0.01267  Uiso   1.00
O9     O     0.67160   0.17850   0.89000   0.01267  Uiso   1.00
O10    O     0.55900   0.12220   0.85800   0.01267  Uiso   1.00
O11    O     0.35630   0.12900   0.02380   0.01267  Uiso   1.00
O12    O     0.34150   0.07340   0.95700   0.01267  Uiso   1.00
O13    O     0.64700   0.74770   0.63050   0.01267  Uiso   1.00
O14    O     0.65100   0.70160   0.70110   0.01267  Uiso   1.00
O15    O     0.32160   0.47180   0.75010   0.01267  Uiso   1.00
O16    O     0.41930   0.54410   0.79300   0.01267  Uiso   1.00
O17    O     0.35230   0.49160   0.89770   0.01267  Uiso   1.00
O18    O     0.25160   0.46580   0.85340   0.01267  Uiso   1.00
O19    O     0.02690   0.45320   0.01110   0.01267  Uiso   1.00
O20    O     0.02340   0.38810   0.94870   0.01267  Uiso   1.00
O21    O     0.21000   0.30890   0.80770   0.01267  Uiso   1.00
O22    O     0.27510   0.31530   0.87160   0.01267  Uiso   1.00
O23    O     0.19740   0.09210   0.97110   0.01267  Uiso   1.00
O24    O     0.15690   0.99020   0.93210   0.01267  Uiso   1.00
O25    O     0.43950   0.01740   0.28517   0.01267  Uiso   1.00
O26    O     0.40200   0.00460   0.35977   0.01267  Uiso   1.00
O27    O     0.50470   0.33560   0.42277   0.01267  Uiso   1.00
O28    O     0.45020   0.22420   0.45697   0.01267  Uiso   1.00
O29    O     0.99460   0.18060   0.40597   0.01267  Uiso   1.00
O30    O     0.10130   0.21850   0.36697   0.01267  Uiso   1.00
O31    O     0.31420   0.22980   0.53447   0.01267  Uiso   1.00
O32    O     0.32600   0.26940   0.46137   0.01267  Uiso   1.00
O33    O     0.50690   0.32840   0.55667   0.01267  Uiso   1.00
O34    O     0.56320   0.44100   0.52467   0.01267  Uiso   1.00
O35    O     0.77270   0.64370   0.69047   0.01267  Uiso   1.00
O36    O     0.73190   0.65850   0.62367   0.01267  Uiso   1.00
O37    O     0.10070   0.35300   0.29717   0.01267  Uiso   1.00
O38    O     0.05060   0.34900   0.36777   0.01267  Uiso   1.00
O39    O     0.15020   0.67840   0.41677   0.01267  Uiso   1.00
O40    O     0.12480   0.58070   0.45967   0.01267  Uiso   1.00
O41    O     0.13930   0.64770   0.56437   0.01267  Uiso   1.00
O42    O     0.21420   0.74840   0.52007   0.01267  Uiso   1.00
O43    O     0.42630   0.97310   0.67777   0.01267  Uiso   1.00
O44    O     0.36470   0.97660   0.61537   0.01267  Uiso   1.00
O45    O     0.09890   0.79000   0.47437   0.01267  Uiso   1.00
O46    O     0.04020   0.72490   0.53827   0.01267  Uiso   1.00
O47    O     0.89470   0.80260   0.63777   0.01267  Uiso   1.00
O48    O     0.83330   0.84310   0.59877   0.01267  Uiso   1.00
O49    O     0.57790   0.56050   0.95183   0.01267  Uiso   1.00
O50    O     0.60260   0.59800   0.02643   0.01267  Uiso   1.00
O51    O     0.83090   0.49530   0.08943   0.01267  Uiso   1.00
O52    O     0.77400   0.54980   0.12363   0.01267  Uiso   1.00
O53    O     0.18600   0.00540   0.07263   0.01267  Uiso   1.00
O54    O     0.11720   0.89870   0.03363   0.01267  Uiso   1.00
O55    O     0.91560   0.68580   0.20113   0.01267  Uiso   1.00
O56    O     0.94340   0.67400   0.12803   0.01267  Uiso   1.00
O57    O     0.82150   0.49310   0.22333   0.01267  Uiso   1.00
O58    O     0.87780   0.43680   0.19133   0.01267  Uiso   1.00
O59    O     0.87100   0.22730   0.35713   0.01267  Uiso   1.00
O60    O     0.92660   0.26810   0.29033   0.01267  Uiso   1.00
O61    O     0.25230   0.89930   0.96383   0.01267  Uiso   1.00
O62    O     0.29840   0.94940   0.03443   0.01267  Uiso   1.00
O63    O     0.52820   0.84980   0.08343   0.01267  Uiso   1.00
O64    O     0.45590   0.87520   0.12633   0.01267  Uiso   1.00
O65    O     0.50840   0.86070   0.23103   0.01267  Uiso   1.00
O66    O     0.53420   0.78580   0.18673   0.01267  Uiso   1.00
O67    O     0.54680   0.57370   0.34443   0.01267  Uiso   1.00
O68    O     0.61190   0.63530   0.28203   0.01267  Uiso   1.00
O69    O     0.69110   0.90110   0.14103   0.01267  Uiso   1.00
O70    O     0.68470   0.95980   0.20493   0.01267  Uiso   1.00
O71    O     0.90790   0.10530   0.30443   0.01267  Uiso   1.00
O72    O     0.00980   0.16670   0.26543   0.01267  Uiso   1.00
O73    O     0.01740   0.57790   0.11850   0.01267  Uiso   1.00
O74    O     0.00460   0.60260   0.19310   0.01267  Uiso   1.00
O75    O     0.33560   0.83090   0.25610   0.01267  Uiso   1.00
O76    O     0.22420   0.77400   0.29030   0.01267  Uiso   1.00
O77    O     0.18060   0.18600   0.23930   0.01267  Uiso   1.00
O78    O     0.21850   0.11720   0.20030   0.01267  Uiso   1.00
O79    O     0.22980   0.91560   0.36780   0.01267  Uiso   1.00
O80    O     0.26940   0.94340   0.29470   0.01267  Uiso   1.00
O81    O     0.32840   0.82150   0.39000   0.01267  Uiso   1.00
O82    O     0.44100   0.87780   0.35800   0.01267  Uiso   1.00
O83    O     0.64370   0.87100   0.52380   0.01267  Uiso   1.00
O84    O     0.65850   0.92660   0.45700   0.01267  Uiso   1.00
O85    O     0.35300   0.25230   0.13050   0.01267  Uiso   1.00
O86    O     0.34900   0.29840   0.20110   0.01267  Uiso   1.00
O87    O     0.67840   0.52820   0.25010   0.01267  Uiso   1.00
O88    O     0.58070   0.45590   0.29300   0.01267  Uiso   1.00
O89    O     0.64770   0.50840   0.39770   0.01267  Uiso   1.00
O90    O     0.74840   0.53420   0.35340   0.01267  Uiso   1.00
O91    O     0.97310   0.54680   0.51110   0.01267  Uiso   1.00
O92    O     0.97660   0.61190   0.44870   0.01267  Uiso   1.00
O93    O     0.79000   0.69110   0.30770   0.01267  Uiso   1.00
O94    O     0.72490   0.68470   0.37160   0.01267  Uiso   1.00
O95    O     0.80260   0.90790   0.47110   0.01267  Uiso   1.00
O96    O     0.84310   0.00980   0.43210   0.01267  Uiso   1.00
O97    O     0.56050   0.98260   0.78517   0.01267  Uiso   1.00
O98    O     0.59800   0.99540   0.85977   0.01267  Uiso   1.00
O99    O     0.49530   0.66440   0.92277   0.01267  Uiso   1.00
O100   O     0.54980   0.77580   0.95697   0.01267  Uiso   1.00
O101   O     0.00540   0.81940   0.90597   0.01267  Uiso   1.00
O102   O     0.89870   0.78150   0.86697   0.01267  Uiso   1.00
O103   O     0.68580   0.77020   0.03447   0.01267  Uiso   1.00
O104   O     0.67400   0.73060   0.96137   0.01267  Uiso   1.00
O105   O     0.49310   0.67160   0.05667   0.01267  Uiso   1.00
O106   O     0.43680   0.55900   0.02467   0.01267  Uiso   1.00
O107   O     0.22730   0.35630   0.19047   0.01267  Uiso   1.00
O108   O     0.26810   0.34150   0.12367   0.01267  Uiso   1.00
O109   O     0.89930   0.64700   0.79717   0.01267  Uiso   1.00
O110   O     0.94940   0.65100   0.86777   0.01267  Uiso   1.00
O111   O     0.84980   0.32160   0.91677   0.01267  Uiso   1.00
O112   O     0.87520   0.41930   0.95967   0.01267  Uiso   1.00
O113   O     0.86070   0.35230   0.06437   0.01267  Uiso   1.00
O114   O     0.78580   0.25160   0.02007   0.01267  Uiso   1.00
O115   O     0.57370   0.02690   0.17777   0.01267  Uiso   1.00
O116   O     0.63530   0.02340   0.11537   0.01267  Uiso   1.00
O117   O     0.90110   0.21000   0.97437   0.01267  Uiso   1.00
O118   O     0.95980   0.27510   0.03827   0.01267  Uiso   1.00
O119   O     0.10530   0.19740   0.13777   0.01267  Uiso   1.00
O120   O     0.16670   0.15690   0.09877   0.01267  Uiso   1.00
O121   O     0.42210   0.43950   0.45183   0.01267  Uiso   1.00
O122   O     0.39740   0.40200   0.52643   0.01267  Uiso   1.00
O123   O     0.16910   0.50470   0.58943   0.01267  Uiso   1.00
O124   O     0.22600   0.45020   0.62363   0.01267  Uiso   1.00
O125   O     0.81400   0.99460   0.57263   0.01267  Uiso   1.00
O126   O     0.88280   0.10130   0.53363   0.01267  Uiso   1.00
O127   O     0.08440   0.31420   0.70113   0.01267  Uiso   1.00
O128   O     0.05660   0.32600   0.62803   0.01267  Uiso   1.00
O129   O     0.17850   0.50690   0.72333   0.01267  Uiso   1.00
O130   O     0.12220   0.56320   0.69133   0.01267  Uiso   1.00
O131   O     0.12900   0.77270   0.85713   0.01267  Uiso   1.00
O132   O     0.07340   0.73190   0.79033   0.01267  Uiso   1.00
O133   O     0.74770   0.10070   0.46383   0.01267  Uiso   1.00
O134   O     0.70160   0.05060   0.53443   0.01267  Uiso   1.00
O135   O     0.47180   0.15020   0.58343   0.01267  Uiso   1.00
O136   O     0.54410   0.12480   0.62633   0.01267  Uiso   1.00
O137   O     0.49160   0.13930   0.73103   0.01267  Uiso   1.00
O138   O     0.46580   0.21420   0.68673   0.01267  Uiso   1.00
O139   O     0.45320   0.42630   0.84443   0.01267  Uiso   1.00
O140   O     0.38810   0.36470   0.78203   0.01267  Uiso   1.00
O141   O     0.30890   0.09890   0.64103   0.01267  Uiso   1.00
O142   O     0.31530   0.04020   0.70493   0.01267  Uiso   1.00
O143   O     0.09210   0.89470   0.80443   0.01267  Uiso   1.00
O144   O     0.99020   0.83330   0.76543   0.01267  Uiso   1.00
