data_image0
_cell_length_a       71.008
_cell_length_b       13.7444
_cell_length_c       14.3221
_cell_angle_alpha    90
_cell_angle_beta     90
_cell_angle_gamma    90

_symmetry_space_group_name_H-M    "P 1"
_symmetry_int_tables_number       1

loop_
  _symmetry_equiv_pos_as_xyz
  'x, y, z'

loop_
  _atom_site_label
  _atom_site_occupancy
  _atom_site_fract_x
  _atom_site_fract_y
  _atom_site_fract_z
  _atom_site_thermal_displace_type
  _atom_site_B_iso_or_equiv
  _atom_site_type_symbol
  Al1      1.0000 0.29291  0.48140  0.33770  Biso   1.000  Al
  Al2      1.0000 0.11218  0.73470  0.86960  Biso   1.000  Al
  Co1      1.0000 0.07444  0.50479  0.14527  Biso   1.000  Co
  Co2      1.0000 0.02880  0.26675  0.88311  Biso   1.000  Co
  Al3      1.0000 0.22120  0.51675  0.13311  Biso   1.000  Al
  Co3      1.0000 0.14860  0.48384  0.32219  Biso   1.000  Co
  Al4      1.0000 0.18107  0.75596  0.10110  Biso   1.000  Al
  Co4      1.0000 0.06893  0.00596  0.35110  Biso   1.000  Co
  P1       1.0000 0.07683  0.67200  0.99210  Biso   1.000  P
  P2       1.0000 0.03751  0.59468  0.23380  Biso   1.000  P
  P3       1.0000 0.18479  0.58520  0.24610  Biso   1.000  P
  P4       1.0000 0.14603  0.81900  0.97710  Biso   1.000  P
  P5       1.0000 0.21569  0.68348  0.98210  Biso   1.000  P
  P6       1.0000 0.11186  0.40510  0.22040  Biso   1.000  P
  P7       1.0000 0.25748  0.41820  0.21440  Biso   1.000  P
  O1       1.0000 0.09663  0.48420  0.22030  Biso   1.000  O
  O2       1.0000 0.16139  0.76390  0.02940  Biso   1.000  O
  O3       1.0000 0.13040  0.45250  0.22970  Biso   1.000  O
  O4       1.0000 0.27602  0.45700  0.25640  Biso   1.000  O
  O5       1.0000 0.09256  0.72430  0.94460  Biso   1.000  O
  O6       1.0000 0.05598  0.53490  0.23880  Biso   1.000  O
  O7       1.0000 0.02049  0.52950  0.22810  Biso   1.000  O
  O8       1.0000 0.20471  0.54340  0.22870  Biso   1.000  O
  O9       1.0000 0.17179  0.49830  0.25470  Biso   1.000  O
  O10      1.0000 0.24424  0.49830  0.19360  Biso   1.000  O
  O11      1.0000 0.20225  0.75300  0.02530  Biso   1.000  O
  O12      1.0000 0.11206  0.34780  0.13020  Biso   1.000  O
  O13      1.0000 0.22885  0.74590  0.92500  Biso   1.000  O
  O14      1.0000 0.08398  0.60970  0.07190  Biso   1.000  O
  O15      1.0000 0.17891  0.64940  0.16910  Biso   1.000  O
  O16      1.0000 0.06503  0.61210  0.92570  Biso   1.000  O
  O17      1.0000 0.31431  0.49270  0.28160  Biso   1.000  O
  O18      1.0000 0.13266  0.74540  0.93200  Biso   1.000  O
  O19      1.0000 0.06396  0.39710  0.08540  Biso   1.000  O
  O20      1.0000 0.22481  0.62160  0.05430  Biso   1.000  O
  O21      1.0000 0.11401  0.63330  0.79740  Biso   1.000  O
  O22      1.0000 0.29647  0.38310  0.41700  Biso   1.000  O
  O23      1.0000 0.24710  0.35850  0.29200  Biso   1.000  O
  O24      1.0000 0.01171  0.39290  0.38050  Biso   1.000  O
  O25      1.0000 0.03715  0.66240  0.14620  Biso   1.000  O
  O26      1.0000 0.10794  0.34220  0.30510  Biso   1.000  O
  O27      1.0000 0.15576  0.37890  0.40620  Biso   1.000  O
  O28      1.0000 0.03622  0.65580  0.32160  Biso   1.000  O
  Al5      1.0000 0.29291  0.98140  0.83770  Biso   1.000  Al
  Al6      1.0000 0.11218  0.23470  0.36960  Biso   1.000  Al
  Co5      1.0000 0.07444  0.00479  0.64527  Biso   1.000  Co
  Co6      1.0000 0.02880  0.76675  0.38311  Biso   1.000  Co
  Al7      1.0000 0.22120  0.01675  0.63311  Biso   1.000  Al
  Co7      1.0000 0.14860  0.98384  0.82219  Biso   1.000  Co
  Al8      1.0000 0.18107  0.25596  0.60110  Biso   1.000  Al
  Co8      1.0000 0.06893  0.50596  0.85110  Biso   1.000  Co
  P8       1.0000 0.07683  0.17200  0.49210  Biso   1.000  P
  P9       1.0000 0.03751  0.09468  0.73380  Biso   1.000  P
  P10      1.0000 0.18479  0.08520  0.74610  Biso   1.000  P
  P11      1.0000 0.14603  0.31900  0.47710  Biso   1.000  P
  P12      1.0000 0.21569  0.18348  0.48210  Biso   1.000  P
  P13      1.0000 0.11186  0.90510  0.72040  Biso   1.000  P
  P14      1.0000 0.25748  0.91820  0.71440  Biso   1.000  P
  O29      1.0000 0.09663  0.98420  0.72030  Biso   1.000  O
  O30      1.0000 0.16139  0.26390  0.52940  Biso   1.000  O
  O31      1.0000 0.13040  0.95250  0.72970  Biso   1.000  O
  O32      1.0000 0.27602  0.95700  0.75640  Biso   1.000  O
  O33      1.0000 0.09256  0.22430  0.44460  Biso   1.000  O
  O34      1.0000 0.05598  0.03490  0.73880  Biso   1.000  O
  O35      1.0000 0.02049  0.02950  0.72810  Biso   1.000  O
  O36      1.0000 0.20471  0.04340  0.72870  Biso   1.000  O
  O37      1.0000 0.17179  0.99830  0.75470  Biso   1.000  O
  O38      1.0000 0.24424  0.99830  0.69360  Biso   1.000  O
  O39      1.0000 0.20225  0.25300  0.52530  Biso   1.000  O
  O40      1.0000 0.11206  0.84780  0.63020  Biso   1.000  O
  O41      1.0000 0.22885  0.24590  0.42500  Biso   1.000  O
  O42      1.0000 0.08398  0.10970  0.57190  Biso   1.000  O
  O43      1.0000 0.17891  0.14940  0.66910  Biso   1.000  O
  O44      1.0000 0.06503  0.11210  0.42570  Biso   1.000  O
  O45      1.0000 0.31431  0.99270  0.78160  Biso   1.000  O
  O46      1.0000 0.13266  0.24540  0.43200  Biso   1.000  O
  O47      1.0000 0.06396  0.89710  0.58540  Biso   1.000  O
  O48      1.0000 0.22481  0.12160  0.55430  Biso   1.000  O
  O49      1.0000 0.11401  0.13330  0.29740  Biso   1.000  O
  O50      1.0000 0.29647  0.88310  0.91700  Biso   1.000  O
  O51      1.0000 0.24710  0.85850  0.79200  Biso   1.000  O
  O52      1.0000 0.01171  0.89290  0.88050  Biso   1.000  O
  O53      1.0000 0.03715  0.16240  0.64620  Biso   1.000  O
  O54      1.0000 0.10794  0.84220  0.80510  Biso   1.000  O
  O55      1.0000 0.15576  0.87890  0.90620  Biso   1.000  O
  O56      1.0000 0.03622  0.15580  0.82160  Biso   1.000  O
  Al9      1.0000 0.79291  0.48140  0.83770  Biso   1.000  Al
  Al10     1.0000 0.61218  0.73470  0.36960  Biso   1.000  Al
  Co9      1.0000 0.57444  0.50479  0.64527  Biso   1.000  Co
  Co10     1.0000 0.52880  0.26675  0.38311  Biso   1.000  Co
  Al11     1.0000 0.72120  0.51675  0.63311  Biso   1.000  Al
  Co11     1.0000 0.64860  0.48384  0.82219  Biso   1.000  Co
  Al12     1.0000 0.68107  0.75596  0.60110  Biso   1.000  Al
  Co12     1.0000 0.56893  0.00596  0.85110  Biso   1.000  Co
  P15      1.0000 0.57683  0.67200  0.49210  Biso   1.000  P
  P16      1.0000 0.53751  0.59468  0.73380  Biso   1.000  P
  P17      1.0000 0.68479  0.58520  0.74610  Biso   1.000  P
  P18      1.0000 0.64603  0.81900  0.47710  Biso   1.000  P
  P19      1.0000 0.71569  0.68348  0.48210  Biso   1.000  P
  P20      1.0000 0.61186  0.40510  0.72040  Biso   1.000  P
  P21      1.0000 0.75748  0.41820  0.71440  Biso   1.000  P
  O57      1.0000 0.59663  0.48420  0.72030  Biso   1.000  O
  O58      1.0000 0.66139  0.76390  0.52940  Biso   1.000  O
  O59      1.0000 0.63040  0.45250  0.72970  Biso   1.000  O
  O60      1.0000 0.77602  0.45700  0.75640  Biso   1.000  O
  O61      1.0000 0.59256  0.72430  0.44460  Biso   1.000  O
  O62      1.0000 0.55598  0.53490  0.73880  Biso   1.000  O
  O63      1.0000 0.52049  0.52950  0.72810  Biso   1.000  O
  O64      1.0000 0.70471  0.54340  0.72870  Biso   1.000  O
  O65      1.0000 0.67179  0.49830  0.75470  Biso   1.000  O
  O66      1.0000 0.74424  0.49830  0.69360  Biso   1.000  O
  O67      1.0000 0.70225  0.75300  0.52530  Biso   1.000  O
  O68      1.0000 0.61206  0.34780  0.63020  Biso   1.000  O
  O69      1.0000 0.72885  0.74590  0.42500  Biso   1.000  O
  O70      1.0000 0.58398  0.60970  0.57190  Biso   1.000  O
  O71      1.0000 0.67891  0.64940  0.66910  Biso   1.000  O
  O72      1.0000 0.56503  0.61210  0.42570  Biso   1.000  O
  O73      1.0000 0.81431  0.49270  0.78160  Biso   1.000  O
  O74      1.0000 0.63266  0.74540  0.43200  Biso   1.000  O
  O75      1.0000 0.56396  0.39710  0.58540  Biso   1.000  O
  O76      1.0000 0.72481  0.62160  0.55430  Biso   1.000  O
  O77      1.0000 0.61401  0.63330  0.29740  Biso   1.000  O
  O78      1.0000 0.79647  0.38310  0.91700  Biso   1.000  O
  O79      1.0000 0.74710  0.35850  0.79200  Biso   1.000  O
  O80      1.0000 0.51171  0.39290  0.88050  Biso   1.000  O
  O81      1.0000 0.53715  0.66240  0.64620  Biso   1.000  O
  O82      1.0000 0.60794  0.34220  0.80510  Biso   1.000  O
  O83      1.0000 0.65576  0.37890  0.90620  Biso   1.000  O
  O84      1.0000 0.53622  0.65580  0.82160  Biso   1.000  O
  Al13     1.0000 0.79291  0.98140  0.33770  Biso   1.000  Al
  Al14     1.0000 0.61218  0.23470  0.86960  Biso   1.000  Al
  Co13     1.0000 0.57444  0.00479  0.14527  Biso   1.000  Co
  Co14     1.0000 0.52880  0.76675  0.88311  Biso   1.000  Co
  Al15     1.0000 0.72120  0.01675  0.13311  Biso   1.000  Al
  Co15     1.0000 0.64860  0.98384  0.32219  Biso   1.000  Co
  Al16     1.0000 0.68107  0.25596  0.10110  Biso   1.000  Al
  Co16     1.0000 0.56893  0.50596  0.35110  Biso   1.000  Co
  P22      1.0000 0.57683  0.17200  0.99210  Biso   1.000  P
  P23      1.0000 0.53751  0.09468  0.23380  Biso   1.000  P
  P24      1.0000 0.68479  0.08520  0.24610  Biso   1.000  P
  P25      1.0000 0.64603  0.31900  0.97710  Biso   1.000  P
  P26      1.0000 0.71569  0.18348  0.98210  Biso   1.000  P
  P27      1.0000 0.61186  0.90510  0.22040  Biso   1.000  P
  P28      1.0000 0.75748  0.91820  0.21440  Biso   1.000  P
  O85      1.0000 0.59663  0.98420  0.22030  Biso   1.000  O
  O86      1.0000 0.66139  0.26390  0.02940  Biso   1.000  O
  O87      1.0000 0.63040  0.95250  0.22970  Biso   1.000  O
  O88      1.0000 0.77602  0.95700  0.25640  Biso   1.000  O
  O89      1.0000 0.59256  0.22430  0.94460  Biso   1.000  O
  O90      1.0000 0.55598  0.03490  0.23880  Biso   1.000  O
  O91      1.0000 0.52049  0.02950  0.22810  Biso   1.000  O
  O92      1.0000 0.70471  0.04340  0.22870  Biso   1.000  O
  O93      1.0000 0.67179  0.99830  0.25470  Biso   1.000  O
  O94      1.0000 0.74424  0.99830  0.19360  Biso   1.000  O
  O95      1.0000 0.70225  0.25300  0.02530  Biso   1.000  O
  O96      1.0000 0.61206  0.84780  0.13020  Biso   1.000  O
  O97      1.0000 0.72885  0.24590  0.92500  Biso   1.000  O
  O98      1.0000 0.58398  0.10970  0.07190  Biso   1.000  O
  O99      1.0000 0.67891  0.14940  0.16910  Biso   1.000  O
  O100     1.0000 0.56503  0.11210  0.92570  Biso   1.000  O
  O101     1.0000 0.81431  0.99270  0.28160  Biso   1.000  O
  O102     1.0000 0.63266  0.24540  0.93200  Biso   1.000  O
  O103     1.0000 0.56396  0.89710  0.08540  Biso   1.000  O
  O104     1.0000 0.72481  0.12160  0.05430  Biso   1.000  O
  O105     1.0000 0.61401  0.13330  0.79740  Biso   1.000  O
  O106     1.0000 0.79647  0.88310  0.41700  Biso   1.000  O
  O107     1.0000 0.74710  0.85850  0.29200  Biso   1.000  O
  O108     1.0000 0.51171  0.89290  0.38050  Biso   1.000  O
  O109     1.0000 0.53715  0.16240  0.14620  Biso   1.000  O
  O110     1.0000 0.60794  0.84220  0.30510  Biso   1.000  O
  O111     1.0000 0.65576  0.87890  0.40620  Biso   1.000  O
  O112     1.0000 0.53622  0.15580  0.32160  Biso   1.000  O
  Al17     1.0000 0.70709  0.51860  0.33770  Biso   1.000  Al
  Al18     1.0000 0.88782  0.26530  0.86960  Biso   1.000  Al
  Co17     1.0000 0.92556  0.49521  0.14527  Biso   1.000  Co
  Co18     1.0000 0.97120  0.73325  0.88311  Biso   1.000  Co
  Al19     1.0000 0.77880  0.48325  0.13311  Biso   1.000  Al
  Co19     1.0000 0.85140  0.51616  0.32219  Biso   1.000  Co
  Al20     1.0000 0.81893  0.24404  0.10110  Biso   1.000  Al
  Co20     1.0000 0.93107  0.99404  0.35110  Biso   1.000  Co
  P29      1.0000 0.92317  0.32800  0.99210  Biso   1.000  P
  P30      1.0000 0.96249  0.40532  0.23380  Biso   1.000  P
  P31      1.0000 0.81521  0.41480  0.24610  Biso   1.000  P
  P32      1.0000 0.85397  0.18100  0.97710  Biso   1.000  P
  P33      1.0000 0.78431  0.31652  0.98210  Biso   1.000  P
  P34      1.0000 0.88814  0.59490  0.22040  Biso   1.000  P
  P35      1.0000 0.74252  0.58180  0.21440  Biso   1.000  P
  O113     1.0000 0.90337  0.51580  0.22030  Biso   1.000  O
  O114     1.0000 0.83861  0.23610  0.02940  Biso   1.000  O
  O115     1.0000 0.86960  0.54750  0.22970  Biso   1.000  O
  O116     1.0000 0.72398  0.54300  0.25640  Biso   1.000  O
  O117     1.0000 0.90744  0.27570  0.94460  Biso   1.000  O
  O118     1.0000 0.94402  0.46510  0.23880  Biso   1.000  O
  O119     1.0000 0.97951  0.47050  0.22810  Biso   1.000  O
  O120     1.0000 0.79529  0.45660  0.22870  Biso   1.000  O
  O121     1.0000 0.82821  0.50170  0.25470  Biso   1.000  O
  O122     1.0000 0.75576  0.50170  0.19360  Biso   1.000  O
  O123     1.0000 0.79775  0.24700  0.02530  Biso   1.000  O
  O124     1.0000 0.88794  0.65220  0.13020  Biso   1.000  O
  O125     1.0000 0.77115  0.25410  0.92500  Biso   1.000  O
  O126     1.0000 0.91602  0.39030  0.07190  Biso   1.000  O
  O127     1.0000 0.82109  0.35060  0.16910  Biso   1.000  O
  O128     1.0000 0.93497  0.38790  0.92570  Biso   1.000  O
  O129     1.0000 0.68569  0.50730  0.28160  Biso   1.000  O
  O130     1.0000 0.86734  0.25460  0.93200  Biso   1.000  O
  O131     1.0000 0.93604  0.60290  0.08540  Biso   1.000  O
  O132     1.0000 0.77519  0.37840  0.05430  Biso   1.000  O
  O133     1.0000 0.88599  0.36670  0.79740  Biso   1.000  O
  O134     1.0000 0.70353  0.61690  0.41700  Biso   1.000  O
  O135     1.0000 0.75290  0.64150  0.29200  Biso   1.000  O
  O136     1.0000 0.98829  0.60710  0.38050  Biso   1.000  O
  O137     1.0000 0.96285  0.33760  0.14620  Biso   1.000  O
  O138     1.0000 0.89206  0.65780  0.30510  Biso   1.000  O
  O139     1.0000 0.84424  0.62110  0.40620  Biso   1.000  O
  O140     1.0000 0.96378  0.34420  0.32160  Biso   1.000  O
  Al21     1.0000 0.70709  0.01860  0.83770  Biso   1.000  Al
  Al22     1.0000 0.88782  0.76530  0.36960  Biso   1.000  Al
  Co21     1.0000 0.92556  0.99521  0.64527  Biso   1.000  Co
  Co22     1.0000 0.97120  0.23325  0.38311  Biso   1.000  Co
  Al23     1.0000 0.77880  0.98325  0.63311  Biso   1.000  Al
  Co23     1.0000 0.85140  0.01616  0.82219  Biso   1.000  Co
  Al24     1.0000 0.81893  0.74404  0.60110  Biso   1.000  Al
  Co24     1.0000 0.93107  0.49404  0.85110  Biso   1.000  Co
  P36      1.0000 0.92317  0.82800  0.49210  Biso   1.000  P
  P37      1.0000 0.96249  0.90532  0.73380  Biso   1.000  P
  P38      1.0000 0.81521  0.91480  0.74610  Biso   1.000  P
  P39      1.0000 0.85397  0.68100  0.47710  Biso   1.000  P
  P40      1.0000 0.78431  0.81652  0.48210  Biso   1.000  P
  P41      1.0000 0.88814  0.09490  0.72040  Biso   1.000  P
  P42      1.0000 0.74252  0.08180  0.71440  Biso   1.000  P
  O141     1.0000 0.90337  0.01580  0.72030  Biso   1.000  O
  O142     1.0000 0.83861  0.73610  0.52940  Biso   1.000  O
  O143     1.0000 0.86960  0.04750  0.72970  Biso   1.000  O
  O144     1.0000 0.72398  0.04300  0.75640  Biso   1.000  O
  O145     1.0000 0.90744  0.77570  0.44460  Biso   1.000  O
  O146     1.0000 0.94402  0.96510  0.73880  Biso   1.000  O
  O147     1.0000 0.97951  0.97050  0.72810  Biso   1.000  O
  O148     1.0000 0.79529  0.95660  0.72870  Biso   1.000  O
  O149     1.0000 0.82821  0.00170  0.75470  Biso   1.000  O
  O150     1.0000 0.75576  0.00170  0.69360  Biso   1.000  O
  O151     1.0000 0.79775  0.74700  0.52530  Biso   1.000  O
  O152     1.0000 0.88794  0.15220  0.63020  Biso   1.000  O
  O153     1.0000 0.77115  0.75410  0.42500  Biso   1.000  O
  O154     1.0000 0.91602  0.89030  0.57190  Biso   1.000  O
  O155     1.0000 0.82109  0.85060  0.66910  Biso   1.000  O
  O156     1.0000 0.93497  0.88790  0.42570  Biso   1.000  O
  O157     1.0000 0.68569  0.00730  0.78160  Biso   1.000  O
  O158     1.0000 0.86734  0.75460  0.43200  Biso   1.000  O
  O159     1.0000 0.93604  0.10290  0.58540  Biso   1.000  O
  O160     1.0000 0.77519  0.87840  0.55430  Biso   1.000  O
  O161     1.0000 0.88599  0.86670  0.29740  Biso   1.000  O
  O162     1.0000 0.70353  0.11690  0.91700  Biso   1.000  O
  O163     1.0000 0.75290  0.14150  0.79200  Biso   1.000  O
  O164     1.0000 0.98829  0.10710  0.88050  Biso   1.000  O
  O165     1.0000 0.96285  0.83760  0.64620  Biso   1.000  O
  O166     1.0000 0.89206  0.15780  0.80510  Biso   1.000  O
  O167     1.0000 0.84424  0.12110  0.90620  Biso   1.000  O
  O168     1.0000 0.96378  0.84420  0.82160  Biso   1.000  O
  Al25     1.0000 0.20709  0.51860  0.83770  Biso   1.000  Al
  Al26     1.0000 0.38782  0.26530  0.36960  Biso   1.000  Al
  Co25     1.0000 0.42556  0.49521  0.64527  Biso   1.000  Co
  Co26     1.0000 0.47120  0.73325  0.38311  Biso   1.000  Co
  Al27     1.0000 0.27880  0.48325  0.63311  Biso   1.000  Al
  Co27     1.0000 0.35140  0.51616  0.82219  Biso   1.000  Co
  Al28     1.0000 0.31893  0.24404  0.60110  Biso   1.000  Al
  Co28     1.0000 0.43107  0.99404  0.85110  Biso   1.000  Co
  P43      1.0000 0.42317  0.32800  0.49210  Biso   1.000  P
  P44      1.0000 0.46249  0.40532  0.73380  Biso   1.000  P
  P45      1.0000 0.31521  0.41480  0.74610  Biso   1.000  P
  P46      1.0000 0.35397  0.18100  0.47710  Biso   1.000  P
  P47      1.0000 0.28431  0.31652  0.48210  Biso   1.000  P
  P48      1.0000 0.38814  0.59490  0.72040  Biso   1.000  P
  P49      1.0000 0.24252  0.58180  0.71440  Biso   1.000  P
  O169     1.0000 0.40337  0.51580  0.72030  Biso   1.000  O
  O170     1.0000 0.33861  0.23610  0.52940  Biso   1.000  O
  O171     1.0000 0.36960  0.54750  0.72970  Biso   1.000  O
  O172     1.0000 0.22398  0.54300  0.75640  Biso   1.000  O
  O173     1.0000 0.40744  0.27570  0.44460  Biso   1.000  O
  O174     1.0000 0.44402  0.46510  0.73880  Biso   1.000  O
  O175     1.0000 0.47951  0.47050  0.72810  Biso   1.000  O
  O176     1.0000 0.29529  0.45660  0.72870  Biso   1.000  O
  O177     1.0000 0.32821  0.50170  0.75470  Biso   1.000  O
  O178     1.0000 0.25576  0.50170  0.69360  Biso   1.000  O
  O179     1.0000 0.29775  0.24700  0.52530  Biso   1.000  O
  O180     1.0000 0.38794  0.65220  0.63020  Biso   1.000  O
  O181     1.0000 0.27115  0.25410  0.42500  Biso   1.000  O
  O182     1.0000 0.41602  0.39030  0.57190  Biso   1.000  O
  O183     1.0000 0.32109  0.35060  0.66910  Biso   1.000  O
  O184     1.0000 0.43497  0.38790  0.42570  Biso   1.000  O
  O185     1.0000 0.18569  0.50730  0.78160  Biso   1.000  O
  O186     1.0000 0.36734  0.25460  0.43200  Biso   1.000  O
  O187     1.0000 0.43604  0.60290  0.58540  Biso   1.000  O
  O188     1.0000 0.27519  0.37840  0.55430  Biso   1.000  O
  O189     1.0000 0.38599  0.36670  0.29740  Biso   1.000  O
  O190     1.0000 0.20353  0.61690  0.91700  Biso   1.000  O
  O191     1.0000 0.25290  0.64150  0.79200  Biso   1.000  O
  O192     1.0000 0.48829  0.60710  0.88050  Biso   1.000  O
  O193     1.0000 0.46285  0.33760  0.64620  Biso   1.000  O
  O194     1.0000 0.39206  0.65780  0.80510  Biso   1.000  O
  O195     1.0000 0.34424  0.62110  0.90620  Biso   1.000  O
  O196     1.0000 0.46378  0.34420  0.82160  Biso   1.000  O
  Al29     1.0000 0.20709  0.01860  0.33770  Biso   1.000  Al
  Al30     1.0000 0.38782  0.76530  0.86960  Biso   1.000  Al
  Co29     1.0000 0.42556  0.99521  0.14527  Biso   1.000  Co
  Co30     1.0000 0.47120  0.23325  0.88311  Biso   1.000  Co
  Al31     1.0000 0.27880  0.98325  0.13311  Biso   1.000  Al
  Co31     1.0000 0.35140  0.01616  0.32219  Biso   1.000  Co
  Al32     1.0000 0.31893  0.74404  0.10110  Biso   1.000  Al
  Co32     1.0000 0.43107  0.49404  0.35110  Biso   1.000  Co
  P50      1.0000 0.42317  0.82800  0.99210  Biso   1.000  P
  P51      1.0000 0.46249  0.90532  0.23380  Biso   1.000  P
  P52      1.0000 0.31521  0.91480  0.24610  Biso   1.000  P
  P53      1.0000 0.35397  0.68100  0.97710  Biso   1.000  P
  P54      1.0000 0.28431  0.81652  0.98210  Biso   1.000  P
  P55      1.0000 0.38814  0.09490  0.22040  Biso   1.000  P
  P56      1.0000 0.24252  0.08180  0.21440  Biso   1.000  P
  O197     1.0000 0.40337  0.01580  0.22030  Biso   1.000  O
  O198     1.0000 0.33861  0.73610  0.02940  Biso   1.000  O
  O199     1.0000 0.36960  0.04750  0.22970  Biso   1.000  O
  O200     1.0000 0.22398  0.04300  0.25640  Biso   1.000  O
  O201     1.0000 0.40744  0.77570  0.94460  Biso   1.000  O
  O202     1.0000 0.44402  0.96510  0.23880  Biso   1.000  O
  O203     1.0000 0.47951  0.97050  0.22810  Biso   1.000  O
  O204     1.0000 0.29529  0.95660  0.22870  Biso   1.000  O
  O205     1.0000 0.32821  0.00170  0.25470  Biso   1.000  O
  O206     1.0000 0.25576  0.00170  0.19360  Biso   1.000  O
  O207     1.0000 0.29775  0.74700  0.02530  Biso   1.000  O
  O208     1.0000 0.38794  0.15220  0.13020  Biso   1.000  O
  O209     1.0000 0.27115  0.75410  0.92500  Biso   1.000  O
  O210     1.0000 0.41602  0.89030  0.07190  Biso   1.000  O
  O211     1.0000 0.32109  0.85060  0.16910  Biso   1.000  O
  O212     1.0000 0.43497  0.88790  0.92570  Biso   1.000  O
  O213     1.0000 0.18569  0.00730  0.28160  Biso   1.000  O
  O214     1.0000 0.36734  0.75460  0.93200  Biso   1.000  O
  O215     1.0000 0.43604  0.10290  0.08540  Biso   1.000  O
  O216     1.0000 0.27519  0.87840  0.05430  Biso   1.000  O
  O217     1.0000 0.38599  0.86670  0.79740  Biso   1.000  O
  O218     1.0000 0.20353  0.11690  0.41700  Biso   1.000  O
  O219     1.0000 0.25290  0.14150  0.29200  Biso   1.000  O
  O220     1.0000 0.48829  0.10710  0.38050  Biso   1.000  O
  O221     1.0000 0.46285  0.83760  0.14620  Biso   1.000  O
  O222     1.0000 0.39206  0.15780  0.30510  Biso   1.000  O
  O223     1.0000 0.34424  0.12110  0.40620  Biso   1.000  O
  O224     1.0000 0.46378  0.84420  0.32160  Biso   1.000  O
  Al33     1.0000 0.54291  0.76860  0.58770  Biso   1.000  Al
  Al34     1.0000 0.36218  0.51530  0.11960  Biso   1.000  Al
  Co33     1.0000 0.32444  0.74521  0.39527  Biso   1.000  Co
  Co34     1.0000 0.39860  0.76616  0.57219  Biso   1.000  Co
  P57      1.0000 0.32683  0.57800  0.24210  Biso   1.000  P
  P58      1.0000 0.28751  0.65532  0.48380  Biso   1.000  P
  P59      1.0000 0.43479  0.66480  0.49610  Biso   1.000  P
  P60      1.0000 0.39603  0.43100  0.22710  Biso   1.000  P
  P61      1.0000 0.46569  0.56652  0.23210  Biso   1.000  P
  P62      1.0000 0.36186  0.84490  0.47040  Biso   1.000  P
  P63      1.0000 0.50748  0.83180  0.46440  Biso   1.000  P
  O225     1.0000 0.34663  0.76580  0.47030  Biso   1.000  O
  O226     1.0000 0.41139  0.48610  0.27940  Biso   1.000  O
  O227     1.0000 0.38040  0.79750  0.47970  Biso   1.000  O
  O228     1.0000 0.52602  0.79300  0.50640  Biso   1.000  O
  O229     1.0000 0.34256  0.52570  0.19460  Biso   1.000  O
  O230     1.0000 0.30598  0.71510  0.48880  Biso   1.000  O
  O231     1.0000 0.27049  0.72050  0.47810  Biso   1.000  O
  O232     1.0000 0.45471  0.70660  0.47870  Biso   1.000  O
  O233     1.0000 0.42179  0.75170  0.50470  Biso   1.000  O
  O234     1.0000 0.49424  0.75170  0.44360  Biso   1.000  O
  O235     1.0000 0.45225  0.49700  0.27530  Biso   1.000  O
  O236     1.0000 0.36206  0.90220  0.38020  Biso   1.000  O
  O237     1.0000 0.47885  0.50410  0.17500  Biso   1.000  O
  O238     1.0000 0.33398  0.64030  0.32190  Biso   1.000  O
  O239     1.0000 0.42891  0.60060  0.41910  Biso   1.000  O
  O240     1.0000 0.31503  0.63790  0.17570  Biso   1.000  O
  O241     1.0000 0.56431  0.75730  0.53160  Biso   1.000  O
  O242     1.0000 0.38266  0.50460  0.18200  Biso   1.000  O
  O243     1.0000 0.31396  0.85290  0.33540  Biso   1.000  O
  O244     1.0000 0.47481  0.62840  0.30430  Biso   1.000  O
  O245     1.0000 0.36401  0.61670  0.04740  Biso   1.000  O
  O246     1.0000 0.54647  0.86690  0.66700  Biso   1.000  O
  O247     1.0000 0.49710  0.89150  0.54200  Biso   1.000  O
  O248     1.0000 0.26171  0.85710  0.63050  Biso   1.000  O
  O249     1.0000 0.28715  0.58760  0.39620  Biso   1.000  O
  O250     1.0000 0.35794  0.90780  0.55510  Biso   1.000  O
  O251     1.0000 0.40576  0.87110  0.65620  Biso   1.000  O
  O252     1.0000 0.28622  0.59420  0.57160  Biso   1.000  O
  Al35     1.0000 0.54291  0.26860  0.08770  Biso   1.000  Al
  Al36     1.0000 0.36218  0.01530  0.61960  Biso   1.000  Al
  Co35     1.0000 0.32444  0.24521  0.89527  Biso   1.000  Co
  Co36     1.0000 0.39860  0.26616  0.07219  Biso   1.000  Co
  P64      1.0000 0.32683  0.07800  0.74210  Biso   1.000  P
  P65      1.0000 0.28751  0.15532  0.98380  Biso   1.000  P
  P66      1.0000 0.43479  0.16480  0.99610  Biso   1.000  P
  P67      1.0000 0.39603  0.93100  0.72710  Biso   1.000  P
  P68      1.0000 0.46569  0.06652  0.73210  Biso   1.000  P
  P69      1.0000 0.36186  0.34490  0.97040  Biso   1.000  P
  P70      1.0000 0.50748  0.33180  0.96440  Biso   1.000  P
  O253     1.0000 0.34663  0.26580  0.97030  Biso   1.000  O
  O254     1.0000 0.41139  0.98610  0.77940  Biso   1.000  O
  O255     1.0000 0.38040  0.29750  0.97970  Biso   1.000  O
  O256     1.0000 0.52602  0.29300  0.00640  Biso   1.000  O
  O257     1.0000 0.34256  0.02570  0.69460  Biso   1.000  O
  O258     1.0000 0.30598  0.21510  0.98880  Biso   1.000  O
  O259     1.0000 0.27049  0.22050  0.97810  Biso   1.000  O
  O260     1.0000 0.45471  0.20660  0.97870  Biso   1.000  O
  O261     1.0000 0.42179  0.25170  0.00470  Biso   1.000  O
  O262     1.0000 0.49424  0.25170  0.94360  Biso   1.000  O
  O263     1.0000 0.45225  0.99700  0.77530  Biso   1.000  O
  O264     1.0000 0.36206  0.40220  0.88020  Biso   1.000  O
  O265     1.0000 0.47885  0.00410  0.67500  Biso   1.000  O
  O266     1.0000 0.33398  0.14030  0.82190  Biso   1.000  O
  O267     1.0000 0.42891  0.10060  0.91910  Biso   1.000  O
  O268     1.0000 0.31503  0.13790  0.67570  Biso   1.000  O
  O269     1.0000 0.56431  0.25730  0.03160  Biso   1.000  O
  O270     1.0000 0.38266  0.00460  0.68200  Biso   1.000  O
  O271     1.0000 0.31396  0.35290  0.83540  Biso   1.000  O
  O272     1.0000 0.47481  0.12840  0.80430  Biso   1.000  O
  O273     1.0000 0.36401  0.11670  0.54740  Biso   1.000  O
  O274     1.0000 0.54647  0.36690  0.16700  Biso   1.000  O
  O275     1.0000 0.49710  0.39150  0.04200  Biso   1.000  O
  O276     1.0000 0.26171  0.35710  0.13050  Biso   1.000  O
  O277     1.0000 0.28715  0.08760  0.89620  Biso   1.000  O
  O278     1.0000 0.35794  0.40780  0.05510  Biso   1.000  O
  O279     1.0000 0.40576  0.37110  0.15620  Biso   1.000  O
  O280     1.0000 0.28622  0.09420  0.07160  Biso   1.000  O
  Al37     1.0000 0.04291  0.76860  0.08770  Biso   1.000  Al
  Al38     1.0000 0.86218  0.51530  0.61960  Biso   1.000  Al
  Co37     1.0000 0.82444  0.74521  0.89527  Biso   1.000  Co
  Co38     1.0000 0.89860  0.76616  0.07219  Biso   1.000  Co
  P71      1.0000 0.82683  0.57800  0.74210  Biso   1.000  P
  P72      1.0000 0.78751  0.65532  0.98380  Biso   1.000  P
  P73      1.0000 0.93479  0.66480  0.99610  Biso   1.000  P
  P74      1.0000 0.89603  0.43100  0.72710  Biso   1.000  P
  P75      1.0000 0.96569  0.56652  0.73210  Biso   1.000  P
  P76      1.0000 0.86186  0.84490  0.97040  Biso   1.000  P
  P77      1.0000 0.00748  0.83180  0.96440  Biso   1.000  P
  O281     1.0000 0.84663  0.76580  0.97030  Biso   1.000  O
  O282     1.0000 0.91139  0.48610  0.77940  Biso   1.000  O
  O283     1.0000 0.88040  0.79750  0.97970  Biso   1.000  O
  O284     1.0000 0.02602  0.79300  0.00640  Biso   1.000  O
  O285     1.0000 0.84256  0.52570  0.69460  Biso   1.000  O
  O286     1.0000 0.80598  0.71510  0.98880  Biso   1.000  O
  O287     1.0000 0.77049  0.72050  0.97810  Biso   1.000  O
  O288     1.0000 0.95471  0.70660  0.97870  Biso   1.000  O
  O289     1.0000 0.92179  0.75170  0.00470  Biso   1.000  O
  O290     1.0000 0.99424  0.75170  0.94360  Biso   1.000  O
  O291     1.0000 0.95225  0.49700  0.77530  Biso   1.000  O
  O292     1.0000 0.86206  0.90220  0.88020  Biso   1.000  O
  O293     1.0000 0.97885  0.50410  0.67500  Biso   1.000  O
  O294     1.0000 0.83398  0.64030  0.82190  Biso   1.000  O
  O295     1.0000 0.92891  0.60060  0.91910  Biso   1.000  O
  O296     1.0000 0.81503  0.63790  0.67570  Biso   1.000  O
  O297     1.0000 0.06431  0.75730  0.03160  Biso   1.000  O
  O298     1.0000 0.88266  0.50460  0.68200  Biso   1.000  O
  O299     1.0000 0.81396  0.85290  0.83540  Biso   1.000  O
  O300     1.0000 0.97481  0.62840  0.80430  Biso   1.000  O
  O301     1.0000 0.86401  0.61670  0.54740  Biso   1.000  O
  O302     1.0000 0.04647  0.86690  0.16700  Biso   1.000  O
  O303     1.0000 0.99710  0.89150  0.04200  Biso   1.000  O
  O304     1.0000 0.76171  0.85710  0.13050  Biso   1.000  O
  O305     1.0000 0.78715  0.58760  0.89620  Biso   1.000  O
  O306     1.0000 0.85794  0.90780  0.05510  Biso   1.000  O
  O307     1.0000 0.90576  0.87110  0.15620  Biso   1.000  O
  O308     1.0000 0.78622  0.59420  0.07160  Biso   1.000  O
  Al39     1.0000 0.04291  0.26860  0.58770  Biso   1.000  Al
  Al40     1.0000 0.86218  0.01530  0.11960  Biso   1.000  Al
  Co39     1.0000 0.82444  0.24521  0.39527  Biso   1.000  Co
  Co40     1.0000 0.89860  0.26616  0.57219  Biso   1.000  Co
  P78      1.0000 0.82683  0.07800  0.24210  Biso   1.000  P
  P79      1.0000 0.78751  0.15532  0.48380  Biso   1.000  P
  P80      1.0000 0.93479  0.16480  0.49610  Biso   1.000  P
  P81      1.0000 0.89603  0.93100  0.22710  Biso   1.000  P
  P82      1.0000 0.96569  0.06652  0.23210  Biso   1.000  P
  P83      1.0000 0.86186  0.34490  0.47040  Biso   1.000  P
  P84      1.0000 0.00748  0.33180  0.46440  Biso   1.000  P
  O309     1.0000 0.84663  0.26580  0.47030  Biso   1.000  O
  O310     1.0000 0.91139  0.98610  0.27940  Biso   1.000  O
  O311     1.0000 0.88040  0.29750  0.47970  Biso   1.000  O
  O312     1.0000 0.02602  0.29300  0.50640  Biso   1.000  O
  O313     1.0000 0.84256  0.02570  0.19460  Biso   1.000  O
  O314     1.0000 0.80598  0.21510  0.48880  Biso   1.000  O
  O315     1.0000 0.77049  0.22050  0.47810  Biso   1.000  O
  O316     1.0000 0.95471  0.20660  0.47870  Biso   1.000  O
  O317     1.0000 0.92179  0.25170  0.50470  Biso   1.000  O
  O318     1.0000 0.99424  0.25170  0.44360  Biso   1.000  O
  O319     1.0000 0.95225  0.99700  0.27530  Biso   1.000  O
  O320     1.0000 0.86206  0.40220  0.38020  Biso   1.000  O
  O321     1.0000 0.97885  0.00410  0.17500  Biso   1.000  O
  O322     1.0000 0.83398  0.14030  0.32190  Biso   1.000  O
  O323     1.0000 0.92891  0.10060  0.41910  Biso   1.000  O
  O324     1.0000 0.81503  0.13790  0.17570  Biso   1.000  O
  O325     1.0000 0.06431  0.25730  0.53160  Biso   1.000  O
  O326     1.0000 0.88266  0.00460  0.18200  Biso   1.000  O
  O327     1.0000 0.81396  0.35290  0.33540  Biso   1.000  O
  O328     1.0000 0.97481  0.12840  0.30430  Biso   1.000  O
  O329     1.0000 0.86401  0.11670  0.04740  Biso   1.000  O
  O330     1.0000 0.04647  0.36690  0.66700  Biso   1.000  O
  O331     1.0000 0.99710  0.39150  0.54200  Biso   1.000  O
  O332     1.0000 0.76171  0.35710  0.63050  Biso   1.000  O
  O333     1.0000 0.78715  0.08760  0.39620  Biso   1.000  O
  O334     1.0000 0.85794  0.40780  0.55510  Biso   1.000  O
  O335     1.0000 0.90576  0.37110  0.65620  Biso   1.000  O
  O336     1.0000 0.78622  0.09420  0.57160  Biso   1.000  O
  Al41     1.0000 0.95709  0.73140  0.58770  Biso   1.000  Al
  Al42     1.0000 0.13782  0.98470  0.11960  Biso   1.000  Al
  Co41     1.0000 0.17556  0.75479  0.39527  Biso   1.000  Co
  Co42     1.0000 0.10140  0.73384  0.57219  Biso   1.000  Co
  P85      1.0000 0.17317  0.92200  0.24210  Biso   1.000  P
  P86      1.0000 0.21249  0.84468  0.48380  Biso   1.000  P
  P87      1.0000 0.06521  0.83520  0.49610  Biso   1.000  P
  P88      1.0000 0.10397  0.06900  0.22710  Biso   1.000  P
  P89      1.0000 0.03431  0.93348  0.23210  Biso   1.000  P
  P90      1.0000 0.13814  0.65510  0.47040  Biso   1.000  P
  P91      1.0000 0.99252  0.66820  0.46440  Biso   1.000  P
  O337     1.0000 0.15337  0.73420  0.47030  Biso   1.000  O
  O338     1.0000 0.08861  0.01390  0.27940  Biso   1.000  O
  O339     1.0000 0.11960  0.70250  0.47970  Biso   1.000  O
  O340     1.0000 0.97398  0.70700  0.50640  Biso   1.000  O
  O341     1.0000 0.15744  0.97430  0.19460  Biso   1.000  O
  O342     1.0000 0.19402  0.78490  0.48880  Biso   1.000  O
  O343     1.0000 0.22951  0.77950  0.47810  Biso   1.000  O
  O344     1.0000 0.04529  0.79340  0.47870  Biso   1.000  O
  O345     1.0000 0.07821  0.74830  0.50470  Biso   1.000  O
  O346     1.0000 0.00576  0.74830  0.44360  Biso   1.000  O
  O347     1.0000 0.04775  0.00300  0.27530  Biso   1.000  O
  O348     1.0000 0.13794  0.59780  0.38020  Biso   1.000  O
  O349     1.0000 0.02115  0.99590  0.17500  Biso   1.000  O
  O350     1.0000 0.16602  0.85970  0.32190  Biso   1.000  O
  O351     1.0000 0.07109  0.89940  0.41910  Biso   1.000  O
  O352     1.0000 0.18497  0.86210  0.17570  Biso   1.000  O
  O353     1.0000 0.93569  0.74270  0.53160  Biso   1.000  O
  O354     1.0000 0.11734  0.99540  0.18200  Biso   1.000  O
  O355     1.0000 0.18604  0.64710  0.33540  Biso   1.000  O
  O356     1.0000 0.02519  0.87160  0.30430  Biso   1.000  O
  O357     1.0000 0.13599  0.88330  0.04740  Biso   1.000  O
  O358     1.0000 0.95353  0.63310  0.66700  Biso   1.000  O
  O359     1.0000 0.00290  0.60850  0.54200  Biso   1.000  O
  O360     1.0000 0.23829  0.64290  0.63050  Biso   1.000  O
  O361     1.0000 0.21285  0.91240  0.39620  Biso   1.000  O
  O362     1.0000 0.14206  0.59220  0.55510  Biso   1.000  O
  O363     1.0000 0.09424  0.62890  0.65620  Biso   1.000  O
  O364     1.0000 0.21378  0.90580  0.57160  Biso   1.000  O
  Al43     1.0000 0.95709  0.23140  0.08770  Biso   1.000  Al
  Al44     1.0000 0.13782  0.48470  0.61960  Biso   1.000  Al
  Co43     1.0000 0.17556  0.25479  0.89527  Biso   1.000  Co
  Co44     1.0000 0.10140  0.23384  0.07219  Biso   1.000  Co
  P92      1.0000 0.17317  0.42200  0.74210  Biso   1.000  P
  P93      1.0000 0.21249  0.34468  0.98380  Biso   1.000  P
  P94      1.0000 0.06521  0.33520  0.99610  Biso   1.000  P
  P95      1.0000 0.10397  0.56900  0.72710  Biso   1.000  P
  P96      1.0000 0.03431  0.43348  0.73210  Biso   1.000  P
  P97      1.0000 0.13814  0.15510  0.97040  Biso   1.000  P
  P98      1.0000 0.99252  0.16820  0.96440  Biso   1.000  P
  O365     1.0000 0.15337  0.23420  0.97030  Biso   1.000  O
  O366     1.0000 0.08861  0.51390  0.77940  Biso   1.000  O
  O367     1.0000 0.11960  0.20250  0.97970  Biso   1.000  O
  O368     1.0000 0.97398  0.20700  0.00640  Biso   1.000  O
  O369     1.0000 0.15744  0.47430  0.69460  Biso   1.000  O
  O370     1.0000 0.19402  0.28490  0.98880  Biso   1.000  O
  O371     1.0000 0.22951  0.27950  0.97810  Biso   1.000  O
  O372     1.0000 0.04529  0.29340  0.97870  Biso   1.000  O
  O373     1.0000 0.07821  0.24830  0.00470  Biso   1.000  O
  O374     1.0000 0.00576  0.24830  0.94360  Biso   1.000  O
  O375     1.0000 0.04775  0.50300  0.77530  Biso   1.000  O
  O376     1.0000 0.13794  0.09780  0.88020  Biso   1.000  O
  O377     1.0000 0.02115  0.49590  0.67500  Biso   1.000  O
  O378     1.0000 0.16602  0.35970  0.82190  Biso   1.000  O
  O379     1.0000 0.07109  0.39940  0.91910  Biso   1.000  O
  O380     1.0000 0.18497  0.36210  0.67570  Biso   1.000  O
  O381     1.0000 0.93569  0.24270  0.03160  Biso   1.000  O
  O382     1.0000 0.11734  0.49540  0.68200  Biso   1.000  O
  O383     1.0000 0.18604  0.14710  0.83540  Biso   1.000  O
  O384     1.0000 0.02519  0.37160  0.80430  Biso   1.000  O
  O385     1.0000 0.13599  0.38330  0.54740  Biso   1.000  O
  O386     1.0000 0.95353  0.13310  0.16700  Biso   1.000  O
  O387     1.0000 0.00290  0.10850  0.04200  Biso   1.000  O
  O388     1.0000 0.23829  0.14290  0.13050  Biso   1.000  O
  O389     1.0000 0.21285  0.41240  0.89620  Biso   1.000  O
  O390     1.0000 0.14206  0.09220  0.05510  Biso   1.000  O
  O391     1.0000 0.09424  0.12890  0.15620  Biso   1.000  O
  O392     1.0000 0.21378  0.40580  0.07160  Biso   1.000  O
  Al45     1.0000 0.45709  0.73140  0.08770  Biso   1.000  Al
  Al46     1.0000 0.63782  0.98470  0.61960  Biso   1.000  Al
  Co45     1.0000 0.67556  0.75479  0.89527  Biso   1.000  Co
  Co46     1.0000 0.60140  0.73384  0.07219  Biso   1.000  Co
  P99      1.0000 0.67317  0.92200  0.74210  Biso   1.000  P
  P100     1.0000 0.71249  0.84468  0.98380  Biso   1.000  P
  P101     1.0000 0.56521  0.83520  0.99610  Biso   1.000  P
  P102     1.0000 0.60397  0.06900  0.72710  Biso   1.000  P
  P103     1.0000 0.53431  0.93348  0.73210  Biso   1.000  P
  P104     1.0000 0.63814  0.65510  0.97040  Biso   1.000  P
  P105     1.0000 0.49252  0.66820  0.96440  Biso   1.000  P
  O393     1.0000 0.65337  0.73420  0.97030  Biso   1.000  O
  O394     1.0000 0.58861  0.01390  0.77940  Biso   1.000  O
  O395     1.0000 0.61960  0.70250  0.97970  Biso   1.000  O
  O396     1.0000 0.47398  0.70700  0.00640  Biso   1.000  O
  O397     1.0000 0.65744  0.97430  0.69460  Biso   1.000  O
  O398     1.0000 0.69402  0.78490  0.98880  Biso   1.000  O
  O399     1.0000 0.72951  0.77950  0.97810  Biso   1.000  O
  O400     1.0000 0.54529  0.79340  0.97870  Biso   1.000  O
  O401     1.0000 0.57821  0.74830  0.00470  Biso   1.000  O
  O402     1.0000 0.50576  0.74830  0.94360  Biso   1.000  O
  O403     1.0000 0.54775  0.00300  0.77530  Biso   1.000  O
  O404     1.0000 0.63794  0.59780  0.88020  Biso   1.000  O
  O405     1.0000 0.52115  0.99590  0.67500  Biso   1.000  O
  O406     1.0000 0.66602  0.85970  0.82190  Biso   1.000  O
  O407     1.0000 0.57109  0.89940  0.91910  Biso   1.000  O
  O408     1.0000 0.68497  0.86210  0.67570  Biso   1.000  O
  O409     1.0000 0.43569  0.74270  0.03160  Biso   1.000  O
  O410     1.0000 0.61734  0.99540  0.68200  Biso   1.000  O
  O411     1.0000 0.68604  0.64710  0.83540  Biso   1.000  O
  O412     1.0000 0.52519  0.87160  0.80430  Biso   1.000  O
  O413     1.0000 0.63599  0.88330  0.54740  Biso   1.000  O
  O414     1.0000 0.45353  0.63310  0.16700  Biso   1.000  O
  O415     1.0000 0.50290  0.60850  0.04200  Biso   1.000  O
  O416     1.0000 0.73829  0.64290  0.13050  Biso   1.000  O
  O417     1.0000 0.71285  0.91240  0.89620  Biso   1.000  O
  O418     1.0000 0.64206  0.59220  0.05510  Biso   1.000  O
  O419     1.0000 0.59424  0.62890  0.15620  Biso   1.000  O
  O420     1.0000 0.71378  0.90580  0.07160  Biso   1.000  O
  Al47     1.0000 0.45709  0.23140  0.58770  Biso   1.000  Al
  Al48     1.0000 0.63782  0.48470  0.11960  Biso   1.000  Al
  Co47     1.0000 0.67556  0.25479  0.39527  Biso   1.000  Co
  Co48     1.0000 0.60140  0.23384  0.57219  Biso   1.000  Co
  P106     1.0000 0.67317  0.42200  0.24210  Biso   1.000  P
  P107     1.0000 0.71249  0.34468  0.48380  Biso   1.000  P
  P108     1.0000 0.56521  0.33520  0.49610  Biso   1.000  P
  P109     1.0000 0.60397  0.56900  0.22710  Biso   1.000  P
  P110     1.0000 0.53431  0.43348  0.23210  Biso   1.000  P
  P111     1.0000 0.63814  0.15510  0.47040  Biso   1.000  P
  P112     1.0000 0.49252  0.16820  0.46440  Biso   1.000  P
  O421     1.0000 0.65337  0.23420  0.47030  Biso   1.000  O
  O422     1.0000 0.58861  0.51390  0.27940  Biso   1.000  O
  O423     1.0000 0.61960  0.20250  0.47970  Biso   1.000  O
  O424     1.0000 0.47398  0.20700  0.50640  Biso   1.000  O
  O425     1.0000 0.65744  0.47430  0.19460  Biso   1.000  O
  O426     1.0000 0.69402  0.28490  0.48880  Biso   1.000  O
  O427     1.0000 0.72951  0.27950  0.47810  Biso   1.000  O
  O428     1.0000 0.54529  0.29340  0.47870  Biso   1.000  O
  O429     1.0000 0.57821  0.24830  0.50470  Biso   1.000  O
  O430     1.0000 0.50576  0.24830  0.44360  Biso   1.000  O
  O431     1.0000 0.54775  0.50300  0.27530  Biso   1.000  O
  O432     1.0000 0.63794  0.09780  0.38020  Biso   1.000  O
  O433     1.0000 0.52115  0.49590  0.17500  Biso   1.000  O
  O434     1.0000 0.66602  0.35970  0.32190  Biso   1.000  O
  O435     1.0000 0.57109  0.39940  0.41910  Biso   1.000  O
  O436     1.0000 0.68497  0.36210  0.17570  Biso   1.000  O
  O437     1.0000 0.43569  0.24270  0.53160  Biso   1.000  O
  O438     1.0000 0.61734  0.49540  0.18200  Biso   1.000  O
  O439     1.0000 0.68604  0.14710  0.33540  Biso   1.000  O
  O440     1.0000 0.52519  0.37160  0.30430  Biso   1.000  O
  O441     1.0000 0.63599  0.38330  0.04740  Biso   1.000  O
  O442     1.0000 0.45353  0.13310  0.66700  Biso   1.000  O
  O443     1.0000 0.50290  0.10850  0.54200  Biso   1.000  O
  O444     1.0000 0.73829  0.14290  0.63050  Biso   1.000  O
  O445     1.0000 0.71285  0.41240  0.39620  Biso   1.000  O
  O446     1.0000 0.64206  0.09220  0.55510  Biso   1.000  O
  O447     1.0000 0.59424  0.12890  0.65620  Biso   1.000  O
  O448     1.0000 0.71378  0.40580  0.57160  Biso   1.000  O
  Co49     1.0000 0.00000  0.50000  0.31404  Biso   1.000  Co
  Co50     1.0000 0.00000  0.00000  0.81404  Biso   1.000  Co
  Co51     1.0000 0.50000  0.50000  0.81404  Biso   1.000  Co
  Co52     1.0000 0.50000  0.00000  0.31404  Biso   1.000  Co
  Co53     1.0000 0.25000  0.75000  0.56404  Biso   1.000  Co
  Co54     1.0000 0.25000  0.25000  0.06404  Biso   1.000  Co
  Co55     1.0000 0.75000  0.75000  0.06404  Biso   1.000  Co
  Co56     1.0000 0.75000  0.25000  0.56404  Biso   1.000  Co
  Al49     1.0000 0.25000  0.75000  0.85910  Biso   1.000  Al
  Al50     1.0000 0.25000  0.25000  0.35910  Biso   1.000  Al
  Al51     1.0000 0.75000  0.25000  0.85910  Biso   1.000  Al
  Al52     1.0000 0.75000  0.75000  0.35910  Biso   1.000  Al
  Al53     1.0000 0.50000  0.50000  0.10910  Biso   1.000  Al
  Al54     1.0000 0.50000  0.00000  0.60910  Biso   1.000  Al
  Al55     1.0000 0.00000  0.00000  0.10910  Biso   1.000  Al
  Al56     1.0000 0.00000  0.50000  0.60910  Biso   1.000  Al
