data_image0
_cell_length_a       25.704
_cell_length_b       25.704
_cell_length_c       25.704
_cell_angle_alpha    90
_cell_angle_beta     90
_cell_angle_gamma    90

_symmetry_space_group_name_H-M    "P 1"
_symmetry_int_tables_number       1

loop_
  _symmetry_equiv_pos_as_xyz
  'x, y, z'

loop_
  _atom_site_label
  _atom_site_occupancy
  _atom_site_fract_x
  _atom_site_fract_y
  _atom_site_fract_z
  _atom_site_thermal_displace_type
  _atom_site_B_iso_or_equiv
  _atom_site_type_symbol
  N1       1.0000 0.19710  0.80350  0.39170  Biso   1.000  N
  C1       1.0000 0.23590  0.81230  0.42350  Biso   1.000  C
  H1       1.0000 0.27030  0.81480  0.41250  Biso   1.000  H
  N2       1.0000 0.22120  0.81750  0.47450  Biso   1.000  N
  C2       1.0000 0.15520  0.80300  0.42330  Biso   1.000  C
  H2       1.0000 0.12120  0.79990  0.41120  Biso   1.000  H
  C3       1.0000 0.16670  0.80700  0.47090  Biso   1.000  C
  H3       1.0000 0.14380  0.80370  0.49870  Biso   1.000  H
  C4       1.0000 0.25200  0.82540  0.52140  Biso   1.000  C
  C5       1.0000 0.31190  0.83980  0.60730  Biso   1.000  C
  C6       1.0000 0.33410  0.82740  0.56600  Biso   1.000  C
  H4       1.0000 0.37010  0.82400  0.56510  Biso   1.000  H
  C7       1.0000 0.22910  0.83420  0.56920  Biso   1.000  C
  H5       1.0000 0.19310  0.83410  0.57270  Biso   1.000  H
  C8       1.0000 0.25980  0.84280  0.61060  Biso   1.000  C
  H6       1.0000 0.24460  0.85110  0.64240  Biso   1.000  H
  C9       1.0000 0.30240  0.81790  0.51760  Biso   1.000  C
  H7       1.0000 0.31780  0.80720  0.48660  Biso   1.000  H
  N3       1.0000 0.30290  0.19650  0.89170  Biso   1.000  N
  C10      1.0000 0.26410  0.18770  0.92350  Biso   1.000  C
  H8       1.0000 0.22970  0.18520  0.91250  Biso   1.000  H
  N4       1.0000 0.27880  0.18250  0.97450  Biso   1.000  N
  C11      1.0000 0.34480  0.19700  0.92330  Biso   1.000  C
  H9       1.0000 0.37880  0.20010  0.91120  Biso   1.000  H
  C12      1.0000 0.33330  0.19300  0.97090  Biso   1.000  C
  H10      1.0000 0.35620  0.19630  0.99870  Biso   1.000  H
  C13      1.0000 0.24800  0.17460  0.02140  Biso   1.000  C
  C14      1.0000 0.18810  0.16020  0.10730  Biso   1.000  C
  C15      1.0000 0.16590  0.17260  0.06600  Biso   1.000  C
  H11      1.0000 0.12990  0.17600  0.06510  Biso   1.000  H
  C16      1.0000 0.27090  0.16580  0.06920  Biso   1.000  C
  H12      1.0000 0.30690  0.16590  0.07270  Biso   1.000  H
  C17      1.0000 0.24020  0.15720  0.11060  Biso   1.000  C
  H13      1.0000 0.25540  0.14890  0.14240  Biso   1.000  H
  C18      1.0000 0.19760  0.18210  0.01760  Biso   1.000  C
  H14      1.0000 0.18220  0.19280  0.98660  Biso   1.000  H
  N5       1.0000 0.80290  0.30350  0.10830  Biso   1.000  N
  C19      1.0000 0.76410  0.31230  0.07650  Biso   1.000  C
  H15      1.0000 0.72970  0.31480  0.08750  Biso   1.000  H
  N6       1.0000 0.77880  0.31750  0.02550  Biso   1.000  N
  C20      1.0000 0.84480  0.30300  0.07670  Biso   1.000  C
  H16      1.0000 0.87880  0.29990  0.08880  Biso   1.000  H
  C21      1.0000 0.83330  0.30700  0.02910  Biso   1.000  C
  H17      1.0000 0.85620  0.30370  0.00130  Biso   1.000  H
  C22      1.0000 0.74800  0.32540  0.97860  Biso   1.000  C
  C23      1.0000 0.68810  0.33980  0.89270  Biso   1.000  C
  C24      1.0000 0.66590  0.32740  0.93400  Biso   1.000  C
  H18      1.0000 0.62990  0.32400  0.93490  Biso   1.000  H
  C25      1.0000 0.77090  0.33420  0.93080  Biso   1.000  C
  H19      1.0000 0.80690  0.33410  0.92730  Biso   1.000  H
  C26      1.0000 0.74020  0.34280  0.88940  Biso   1.000  C
  H20      1.0000 0.75540  0.35110  0.85760  Biso   1.000  H
  C27      1.0000 0.69760  0.31790  0.98240  Biso   1.000  C
  H21      1.0000 0.68220  0.30720  0.01340  Biso   1.000  H
  N7       1.0000 0.69710  0.69650  0.60830  Biso   1.000  N
  C28      1.0000 0.73590  0.68770  0.57650  Biso   1.000  C
  H22      1.0000 0.77030  0.68520  0.58750  Biso   1.000  H
  N8       1.0000 0.72120  0.68250  0.52550  Biso   1.000  N
  C29      1.0000 0.65520  0.69700  0.57670  Biso   1.000  C
  H23      1.0000 0.62120  0.70010  0.58880  Biso   1.000  H
  C30      1.0000 0.66670  0.69300  0.52910  Biso   1.000  C
  H24      1.0000 0.64380  0.69630  0.50130  Biso   1.000  H
  C31      1.0000 0.75200  0.67460  0.47860  Biso   1.000  C
  C32      1.0000 0.81190  0.66020  0.39270  Biso   1.000  C
  C33      1.0000 0.83410  0.67260  0.43400  Biso   1.000  C
  H25      1.0000 0.87010  0.67600  0.43490  Biso   1.000  H
  C34      1.0000 0.72910  0.66580  0.43080  Biso   1.000  C
  H26      1.0000 0.69310  0.66590  0.42730  Biso   1.000  H
  C35      1.0000 0.75980  0.65720  0.38940  Biso   1.000  C
  H27      1.0000 0.74460  0.64890  0.35760  Biso   1.000  H
  C36      1.0000 0.80240  0.68210  0.48240  Biso   1.000  C
  H28      1.0000 0.81780  0.69280  0.51340  Biso   1.000  H
  N9       1.0000 0.39170  0.19710  0.80350  Biso   1.000  N
  C37      1.0000 0.42350  0.23590  0.81230  Biso   1.000  C
  H29      1.0000 0.41250  0.27030  0.81480  Biso   1.000  H
  N10      1.0000 0.47450  0.22120  0.81750  Biso   1.000  N
  C38      1.0000 0.42330  0.15520  0.80300  Biso   1.000  C
  H30      1.0000 0.41120  0.12120  0.79990  Biso   1.000  H
  C39      1.0000 0.47090  0.16670  0.80700  Biso   1.000  C
  H31      1.0000 0.49870  0.14380  0.80370  Biso   1.000  H
  C40      1.0000 0.52140  0.25200  0.82540  Biso   1.000  C
  C41      1.0000 0.60730  0.31190  0.83980  Biso   1.000  C
  C42      1.0000 0.56600  0.33410  0.82740  Biso   1.000  C
  H32      1.0000 0.56510  0.37010  0.82400  Biso   1.000  H
  C43      1.0000 0.56920  0.22910  0.83420  Biso   1.000  C
  H33      1.0000 0.57270  0.19310  0.83410  Biso   1.000  H
  C44      1.0000 0.61060  0.25980  0.84280  Biso   1.000  C
  H34      1.0000 0.64240  0.24460  0.85110  Biso   1.000  H
  C45      1.0000 0.51760  0.30240  0.81790  Biso   1.000  C
  H35      1.0000 0.48660  0.31780  0.80720  Biso   1.000  H
  N11      1.0000 0.89170  0.30290  0.19650  Biso   1.000  N
  C46      1.0000 0.92350  0.26410  0.18770  Biso   1.000  C
  H36      1.0000 0.91250  0.22970  0.18520  Biso   1.000  H
  N12      1.0000 0.97450  0.27880  0.18250  Biso   1.000  N
  C47      1.0000 0.92330  0.34480  0.19700  Biso   1.000  C
  H37      1.0000 0.91120  0.37880  0.20010  Biso   1.000  H
  C48      1.0000 0.97090  0.33330  0.19300  Biso   1.000  C
  H38      1.0000 0.99870  0.35620  0.19630  Biso   1.000  H
  C49      1.0000 0.02140  0.24800  0.17460  Biso   1.000  C
  C50      1.0000 0.10730  0.18810  0.16020  Biso   1.000  C
  C51      1.0000 0.06600  0.16590  0.17260  Biso   1.000  C
  H39      1.0000 0.06510  0.12990  0.17600  Biso   1.000  H
  C52      1.0000 0.06920  0.27090  0.16580  Biso   1.000  C
  H40      1.0000 0.07270  0.30690  0.16590  Biso   1.000  H
  C53      1.0000 0.11060  0.24020  0.15720  Biso   1.000  C
  H41      1.0000 0.14240  0.25540  0.14890  Biso   1.000  H
  C54      1.0000 0.01760  0.19760  0.18210  Biso   1.000  C
  H42      1.0000 0.98660  0.18220  0.19280  Biso   1.000  H
  N13      1.0000 0.10830  0.80290  0.30350  Biso   1.000  N
  C55      1.0000 0.07650  0.76410  0.31230  Biso   1.000  C
  H43      1.0000 0.08750  0.72970  0.31480  Biso   1.000  H
  N14      1.0000 0.02550  0.77880  0.31750  Biso   1.000  N
  C56      1.0000 0.07670  0.84480  0.30300  Biso   1.000  C
  H44      1.0000 0.08880  0.87880  0.29990  Biso   1.000  H
  C57      1.0000 0.02910  0.83330  0.30700  Biso   1.000  C
  H45      1.0000 0.00130  0.85620  0.30370  Biso   1.000  H
  C58      1.0000 0.97860  0.74800  0.32540  Biso   1.000  C
  C59      1.0000 0.89270  0.68810  0.33980  Biso   1.000  C
  C60      1.0000 0.93400  0.66590  0.32740  Biso   1.000  C
  H46      1.0000 0.93490  0.62990  0.32400  Biso   1.000  H
  C61      1.0000 0.93080  0.77090  0.33420  Biso   1.000  C
  H47      1.0000 0.92730  0.80690  0.33410  Biso   1.000  H
  C62      1.0000 0.88940  0.74020  0.34280  Biso   1.000  C
  H48      1.0000 0.85760  0.75540  0.35110  Biso   1.000  H
  C63      1.0000 0.98240  0.69760  0.31790  Biso   1.000  C
  H49      1.0000 0.01340  0.68220  0.30720  Biso   1.000  H
  N15      1.0000 0.60830  0.69710  0.69650  Biso   1.000  N
  C64      1.0000 0.57650  0.73590  0.68770  Biso   1.000  C
  H50      1.0000 0.58750  0.77030  0.68520  Biso   1.000  H
  N16      1.0000 0.52550  0.72120  0.68250  Biso   1.000  N
  C65      1.0000 0.57670  0.65520  0.69700  Biso   1.000  C
  H51      1.0000 0.58880  0.62120  0.70010  Biso   1.000  H
  C66      1.0000 0.52910  0.66670  0.69300  Biso   1.000  C
  H52      1.0000 0.50130  0.64380  0.69630  Biso   1.000  H
  C67      1.0000 0.47860  0.75200  0.67460  Biso   1.000  C
  C68      1.0000 0.39270  0.81190  0.66020  Biso   1.000  C
  C69      1.0000 0.43400  0.83410  0.67260  Biso   1.000  C
  H53      1.0000 0.43490  0.87010  0.67600  Biso   1.000  H
  C70      1.0000 0.43080  0.72910  0.66580  Biso   1.000  C
  H54      1.0000 0.42730  0.69310  0.66590  Biso   1.000  H
  C71      1.0000 0.38940  0.75980  0.65720  Biso   1.000  C
  H55      1.0000 0.35760  0.74460  0.64890  Biso   1.000  H
  C72      1.0000 0.48240  0.80240  0.68210  Biso   1.000  C
  H56      1.0000 0.51340  0.81780  0.69280  Biso   1.000  H
  N17      1.0000 0.80350  0.39170  0.19710  Biso   1.000  N
  C73      1.0000 0.81230  0.42350  0.23590  Biso   1.000  C
  H57      1.0000 0.81480  0.41250  0.27030  Biso   1.000  H
  N18      1.0000 0.81750  0.47450  0.22120  Biso   1.000  N
  C74      1.0000 0.80300  0.42330  0.15520  Biso   1.000  C
  H58      1.0000 0.79990  0.41120  0.12120  Biso   1.000  H
  C75      1.0000 0.80700  0.47090  0.16670  Biso   1.000  C
  H59      1.0000 0.80370  0.49870  0.14380  Biso   1.000  H
  C76      1.0000 0.82540  0.52140  0.25200  Biso   1.000  C
  C77      1.0000 0.83980  0.60730  0.31190  Biso   1.000  C
  C78      1.0000 0.82740  0.56600  0.33410  Biso   1.000  C
  H60      1.0000 0.82400  0.56510  0.37010  Biso   1.000  H
  C79      1.0000 0.83420  0.56920  0.22910  Biso   1.000  C
  H61      1.0000 0.83410  0.57270  0.19310  Biso   1.000  H
  C80      1.0000 0.84280  0.61060  0.25980  Biso   1.000  C
  H62      1.0000 0.85110  0.64240  0.24460  Biso   1.000  H
  C81      1.0000 0.81790  0.51760  0.30240  Biso   1.000  C
  H63      1.0000 0.80720  0.48660  0.31780  Biso   1.000  H
  N19      1.0000 0.19650  0.89170  0.30290  Biso   1.000  N
  C82      1.0000 0.18770  0.92350  0.26410  Biso   1.000  C
  H64      1.0000 0.18520  0.91250  0.22970  Biso   1.000  H
  N20      1.0000 0.18250  0.97450  0.27880  Biso   1.000  N
  C83      1.0000 0.19700  0.92330  0.34480  Biso   1.000  C
  H65      1.0000 0.20010  0.91120  0.37880  Biso   1.000  H
  C84      1.0000 0.19300  0.97090  0.33330  Biso   1.000  C
  H66      1.0000 0.19630  0.99870  0.35620  Biso   1.000  H
  C85      1.0000 0.17460  0.02140  0.24800  Biso   1.000  C
  C86      1.0000 0.16020  0.10730  0.18810  Biso   1.000  C
  C87      1.0000 0.17260  0.06600  0.16590  Biso   1.000  C
  H67      1.0000 0.17600  0.06510  0.12990  Biso   1.000  H
  C88      1.0000 0.16580  0.06920  0.27090  Biso   1.000  C
  H68      1.0000 0.16590  0.07270  0.30690  Biso   1.000  H
  C89      1.0000 0.15720  0.11060  0.24020  Biso   1.000  C
  H69      1.0000 0.14890  0.14240  0.25540  Biso   1.000  H
  C90      1.0000 0.18210  0.01760  0.19760  Biso   1.000  C
  H70      1.0000 0.19280  0.98660  0.18220  Biso   1.000  H
  N21      1.0000 0.30350  0.10830  0.80290  Biso   1.000  N
  C91      1.0000 0.31230  0.07650  0.76410  Biso   1.000  C
  H71      1.0000 0.31480  0.08750  0.72970  Biso   1.000  H
  N22      1.0000 0.31750  0.02550  0.77880  Biso   1.000  N
  C92      1.0000 0.30300  0.07670  0.84480  Biso   1.000  C
  H72      1.0000 0.29990  0.08880  0.87880  Biso   1.000  H
  C93      1.0000 0.30700  0.02910  0.83330  Biso   1.000  C
  H73      1.0000 0.30370  0.00130  0.85620  Biso   1.000  H
  C94      1.0000 0.32540  0.97860  0.74800  Biso   1.000  C
  C95      1.0000 0.33980  0.89270  0.68810  Biso   1.000  C
  C96      1.0000 0.32740  0.93400  0.66590  Biso   1.000  C
  H74      1.0000 0.32400  0.93490  0.62990  Biso   1.000  H
  C97      1.0000 0.33420  0.93080  0.77090  Biso   1.000  C
  H75      1.0000 0.33410  0.92730  0.80690  Biso   1.000  H
  C98      1.0000 0.34280  0.88940  0.74020  Biso   1.000  C
  H76      1.0000 0.35110  0.85760  0.75540  Biso   1.000  H
  C99      1.0000 0.31790  0.98240  0.69760  Biso   1.000  C
  H77      1.0000 0.30720  0.01340  0.68220  Biso   1.000  H
  N23      1.0000 0.69650  0.60830  0.69710  Biso   1.000  N
  C100     1.0000 0.68770  0.57650  0.73590  Biso   1.000  C
  H78      1.0000 0.68520  0.58750  0.77030  Biso   1.000  H
  N24      1.0000 0.68250  0.52550  0.72120  Biso   1.000  N
  C101     1.0000 0.69700  0.57670  0.65520  Biso   1.000  C
  H79      1.0000 0.70010  0.58880  0.62120  Biso   1.000  H
  C102     1.0000 0.69300  0.52910  0.66670  Biso   1.000  C
  H80      1.0000 0.69630  0.50130  0.64380  Biso   1.000  H
  C103     1.0000 0.67460  0.47860  0.75200  Biso   1.000  C
  C104     1.0000 0.66020  0.39270  0.81190  Biso   1.000  C
  C105     1.0000 0.67260  0.43400  0.83410  Biso   1.000  C
  H81      1.0000 0.67600  0.43490  0.87010  Biso   1.000  H
  C106     1.0000 0.66580  0.43080  0.72910  Biso   1.000  C
  H82      1.0000 0.66590  0.42730  0.69310  Biso   1.000  H
  C107     1.0000 0.65720  0.38940  0.75980  Biso   1.000  C
  H83      1.0000 0.64890  0.35760  0.74460  Biso   1.000  H
  C108     1.0000 0.68210  0.48240  0.80240  Biso   1.000  C
  H84      1.0000 0.69280  0.51340  0.81780  Biso   1.000  H
  Cd1      1.0000 0.19949  0.80051  0.30051  Biso   1.000  Cd
  Cd2      1.0000 0.30051  0.19949  0.80051  Biso   1.000  Cd
  Cd3      1.0000 0.69949  0.69949  0.69949  Biso   1.000  Cd
  Cd4      1.0000 0.80051  0.30051  0.19949  Biso   1.000  Cd
  N25      1.0000 0.34320  0.84320  0.65680  Biso   1.000  N
  N26      1.0000 0.65680  0.34320  0.84320  Biso   1.000  N
  N27      1.0000 0.84320  0.65680  0.34320  Biso   1.000  N
  N28      1.0000 0.15680  0.15680  0.15680  Biso   1.000  N
  N29      1.0000 0.19710  0.30350  0.89170  Biso   1.000  N
  C109     1.0000 0.23590  0.31230  0.92350  Biso   1.000  C
  H85      1.0000 0.27030  0.31480  0.91250  Biso   1.000  H
  N30      1.0000 0.22120  0.31750  0.97450  Biso   1.000  N
  C110     1.0000 0.15520  0.30300  0.92330  Biso   1.000  C
  H86      1.0000 0.12120  0.29990  0.91120  Biso   1.000  H
  C111     1.0000 0.16670  0.30700  0.97090  Biso   1.000  C
  H87      1.0000 0.14380  0.30370  0.99870  Biso   1.000  H
  C112     1.0000 0.25200  0.32540  0.02140  Biso   1.000  C
  C113     1.0000 0.31190  0.33980  0.10730  Biso   1.000  C
  C114     1.0000 0.33410  0.32740  0.06600  Biso   1.000  C
  H88      1.0000 0.37010  0.32400  0.06510  Biso   1.000  H
  C115     1.0000 0.22910  0.33420  0.06920  Biso   1.000  C
  H89      1.0000 0.19310  0.33410  0.07270  Biso   1.000  H
  C116     1.0000 0.25980  0.34280  0.11060  Biso   1.000  C
  H90      1.0000 0.24460  0.35110  0.14240  Biso   1.000  H
  C117     1.0000 0.30240  0.31790  0.01760  Biso   1.000  C
  H91      1.0000 0.31780  0.30720  0.98660  Biso   1.000  H
  N31      1.0000 0.30290  0.69650  0.39170  Biso   1.000  N
  C118     1.0000 0.26410  0.68770  0.42350  Biso   1.000  C
  H92      1.0000 0.22970  0.68520  0.41250  Biso   1.000  H
  N32      1.0000 0.27880  0.68250  0.47450  Biso   1.000  N
  C119     1.0000 0.34480  0.69700  0.42330  Biso   1.000  C
  H93      1.0000 0.37880  0.70010  0.41120  Biso   1.000  H
  C120     1.0000 0.33330  0.69300  0.47090  Biso   1.000  C
  H94      1.0000 0.35620  0.69630  0.49870  Biso   1.000  H
  C121     1.0000 0.24800  0.67460  0.52140  Biso   1.000  C
  C122     1.0000 0.18810  0.66020  0.60730  Biso   1.000  C
  C123     1.0000 0.16590  0.67260  0.56600  Biso   1.000  C
  H95      1.0000 0.12990  0.67600  0.56510  Biso   1.000  H
  C124     1.0000 0.27090  0.66580  0.56920  Biso   1.000  C
  H96      1.0000 0.30690  0.66590  0.57270  Biso   1.000  H
  C125     1.0000 0.24020  0.65720  0.61060  Biso   1.000  C
  H97      1.0000 0.25540  0.64890  0.64240  Biso   1.000  H
  C126     1.0000 0.19760  0.68210  0.51760  Biso   1.000  C
  H98      1.0000 0.18220  0.69280  0.48660  Biso   1.000  H
  N33      1.0000 0.80290  0.80350  0.60830  Biso   1.000  N
  C127     1.0000 0.76410  0.81230  0.57650  Biso   1.000  C
  H99      1.0000 0.72970  0.81480  0.58750  Biso   1.000  H
  N34      1.0000 0.77880  0.81750  0.52550  Biso   1.000  N
  C128     1.0000 0.84480  0.80300  0.57670  Biso   1.000  C
  H100     1.0000 0.87880  0.79990  0.58880  Biso   1.000  H
  C129     1.0000 0.83330  0.80700  0.52910  Biso   1.000  C
  H101     1.0000 0.85620  0.80370  0.50130  Biso   1.000  H
  C130     1.0000 0.74800  0.82540  0.47860  Biso   1.000  C
  C131     1.0000 0.68810  0.83980  0.39270  Biso   1.000  C
  C132     1.0000 0.66590  0.82740  0.43400  Biso   1.000  C
  H102     1.0000 0.62990  0.82400  0.43490  Biso   1.000  H
  C133     1.0000 0.77090  0.83420  0.43080  Biso   1.000  C
  H103     1.0000 0.80690  0.83410  0.42730  Biso   1.000  H
  C134     1.0000 0.74020  0.84280  0.38940  Biso   1.000  C
  H104     1.0000 0.75540  0.85110  0.35760  Biso   1.000  H
  C135     1.0000 0.69760  0.81790  0.48240  Biso   1.000  C
  H105     1.0000 0.68220  0.80720  0.51340  Biso   1.000  H
  N35      1.0000 0.69710  0.19650  0.10830  Biso   1.000  N
  C136     1.0000 0.73590  0.18770  0.07650  Biso   1.000  C
  H106     1.0000 0.77030  0.18520  0.08750  Biso   1.000  H
  N36      1.0000 0.72120  0.18250  0.02550  Biso   1.000  N
  C137     1.0000 0.65520  0.19700  0.07670  Biso   1.000  C
  H107     1.0000 0.62120  0.20010  0.08880  Biso   1.000  H
  C138     1.0000 0.66670  0.19300  0.02910  Biso   1.000  C
  H108     1.0000 0.64380  0.19630  0.00130  Biso   1.000  H
  C139     1.0000 0.75200  0.17460  0.97860  Biso   1.000  C
  C140     1.0000 0.81190  0.16020  0.89270  Biso   1.000  C
  C141     1.0000 0.83410  0.17260  0.93400  Biso   1.000  C
  H109     1.0000 0.87010  0.17600  0.93490  Biso   1.000  H
  C142     1.0000 0.72910  0.16580  0.93080  Biso   1.000  C
  H110     1.0000 0.69310  0.16590  0.92730  Biso   1.000  H
  C143     1.0000 0.75980  0.15720  0.88940  Biso   1.000  C
  H111     1.0000 0.74460  0.14890  0.85760  Biso   1.000  H
  C144     1.0000 0.80240  0.18210  0.98240  Biso   1.000  C
  H112     1.0000 0.81780  0.19280  0.01340  Biso   1.000  H
  N37      1.0000 0.39170  0.69710  0.30350  Biso   1.000  N
  C145     1.0000 0.42350  0.73590  0.31230  Biso   1.000  C
  H113     1.0000 0.41250  0.77030  0.31480  Biso   1.000  H
  N38      1.0000 0.47450  0.72120  0.31750  Biso   1.000  N
  C146     1.0000 0.42330  0.65520  0.30300  Biso   1.000  C
  H114     1.0000 0.41120  0.62120  0.29990  Biso   1.000  H
  C147     1.0000 0.47090  0.66670  0.30700  Biso   1.000  C
  H115     1.0000 0.49870  0.64380  0.30370  Biso   1.000  H
  C148     1.0000 0.52140  0.75200  0.32540  Biso   1.000  C
  C149     1.0000 0.60730  0.81190  0.33980  Biso   1.000  C
  C150     1.0000 0.56600  0.83410  0.32740  Biso   1.000  C
  H116     1.0000 0.56510  0.87010  0.32400  Biso   1.000  H
  C151     1.0000 0.56920  0.72910  0.33420  Biso   1.000  C
  H117     1.0000 0.57270  0.69310  0.33410  Biso   1.000  H
  C152     1.0000 0.61060  0.75980  0.34280  Biso   1.000  C
  H118     1.0000 0.64240  0.74460  0.35110  Biso   1.000  H
  C153     1.0000 0.51760  0.80240  0.31790  Biso   1.000  C
  H119     1.0000 0.48660  0.81780  0.30720  Biso   1.000  H
  N39      1.0000 0.89170  0.80290  0.69650  Biso   1.000  N
  C154     1.0000 0.92350  0.76410  0.68770  Biso   1.000  C
  H120     1.0000 0.91250  0.72970  0.68520  Biso   1.000  H
  N40      1.0000 0.97450  0.77880  0.68250  Biso   1.000  N
  C155     1.0000 0.92330  0.84480  0.69700  Biso   1.000  C
  H121     1.0000 0.91120  0.87880  0.70010  Biso   1.000  H
  C156     1.0000 0.97090  0.83330  0.69300  Biso   1.000  C
  H122     1.0000 0.99870  0.85620  0.69630  Biso   1.000  H
  C157     1.0000 0.02140  0.74800  0.67460  Biso   1.000  C
  C158     1.0000 0.10730  0.68810  0.66020  Biso   1.000  C
  C159     1.0000 0.06600  0.66590  0.67260  Biso   1.000  C
  H123     1.0000 0.06510  0.62990  0.67600  Biso   1.000  H
  C160     1.0000 0.06920  0.77090  0.66580  Biso   1.000  C
  H124     1.0000 0.07270  0.80690  0.66590  Biso   1.000  H
  C161     1.0000 0.11060  0.74020  0.65720  Biso   1.000  C
  H125     1.0000 0.14240  0.75540  0.64890  Biso   1.000  H
  C162     1.0000 0.01760  0.69760  0.68210  Biso   1.000  C
  H126     1.0000 0.98660  0.68220  0.69280  Biso   1.000  H
  N41      1.0000 0.10830  0.30290  0.80350  Biso   1.000  N
  C163     1.0000 0.07650  0.26410  0.81230  Biso   1.000  C
  H127     1.0000 0.08750  0.22970  0.81480  Biso   1.000  H
  N42      1.0000 0.02550  0.27880  0.81750  Biso   1.000  N
  C164     1.0000 0.07670  0.34480  0.80300  Biso   1.000  C
  H128     1.0000 0.08880  0.37880  0.79990  Biso   1.000  H
  C165     1.0000 0.02910  0.33330  0.80700  Biso   1.000  C
  H129     1.0000 0.00130  0.35620  0.80370  Biso   1.000  H
  C166     1.0000 0.97860  0.24800  0.82540  Biso   1.000  C
  C167     1.0000 0.89270  0.18810  0.83980  Biso   1.000  C
  C168     1.0000 0.93400  0.16590  0.82740  Biso   1.000  C
  H130     1.0000 0.93490  0.12990  0.82400  Biso   1.000  H
  C169     1.0000 0.93080  0.27090  0.83420  Biso   1.000  C
  H131     1.0000 0.92730  0.30690  0.83410  Biso   1.000  H
  C170     1.0000 0.88940  0.24020  0.84280  Biso   1.000  C
  H132     1.0000 0.85760  0.25540  0.85110  Biso   1.000  H
  C171     1.0000 0.98240  0.19760  0.81790  Biso   1.000  C
  H133     1.0000 0.01340  0.18220  0.80720  Biso   1.000  H
  N43      1.0000 0.60830  0.19710  0.19650  Biso   1.000  N
  C172     1.0000 0.57650  0.23590  0.18770  Biso   1.000  C
  H134     1.0000 0.58750  0.27030  0.18520  Biso   1.000  H
  N44      1.0000 0.52550  0.22120  0.18250  Biso   1.000  N
  C173     1.0000 0.57670  0.15520  0.19700  Biso   1.000  C
  H135     1.0000 0.58880  0.12120  0.20010  Biso   1.000  H
  C174     1.0000 0.52910  0.16670  0.19300  Biso   1.000  C
  H136     1.0000 0.50130  0.14380  0.19630  Biso   1.000  H
  C175     1.0000 0.47860  0.25200  0.17460  Biso   1.000  C
  C176     1.0000 0.39270  0.31190  0.16020  Biso   1.000  C
  C177     1.0000 0.43400  0.33410  0.17260  Biso   1.000  C
  H137     1.0000 0.43490  0.37010  0.17600  Biso   1.000  H
  C178     1.0000 0.43080  0.22910  0.16580  Biso   1.000  C
  H138     1.0000 0.42730  0.19310  0.16590  Biso   1.000  H
  C179     1.0000 0.38940  0.25980  0.15720  Biso   1.000  C
  H139     1.0000 0.35760  0.24460  0.14890  Biso   1.000  H
  C180     1.0000 0.48240  0.30240  0.18210  Biso   1.000  C
  H140     1.0000 0.51340  0.31780  0.19280  Biso   1.000  H
  N45      1.0000 0.80350  0.89170  0.69710  Biso   1.000  N
  C181     1.0000 0.81230  0.92350  0.73590  Biso   1.000  C
  H141     1.0000 0.81480  0.91250  0.77030  Biso   1.000  H
  N46      1.0000 0.81750  0.97450  0.72120  Biso   1.000  N
  C182     1.0000 0.80300  0.92330  0.65520  Biso   1.000  C
  H142     1.0000 0.79990  0.91120  0.62120  Biso   1.000  H
  C183     1.0000 0.80700  0.97090  0.66670  Biso   1.000  C
  H143     1.0000 0.80370  0.99870  0.64380  Biso   1.000  H
  C184     1.0000 0.82540  0.02140  0.75200  Biso   1.000  C
  C185     1.0000 0.83980  0.10730  0.81190  Biso   1.000  C
  C186     1.0000 0.82740  0.06600  0.83410  Biso   1.000  C
  H144     1.0000 0.82400  0.06510  0.87010  Biso   1.000  H
  C187     1.0000 0.83420  0.06920  0.72910  Biso   1.000  C
  H145     1.0000 0.83410  0.07270  0.69310  Biso   1.000  H
  C188     1.0000 0.84280  0.11060  0.75980  Biso   1.000  C
  H146     1.0000 0.85110  0.14240  0.74460  Biso   1.000  H
  C189     1.0000 0.81790  0.01760  0.80240  Biso   1.000  C
  H147     1.0000 0.80720  0.98660  0.81780  Biso   1.000  H
  N47      1.0000 0.19650  0.39170  0.80290  Biso   1.000  N
  C190     1.0000 0.18770  0.42350  0.76410  Biso   1.000  C
  H148     1.0000 0.18520  0.41250  0.72970  Biso   1.000  H
  N48      1.0000 0.18250  0.47450  0.77880  Biso   1.000  N
  C191     1.0000 0.19700  0.42330  0.84480  Biso   1.000  C
  H149     1.0000 0.20010  0.41120  0.87880  Biso   1.000  H
  C192     1.0000 0.19300  0.47090  0.83330  Biso   1.000  C
  H150     1.0000 0.19630  0.49870  0.85620  Biso   1.000  H
  C193     1.0000 0.17460  0.52140  0.74800  Biso   1.000  C
  C194     1.0000 0.16020  0.60730  0.68810  Biso   1.000  C
  C195     1.0000 0.17260  0.56600  0.66590  Biso   1.000  C
  H151     1.0000 0.17600  0.56510  0.62990  Biso   1.000  H
  C196     1.0000 0.16580  0.56920  0.77090  Biso   1.000  C
  H152     1.0000 0.16590  0.57270  0.80690  Biso   1.000  H
  C197     1.0000 0.15720  0.61060  0.74020  Biso   1.000  C
  H153     1.0000 0.14890  0.64240  0.75540  Biso   1.000  H
  C198     1.0000 0.18210  0.51760  0.69760  Biso   1.000  C
  H154     1.0000 0.19280  0.48660  0.68220  Biso   1.000  H
  N49      1.0000 0.30350  0.60830  0.30290  Biso   1.000  N
  C199     1.0000 0.31230  0.57650  0.26410  Biso   1.000  C
  H155     1.0000 0.31480  0.58750  0.22970  Biso   1.000  H
  N50      1.0000 0.31750  0.52550  0.27880  Biso   1.000  N
  C200     1.0000 0.30300  0.57670  0.34480  Biso   1.000  C
  H156     1.0000 0.29990  0.58880  0.37880  Biso   1.000  H
  C201     1.0000 0.30700  0.52910  0.33330  Biso   1.000  C
  H157     1.0000 0.30370  0.50130  0.35620  Biso   1.000  H
  C202     1.0000 0.32540  0.47860  0.24800  Biso   1.000  C
  C203     1.0000 0.33980  0.39270  0.18810  Biso   1.000  C
  C204     1.0000 0.32740  0.43400  0.16590  Biso   1.000  C
  H158     1.0000 0.32400  0.43490  0.12990  Biso   1.000  H
  C205     1.0000 0.33420  0.43080  0.27090  Biso   1.000  C
  H159     1.0000 0.33410  0.42730  0.30690  Biso   1.000  H
  C206     1.0000 0.34280  0.38940  0.24020  Biso   1.000  C
  H160     1.0000 0.35110  0.35760  0.25540  Biso   1.000  H
  C207     1.0000 0.31790  0.48240  0.19760  Biso   1.000  C
  H161     1.0000 0.30720  0.51340  0.18220  Biso   1.000  H
  N51      1.0000 0.69650  0.10830  0.19710  Biso   1.000  N
  C208     1.0000 0.68770  0.07650  0.23590  Biso   1.000  C
  H162     1.0000 0.68520  0.08750  0.27030  Biso   1.000  H
  N52      1.0000 0.68250  0.02550  0.22120  Biso   1.000  N
  C209     1.0000 0.69700  0.07670  0.15520  Biso   1.000  C
  H163     1.0000 0.70010  0.08880  0.12120  Biso   1.000  H
  C210     1.0000 0.69300  0.02910  0.16670  Biso   1.000  C
  H164     1.0000 0.69630  0.00130  0.14380  Biso   1.000  H
  C211     1.0000 0.67460  0.97860  0.25200  Biso   1.000  C
  C212     1.0000 0.66020  0.89270  0.31190  Biso   1.000  C
  C213     1.0000 0.67260  0.93400  0.33410  Biso   1.000  C
  H165     1.0000 0.67600  0.93490  0.37010  Biso   1.000  H
  C214     1.0000 0.66580  0.93080  0.22910  Biso   1.000  C
  H166     1.0000 0.66590  0.92730  0.19310  Biso   1.000  H
  C215     1.0000 0.65720  0.88940  0.25980  Biso   1.000  C
  H167     1.0000 0.64890  0.85760  0.24460  Biso   1.000  H
  C216     1.0000 0.68210  0.98240  0.30240  Biso   1.000  C
  H168     1.0000 0.69280  0.01340  0.31780  Biso   1.000  H
  Cd5      1.0000 0.80051  0.80051  0.69949  Biso   1.000  Cd
  Cd6      1.0000 0.30051  0.69949  0.30051  Biso   1.000  Cd
  Cd7      1.0000 0.69949  0.19949  0.19949  Biso   1.000  Cd
  Cd8      1.0000 0.19949  0.30051  0.80051  Biso   1.000  Cd
  N53      1.0000 0.65680  0.84320  0.34320  Biso   1.000  N
  N54      1.0000 0.34320  0.34320  0.15680  Biso   1.000  N
  N55      1.0000 0.84320  0.15680  0.84320  Biso   1.000  N
  N56      1.0000 0.15680  0.65680  0.65680  Biso   1.000  N
  N57      1.0000 0.69710  0.80350  0.89170  Biso   1.000  N
  C217     1.0000 0.73590  0.81230  0.92350  Biso   1.000  C
  H169     1.0000 0.77030  0.81480  0.91250  Biso   1.000  H
  N58      1.0000 0.72120  0.81750  0.97450  Biso   1.000  N
  C218     1.0000 0.65520  0.80300  0.92330  Biso   1.000  C
  H170     1.0000 0.62120  0.79990  0.91120  Biso   1.000  H
  C219     1.0000 0.66670  0.80700  0.97090  Biso   1.000  C
  H171     1.0000 0.64380  0.80370  0.99870  Biso   1.000  H
  C220     1.0000 0.75200  0.82540  0.02140  Biso   1.000  C
  C221     1.0000 0.81190  0.83980  0.10730  Biso   1.000  C
  C222     1.0000 0.83410  0.82740  0.06600  Biso   1.000  C
  H172     1.0000 0.87010  0.82400  0.06510  Biso   1.000  H
  C223     1.0000 0.72910  0.83420  0.06920  Biso   1.000  C
  H173     1.0000 0.69310  0.83410  0.07270  Biso   1.000  H
  C224     1.0000 0.75980  0.84280  0.11060  Biso   1.000  C
  H174     1.0000 0.74460  0.85110  0.14240  Biso   1.000  H
  C225     1.0000 0.80240  0.81790  0.01760  Biso   1.000  C
  H175     1.0000 0.81780  0.80720  0.98660  Biso   1.000  H
  N59      1.0000 0.80290  0.19650  0.39170  Biso   1.000  N
  C226     1.0000 0.76410  0.18770  0.42350  Biso   1.000  C
  H176     1.0000 0.72970  0.18520  0.41250  Biso   1.000  H
  N60      1.0000 0.77880  0.18250  0.47450  Biso   1.000  N
  C227     1.0000 0.84480  0.19700  0.42330  Biso   1.000  C
  H177     1.0000 0.87880  0.20010  0.41120  Biso   1.000  H
  C228     1.0000 0.83330  0.19300  0.47090  Biso   1.000  C
  H178     1.0000 0.85620  0.19630  0.49870  Biso   1.000  H
  C229     1.0000 0.74800  0.17460  0.52140  Biso   1.000  C
  C230     1.0000 0.68810  0.16020  0.60730  Biso   1.000  C
  C231     1.0000 0.66590  0.17260  0.56600  Biso   1.000  C
  H179     1.0000 0.62990  0.17600  0.56510  Biso   1.000  H
  C232     1.0000 0.77090  0.16580  0.56920  Biso   1.000  C
  H180     1.0000 0.80690  0.16590  0.57270  Biso   1.000  H
  C233     1.0000 0.74020  0.15720  0.61060  Biso   1.000  C
  H181     1.0000 0.75540  0.14890  0.64240  Biso   1.000  H
  C234     1.0000 0.69760  0.18210  0.51760  Biso   1.000  C
  H182     1.0000 0.68220  0.19280  0.48660  Biso   1.000  H
  N61      1.0000 0.30290  0.30350  0.60830  Biso   1.000  N
  C235     1.0000 0.26410  0.31230  0.57650  Biso   1.000  C
  H183     1.0000 0.22970  0.31480  0.58750  Biso   1.000  H
  N62      1.0000 0.27880  0.31750  0.52550  Biso   1.000  N
  C236     1.0000 0.34480  0.30300  0.57670  Biso   1.000  C
  H184     1.0000 0.37880  0.29990  0.58880  Biso   1.000  H
  C237     1.0000 0.33330  0.30700  0.52910  Biso   1.000  C
  H185     1.0000 0.35620  0.30370  0.50130  Biso   1.000  H
  C238     1.0000 0.24800  0.32540  0.47860  Biso   1.000  C
  C239     1.0000 0.18810  0.33980  0.39270  Biso   1.000  C
  C240     1.0000 0.16590  0.32740  0.43400  Biso   1.000  C
  H186     1.0000 0.12990  0.32400  0.43490  Biso   1.000  H
  C241     1.0000 0.27090  0.33420  0.43080  Biso   1.000  C
  H187     1.0000 0.30690  0.33410  0.42730  Biso   1.000  H
  C242     1.0000 0.24020  0.34280  0.38940  Biso   1.000  C
  H188     1.0000 0.25540  0.35110  0.35760  Biso   1.000  H
  C243     1.0000 0.19760  0.31790  0.48240  Biso   1.000  C
  H189     1.0000 0.18220  0.30720  0.51340  Biso   1.000  H
  N63      1.0000 0.19710  0.69650  0.10830  Biso   1.000  N
  C244     1.0000 0.23590  0.68770  0.07650  Biso   1.000  C
  H190     1.0000 0.27030  0.68520  0.08750  Biso   1.000  H
  N64      1.0000 0.22120  0.68250  0.02550  Biso   1.000  N
  C245     1.0000 0.15520  0.69700  0.07670  Biso   1.000  C
  H191     1.0000 0.12120  0.70010  0.08880  Biso   1.000  H
  C246     1.0000 0.16670  0.69300  0.02910  Biso   1.000  C
  H192     1.0000 0.14380  0.69630  0.00130  Biso   1.000  H
  C247     1.0000 0.25200  0.67460  0.97860  Biso   1.000  C
  C248     1.0000 0.31190  0.66020  0.89270  Biso   1.000  C
  C249     1.0000 0.33410  0.67260  0.93400  Biso   1.000  C
  H193     1.0000 0.37010  0.67600  0.93490  Biso   1.000  H
  C250     1.0000 0.22910  0.66580  0.93080  Biso   1.000  C
  H194     1.0000 0.19310  0.66590  0.92730  Biso   1.000  H
  C251     1.0000 0.25980  0.65720  0.88940  Biso   1.000  C
  H195     1.0000 0.24460  0.64890  0.85760  Biso   1.000  H
  C252     1.0000 0.30240  0.68210  0.98240  Biso   1.000  C
  H196     1.0000 0.31780  0.69280  0.01340  Biso   1.000  H
  N65      1.0000 0.89170  0.19710  0.30350  Biso   1.000  N
  C253     1.0000 0.92350  0.23590  0.31230  Biso   1.000  C
  H197     1.0000 0.91250  0.27030  0.31480  Biso   1.000  H
  N66      1.0000 0.97450  0.22120  0.31750  Biso   1.000  N
  C254     1.0000 0.92330  0.15520  0.30300  Biso   1.000  C
  H198     1.0000 0.91120  0.12120  0.29990  Biso   1.000  H
  C255     1.0000 0.97090  0.16670  0.30700  Biso   1.000  C
  H199     1.0000 0.99870  0.14380  0.30370  Biso   1.000  H
  C256     1.0000 0.02140  0.25200  0.32540  Biso   1.000  C
  C257     1.0000 0.10730  0.31190  0.33980  Biso   1.000  C
  C258     1.0000 0.06600  0.33410  0.32740  Biso   1.000  C
  H200     1.0000 0.06510  0.37010  0.32400  Biso   1.000  H
  C259     1.0000 0.06920  0.22910  0.33420  Biso   1.000  C
  H201     1.0000 0.07270  0.19310  0.33410  Biso   1.000  H
  C260     1.0000 0.11060  0.25980  0.34280  Biso   1.000  C
  H202     1.0000 0.14240  0.24460  0.35110  Biso   1.000  H
  C261     1.0000 0.01760  0.30240  0.31790  Biso   1.000  C
  H203     1.0000 0.98660  0.31780  0.30720  Biso   1.000  H
  N67      1.0000 0.39170  0.30290  0.69650  Biso   1.000  N
  C262     1.0000 0.42350  0.26410  0.68770  Biso   1.000  C
  H204     1.0000 0.41250  0.22970  0.68520  Biso   1.000  H
  N68      1.0000 0.47450  0.27880  0.68250  Biso   1.000  N
  C263     1.0000 0.42330  0.34480  0.69700  Biso   1.000  C
  H205     1.0000 0.41120  0.37880  0.70010  Biso   1.000  H
  C264     1.0000 0.47090  0.33330  0.69300  Biso   1.000  C
  H206     1.0000 0.49870  0.35620  0.69630  Biso   1.000  H
  C265     1.0000 0.52140  0.24800  0.67460  Biso   1.000  C
  C266     1.0000 0.60730  0.18810  0.66020  Biso   1.000  C
  C267     1.0000 0.56600  0.16590  0.67260  Biso   1.000  C
  H207     1.0000 0.56510  0.12990  0.67600  Biso   1.000  H
  C268     1.0000 0.56920  0.27090  0.66580  Biso   1.000  C
  H208     1.0000 0.57270  0.30690  0.66590  Biso   1.000  H
  C269     1.0000 0.61060  0.24020  0.65720  Biso   1.000  C
  H209     1.0000 0.64240  0.25540  0.64890  Biso   1.000  H
  C270     1.0000 0.51760  0.19760  0.68210  Biso   1.000  C
  H210     1.0000 0.48660  0.18220  0.69280  Biso   1.000  H
  N69      1.0000 0.60830  0.80290  0.80350  Biso   1.000  N
  C271     1.0000 0.57650  0.76410  0.81230  Biso   1.000  C
  H211     1.0000 0.58750  0.72970  0.81480  Biso   1.000  H
  N70      1.0000 0.52550  0.77880  0.81750  Biso   1.000  N
  C272     1.0000 0.57670  0.84480  0.80300  Biso   1.000  C
  H212     1.0000 0.58880  0.87880  0.79990  Biso   1.000  H
  C273     1.0000 0.52910  0.83330  0.80700  Biso   1.000  C
  H213     1.0000 0.50130  0.85620  0.80370  Biso   1.000  H
  C274     1.0000 0.47860  0.74800  0.82540  Biso   1.000  C
  C275     1.0000 0.39270  0.68810  0.83980  Biso   1.000  C
  C276     1.0000 0.43400  0.66590  0.82740  Biso   1.000  C
  H214     1.0000 0.43490  0.62990  0.82400  Biso   1.000  H
  C277     1.0000 0.43080  0.77090  0.83420  Biso   1.000  C
  H215     1.0000 0.42730  0.80690  0.83410  Biso   1.000  H
  C278     1.0000 0.38940  0.74020  0.84280  Biso   1.000  C
  H216     1.0000 0.35760  0.75540  0.85110  Biso   1.000  H
  C279     1.0000 0.48240  0.69760  0.81790  Biso   1.000  C
  H217     1.0000 0.51340  0.68220  0.80720  Biso   1.000  H
  N71      1.0000 0.10830  0.69710  0.19650  Biso   1.000  N
  C280     1.0000 0.07650  0.73590  0.18770  Biso   1.000  C
  H218     1.0000 0.08750  0.77030  0.18520  Biso   1.000  H
  N72      1.0000 0.02550  0.72120  0.18250  Biso   1.000  N
  C281     1.0000 0.07670  0.65520  0.19700  Biso   1.000  C
  H219     1.0000 0.08880  0.62120  0.20010  Biso   1.000  H
  C282     1.0000 0.02910  0.66670  0.19300  Biso   1.000  C
  H220     1.0000 0.00130  0.64380  0.19630  Biso   1.000  H
  C283     1.0000 0.97860  0.75200  0.17460  Biso   1.000  C
  C284     1.0000 0.89270  0.81190  0.16020  Biso   1.000  C
  C285     1.0000 0.93400  0.83410  0.17260  Biso   1.000  C
  H221     1.0000 0.93490  0.87010  0.17600  Biso   1.000  H
  C286     1.0000 0.93080  0.72910  0.16580  Biso   1.000  C
  H222     1.0000 0.92730  0.69310  0.16590  Biso   1.000  H
  C287     1.0000 0.88940  0.75980  0.15720  Biso   1.000  C
  H223     1.0000 0.85760  0.74460  0.14890  Biso   1.000  H
  C288     1.0000 0.98240  0.80240  0.18210  Biso   1.000  C
  H224     1.0000 0.01340  0.81780  0.19280  Biso   1.000  H
  N73      1.0000 0.30350  0.39170  0.69710  Biso   1.000  N
  C289     1.0000 0.31230  0.42350  0.73590  Biso   1.000  C
  H225     1.0000 0.31480  0.41250  0.77030  Biso   1.000  H
  N74      1.0000 0.31750  0.47450  0.72120  Biso   1.000  N
  C290     1.0000 0.30300  0.42330  0.65520  Biso   1.000  C
  H226     1.0000 0.29990  0.41120  0.62120  Biso   1.000  H
  C291     1.0000 0.30700  0.47090  0.66670  Biso   1.000  C
  H227     1.0000 0.30370  0.49870  0.64380  Biso   1.000  H
  C292     1.0000 0.32540  0.52140  0.75200  Biso   1.000  C
  C293     1.0000 0.33980  0.60730  0.81190  Biso   1.000  C
  C294     1.0000 0.32740  0.56600  0.83410  Biso   1.000  C
  H228     1.0000 0.32400  0.56510  0.87010  Biso   1.000  H
  C295     1.0000 0.33420  0.56920  0.72910  Biso   1.000  C
  H229     1.0000 0.33410  0.57270  0.69310  Biso   1.000  H
  C296     1.0000 0.34280  0.61060  0.75980  Biso   1.000  C
  H230     1.0000 0.35110  0.64240  0.74460  Biso   1.000  H
  C297     1.0000 0.31790  0.51760  0.80240  Biso   1.000  C
  H231     1.0000 0.30720  0.48660  0.81780  Biso   1.000  H
  N75      1.0000 0.69650  0.89170  0.80290  Biso   1.000  N
  C298     1.0000 0.68770  0.92350  0.76410  Biso   1.000  C
  H232     1.0000 0.68520  0.91250  0.72970  Biso   1.000  H
  N76      1.0000 0.68250  0.97450  0.77880  Biso   1.000  N
  C299     1.0000 0.69700  0.92330  0.84480  Biso   1.000  C
  H233     1.0000 0.70010  0.91120  0.87880  Biso   1.000  H
  C300     1.0000 0.69300  0.97090  0.83330  Biso   1.000  C
  H234     1.0000 0.69630  0.99870  0.85620  Biso   1.000  H
  C301     1.0000 0.67460  0.02140  0.74800  Biso   1.000  C
  C302     1.0000 0.66020  0.10730  0.68810  Biso   1.000  C
  C303     1.0000 0.67260  0.06600  0.66590  Biso   1.000  C
  H235     1.0000 0.67600  0.06510  0.62990  Biso   1.000  H
  C304     1.0000 0.66580  0.06920  0.77090  Biso   1.000  C
  H236     1.0000 0.66590  0.07270  0.80690  Biso   1.000  H
  C305     1.0000 0.65720  0.11060  0.74020  Biso   1.000  C
  H237     1.0000 0.64890  0.14240  0.75540  Biso   1.000  H
  C306     1.0000 0.68210  0.01760  0.69760  Biso   1.000  C
  H238     1.0000 0.69280  0.98660  0.68220  Biso   1.000  H
  N77      1.0000 0.80350  0.10830  0.30290  Biso   1.000  N
  C307     1.0000 0.81230  0.07650  0.26410  Biso   1.000  C
  H239     1.0000 0.81480  0.08750  0.22970  Biso   1.000  H
  N78      1.0000 0.81750  0.02550  0.27880  Biso   1.000  N
  C308     1.0000 0.80300  0.07670  0.34480  Biso   1.000  C
  H240     1.0000 0.79990  0.08880  0.37880  Biso   1.000  H
  C309     1.0000 0.80700  0.02910  0.33330  Biso   1.000  C
  H241     1.0000 0.80370  0.00130  0.35620  Biso   1.000  H
  C310     1.0000 0.82540  0.97860  0.24800  Biso   1.000  C
  C311     1.0000 0.83980  0.89270  0.18810  Biso   1.000  C
  C312     1.0000 0.82740  0.93400  0.16590  Biso   1.000  C
  H242     1.0000 0.82400  0.93490  0.12990  Biso   1.000  H
  C313     1.0000 0.83420  0.93080  0.27090  Biso   1.000  C
  H243     1.0000 0.83410  0.92730  0.30690  Biso   1.000  H
  C314     1.0000 0.84280  0.88940  0.24020  Biso   1.000  C
  H244     1.0000 0.85110  0.85760  0.25540  Biso   1.000  H
  C315     1.0000 0.81790  0.98240  0.19760  Biso   1.000  C
  H245     1.0000 0.80720  0.01340  0.18220  Biso   1.000  H
  N79      1.0000 0.19650  0.60830  0.19710  Biso   1.000  N
  C316     1.0000 0.18770  0.57650  0.23590  Biso   1.000  C
  H246     1.0000 0.18520  0.58750  0.27030  Biso   1.000  H
  N80      1.0000 0.18250  0.52550  0.22120  Biso   1.000  N
  C317     1.0000 0.19700  0.57670  0.15520  Biso   1.000  C
  H247     1.0000 0.20010  0.58880  0.12120  Biso   1.000  H
  C318     1.0000 0.19300  0.52910  0.16670  Biso   1.000  C
  H248     1.0000 0.19630  0.50130  0.14380  Biso   1.000  H
  C319     1.0000 0.17460  0.47860  0.25200  Biso   1.000  C
  C320     1.0000 0.16020  0.39270  0.31190  Biso   1.000  C
  C321     1.0000 0.17260  0.43400  0.33410  Biso   1.000  C
  H249     1.0000 0.17600  0.43490  0.37010  Biso   1.000  H
  C322     1.0000 0.16580  0.43080  0.22910  Biso   1.000  C
  H250     1.0000 0.16590  0.42730  0.19310  Biso   1.000  H
  C323     1.0000 0.15720  0.38940  0.25980  Biso   1.000  C
  H251     1.0000 0.14890  0.35760  0.24460  Biso   1.000  H
  C324     1.0000 0.18210  0.48240  0.30240  Biso   1.000  C
  H252     1.0000 0.19280  0.51340  0.31780  Biso   1.000  H
  Cd9      1.0000 0.80051  0.19949  0.30051  Biso   1.000  Cd
  Cd10     1.0000 0.30051  0.30051  0.69949  Biso   1.000  Cd
  Cd11     1.0000 0.69949  0.80051  0.80051  Biso   1.000  Cd
  Cd12     1.0000 0.19949  0.69949  0.19949  Biso   1.000  Cd
  N81      1.0000 0.65680  0.15680  0.65680  Biso   1.000  N
  N82      1.0000 0.34320  0.65680  0.84320  Biso   1.000  N
  N83      1.0000 0.84320  0.84320  0.15680  Biso   1.000  N
  N84      1.0000 0.15680  0.34320  0.34320  Biso   1.000  N
  N85      1.0000 0.69710  0.30350  0.39170  Biso   1.000  N
  C325     1.0000 0.73590  0.31230  0.42350  Biso   1.000  C
  H253     1.0000 0.77030  0.31480  0.41250  Biso   1.000  H
  N86      1.0000 0.72120  0.31750  0.47450  Biso   1.000  N
  C326     1.0000 0.65520  0.30300  0.42330  Biso   1.000  C
  H254     1.0000 0.62120  0.29990  0.41120  Biso   1.000  H
  C327     1.0000 0.66670  0.30700  0.47090  Biso   1.000  C
  H255     1.0000 0.64380  0.30370  0.49870  Biso   1.000  H
  C328     1.0000 0.75200  0.32540  0.52140  Biso   1.000  C
  C329     1.0000 0.81190  0.33980  0.60730  Biso   1.000  C
  C330     1.0000 0.83410  0.32740  0.56600  Biso   1.000  C
  H256     1.0000 0.87010  0.32400  0.56510  Biso   1.000  H
  C331     1.0000 0.72910  0.33420  0.56920  Biso   1.000  C
  H257     1.0000 0.69310  0.33410  0.57270  Biso   1.000  H
  C332     1.0000 0.75980  0.34280  0.61060  Biso   1.000  C
  H258     1.0000 0.74460  0.35110  0.64240  Biso   1.000  H
  C333     1.0000 0.80240  0.31790  0.51760  Biso   1.000  C
  H259     1.0000 0.81780  0.30720  0.48660  Biso   1.000  H
  N87      1.0000 0.80290  0.69650  0.89170  Biso   1.000  N
  C334     1.0000 0.76410  0.68770  0.92350  Biso   1.000  C
  H260     1.0000 0.72970  0.68520  0.91250  Biso   1.000  H
  N88      1.0000 0.77880  0.68250  0.97450  Biso   1.000  N
  C335     1.0000 0.84480  0.69700  0.92330  Biso   1.000  C
  H261     1.0000 0.87880  0.70010  0.91120  Biso   1.000  H
  C336     1.0000 0.83330  0.69300  0.97090  Biso   1.000  C
  H262     1.0000 0.85620  0.69630  0.99870  Biso   1.000  H
  C337     1.0000 0.74800  0.67460  0.02140  Biso   1.000  C
  C338     1.0000 0.68810  0.66020  0.10730  Biso   1.000  C
  C339     1.0000 0.66590  0.67260  0.06600  Biso   1.000  C
  H263     1.0000 0.62990  0.67600  0.06510  Biso   1.000  H
  C340     1.0000 0.77090  0.66580  0.06920  Biso   1.000  C
  H264     1.0000 0.80690  0.66590  0.07270  Biso   1.000  H
  C341     1.0000 0.74020  0.65720  0.11060  Biso   1.000  C
  H265     1.0000 0.75540  0.64890  0.14240  Biso   1.000  H
  C342     1.0000 0.69760  0.68210  0.01760  Biso   1.000  C
  H266     1.0000 0.68220  0.69280  0.98660  Biso   1.000  H
  N89      1.0000 0.30290  0.80350  0.10830  Biso   1.000  N
  C343     1.0000 0.26410  0.81230  0.07650  Biso   1.000  C
  H267     1.0000 0.22970  0.81480  0.08750  Biso   1.000  H
  N90      1.0000 0.27880  0.81750  0.02550  Biso   1.000  N
  C344     1.0000 0.34480  0.80300  0.07670  Biso   1.000  C
  H268     1.0000 0.37880  0.79990  0.08880  Biso   1.000  H
  C345     1.0000 0.33330  0.80700  0.02910  Biso   1.000  C
  H269     1.0000 0.35620  0.80370  0.00130  Biso   1.000  H
  C346     1.0000 0.24800  0.82540  0.97860  Biso   1.000  C
  C347     1.0000 0.18810  0.83980  0.89270  Biso   1.000  C
  C348     1.0000 0.16590  0.82740  0.93400  Biso   1.000  C
  H270     1.0000 0.12990  0.82400  0.93490  Biso   1.000  H
  C349     1.0000 0.27090  0.83420  0.93080  Biso   1.000  C
  H271     1.0000 0.30690  0.83410  0.92730  Biso   1.000  H
  C350     1.0000 0.24020  0.84280  0.88940  Biso   1.000  C
  H272     1.0000 0.25540  0.85110  0.85760  Biso   1.000  H
  C351     1.0000 0.19760  0.81790  0.98240  Biso   1.000  C
  H273     1.0000 0.18220  0.80720  0.01340  Biso   1.000  H
  N91      1.0000 0.19710  0.19650  0.60830  Biso   1.000  N
  C352     1.0000 0.23590  0.18770  0.57650  Biso   1.000  C
  H274     1.0000 0.27030  0.18520  0.58750  Biso   1.000  H
  N92      1.0000 0.22120  0.18250  0.52550  Biso   1.000  N
  C353     1.0000 0.15520  0.19700  0.57670  Biso   1.000  C
  H275     1.0000 0.12120  0.20010  0.58880  Biso   1.000  H
  C354     1.0000 0.16670  0.19300  0.52910  Biso   1.000  C
  H276     1.0000 0.14380  0.19630  0.50130  Biso   1.000  H
  C355     1.0000 0.25200  0.17460  0.47860  Biso   1.000  C
  C356     1.0000 0.31190  0.16020  0.39270  Biso   1.000  C
  C357     1.0000 0.33410  0.17260  0.43400  Biso   1.000  C
  H277     1.0000 0.37010  0.17600  0.43490  Biso   1.000  H
  C358     1.0000 0.22910  0.16580  0.43080  Biso   1.000  C
  H278     1.0000 0.19310  0.16590  0.42730  Biso   1.000  H
  C359     1.0000 0.25980  0.15720  0.38940  Biso   1.000  C
  H279     1.0000 0.24460  0.14890  0.35760  Biso   1.000  H
  C360     1.0000 0.30240  0.18210  0.48240  Biso   1.000  C
  H280     1.0000 0.31780  0.19280  0.51340  Biso   1.000  H
  N93      1.0000 0.89170  0.69710  0.80350  Biso   1.000  N
  C361     1.0000 0.92350  0.73590  0.81230  Biso   1.000  C
  H281     1.0000 0.91250  0.77030  0.81480  Biso   1.000  H
  N94      1.0000 0.97450  0.72120  0.81750  Biso   1.000  N
  C362     1.0000 0.92330  0.65520  0.80300  Biso   1.000  C
  H282     1.0000 0.91120  0.62120  0.79990  Biso   1.000  H
  C363     1.0000 0.97090  0.66670  0.80700  Biso   1.000  C
  H283     1.0000 0.99870  0.64380  0.80370  Biso   1.000  H
  C364     1.0000 0.02140  0.75200  0.82540  Biso   1.000  C
  C365     1.0000 0.10730  0.81190  0.83980  Biso   1.000  C
  C366     1.0000 0.06600  0.83410  0.82740  Biso   1.000  C
  H284     1.0000 0.06510  0.87010  0.82400  Biso   1.000  H
  C367     1.0000 0.06920  0.72910  0.83420  Biso   1.000  C
  H285     1.0000 0.07270  0.69310  0.83410  Biso   1.000  H
  C368     1.0000 0.11060  0.75980  0.84280  Biso   1.000  C
  H286     1.0000 0.14240  0.74460  0.85110  Biso   1.000  H
  C369     1.0000 0.01760  0.80240  0.81790  Biso   1.000  C
  H287     1.0000 0.98660  0.81780  0.80720  Biso   1.000  H
  N95      1.0000 0.39170  0.80290  0.19650  Biso   1.000  N
  C370     1.0000 0.42350  0.76410  0.18770  Biso   1.000  C
  H288     1.0000 0.41250  0.72970  0.18520  Biso   1.000  H
  N96      1.0000 0.47450  0.77880  0.18250  Biso   1.000  N
  C371     1.0000 0.42330  0.84480  0.19700  Biso   1.000  C
  H289     1.0000 0.41120  0.87880  0.20010  Biso   1.000  H
  C372     1.0000 0.47090  0.83330  0.19300  Biso   1.000  C
  H290     1.0000 0.49870  0.85620  0.19630  Biso   1.000  H
  C373     1.0000 0.52140  0.74800  0.17460  Biso   1.000  C
  C374     1.0000 0.60730  0.68810  0.16020  Biso   1.000  C
  C375     1.0000 0.56600  0.66590  0.17260  Biso   1.000  C
  H291     1.0000 0.56510  0.62990  0.17600  Biso   1.000  H
  C376     1.0000 0.56920  0.77090  0.16580  Biso   1.000  C
  H292     1.0000 0.57270  0.80690  0.16590  Biso   1.000  H
  C377     1.0000 0.61060  0.74020  0.15720  Biso   1.000  C
  H293     1.0000 0.64240  0.75540  0.14890  Biso   1.000  H
  C378     1.0000 0.51760  0.69760  0.18210  Biso   1.000  C
  H294     1.0000 0.48660  0.68220  0.19280  Biso   1.000  H
  N97      1.0000 0.60830  0.30290  0.30350  Biso   1.000  N
  C379     1.0000 0.57650  0.26410  0.31230  Biso   1.000  C
  H295     1.0000 0.58750  0.22970  0.31480  Biso   1.000  H
  N98      1.0000 0.52550  0.27880  0.31750  Biso   1.000  N
  C380     1.0000 0.57670  0.34480  0.30300  Biso   1.000  C
  H296     1.0000 0.58880  0.37880  0.29990  Biso   1.000  H
  C381     1.0000 0.52910  0.33330  0.30700  Biso   1.000  C
  H297     1.0000 0.50130  0.35620  0.30370  Biso   1.000  H
  C382     1.0000 0.47860  0.24800  0.32540  Biso   1.000  C
  C383     1.0000 0.39270  0.18810  0.33980  Biso   1.000  C
  C384     1.0000 0.43400  0.16590  0.32740  Biso   1.000  C
  H298     1.0000 0.43490  0.12990  0.32400  Biso   1.000  H
  C385     1.0000 0.43080  0.27090  0.33420  Biso   1.000  C
  H299     1.0000 0.42730  0.30690  0.33410  Biso   1.000  H
  C386     1.0000 0.38940  0.24020  0.34280  Biso   1.000  C
  H300     1.0000 0.35760  0.25540  0.35110  Biso   1.000  H
  C387     1.0000 0.48240  0.19760  0.31790  Biso   1.000  C
  H301     1.0000 0.51340  0.18220  0.30720  Biso   1.000  H
  N99      1.0000 0.10830  0.19710  0.69650  Biso   1.000  N
  C388     1.0000 0.07650  0.23590  0.68770  Biso   1.000  C
  H302     1.0000 0.08750  0.27030  0.68520  Biso   1.000  H
  N100     1.0000 0.02550  0.22120  0.68250  Biso   1.000  N
  C389     1.0000 0.07670  0.15520  0.69700  Biso   1.000  C
  H303     1.0000 0.08880  0.12120  0.70010  Biso   1.000  H
  C390     1.0000 0.02910  0.16670  0.69300  Biso   1.000  C
  H304     1.0000 0.00130  0.14380  0.69630  Biso   1.000  H
  C391     1.0000 0.97860  0.25200  0.67460  Biso   1.000  C
  C392     1.0000 0.89270  0.31190  0.66020  Biso   1.000  C
  C393     1.0000 0.93400  0.33410  0.67260  Biso   1.000  C
  H305     1.0000 0.93490  0.37010  0.67600  Biso   1.000  H
  C394     1.0000 0.93080  0.22910  0.66580  Biso   1.000  C
  H306     1.0000 0.92730  0.19310  0.66590  Biso   1.000  H
  C395     1.0000 0.88940  0.25980  0.65720  Biso   1.000  C
  H307     1.0000 0.85760  0.24460  0.64890  Biso   1.000  H
  C396     1.0000 0.98240  0.30240  0.68210  Biso   1.000  C
  H308     1.0000 0.01340  0.31780  0.69280  Biso   1.000  H
  N101     1.0000 0.30350  0.89170  0.19710  Biso   1.000  N
  C397     1.0000 0.31230  0.92350  0.23590  Biso   1.000  C
  H309     1.0000 0.31480  0.91250  0.27030  Biso   1.000  H
  N102     1.0000 0.31750  0.97450  0.22120  Biso   1.000  N
  C398     1.0000 0.30300  0.92330  0.15520  Biso   1.000  C
  H310     1.0000 0.29990  0.91120  0.12120  Biso   1.000  H
  C399     1.0000 0.30700  0.97090  0.16670  Biso   1.000  C
  H311     1.0000 0.30370  0.99870  0.14380  Biso   1.000  H
  C400     1.0000 0.32540  0.02140  0.25200  Biso   1.000  C
  C401     1.0000 0.33980  0.10730  0.31190  Biso   1.000  C
  C402     1.0000 0.32740  0.06600  0.33410  Biso   1.000  C
  H312     1.0000 0.32400  0.06510  0.37010  Biso   1.000  H
  C403     1.0000 0.33420  0.06920  0.22910  Biso   1.000  C
  H313     1.0000 0.33410  0.07270  0.19310  Biso   1.000  H
  C404     1.0000 0.34280  0.11060  0.25980  Biso   1.000  C
  H314     1.0000 0.35110  0.14240  0.24460  Biso   1.000  H
  C405     1.0000 0.31790  0.01760  0.30240  Biso   1.000  C
  H315     1.0000 0.30720  0.98660  0.31780  Biso   1.000  H
  N103     1.0000 0.69650  0.39170  0.30290  Biso   1.000  N
  C406     1.0000 0.68770  0.42350  0.26410  Biso   1.000  C
  H316     1.0000 0.68520  0.41250  0.22970  Biso   1.000  H
  N104     1.0000 0.68250  0.47450  0.27880  Biso   1.000  N
  C407     1.0000 0.69700  0.42330  0.34480  Biso   1.000  C
  H317     1.0000 0.70010  0.41120  0.37880  Biso   1.000  H
  C408     1.0000 0.69300  0.47090  0.33330  Biso   1.000  C
  H318     1.0000 0.69630  0.49870  0.35620  Biso   1.000  H
  C409     1.0000 0.67460  0.52140  0.24800  Biso   1.000  C
  C410     1.0000 0.66020  0.60730  0.18810  Biso   1.000  C
  C411     1.0000 0.67260  0.56600  0.16590  Biso   1.000  C
  H319     1.0000 0.67600  0.56510  0.12990  Biso   1.000  H
  C412     1.0000 0.66580  0.56920  0.27090  Biso   1.000  C
  H320     1.0000 0.66590  0.57270  0.30690  Biso   1.000  H
  C413     1.0000 0.65720  0.61060  0.24020  Biso   1.000  C
  H321     1.0000 0.64890  0.64240  0.25540  Biso   1.000  H
  C414     1.0000 0.68210  0.51760  0.19760  Biso   1.000  C
  H322     1.0000 0.69280  0.48660  0.18220  Biso   1.000  H
  N105     1.0000 0.80350  0.60830  0.80290  Biso   1.000  N
  C415     1.0000 0.81230  0.57650  0.76410  Biso   1.000  C
  H323     1.0000 0.81480  0.58750  0.72970  Biso   1.000  H
  N106     1.0000 0.81750  0.52550  0.77880  Biso   1.000  N
  C416     1.0000 0.80300  0.57670  0.84480  Biso   1.000  C
  H324     1.0000 0.79990  0.58880  0.87880  Biso   1.000  H
  C417     1.0000 0.80700  0.52910  0.83330  Biso   1.000  C
  H325     1.0000 0.80370  0.50130  0.85620  Biso   1.000  H
  C418     1.0000 0.82540  0.47860  0.74800  Biso   1.000  C
  C419     1.0000 0.83980  0.39270  0.68810  Biso   1.000  C
  C420     1.0000 0.82740  0.43400  0.66590  Biso   1.000  C
  H326     1.0000 0.82400  0.43490  0.62990  Biso   1.000  H
  C421     1.0000 0.83420  0.43080  0.77090  Biso   1.000  C
  H327     1.0000 0.83410  0.42730  0.80690  Biso   1.000  H
  C422     1.0000 0.84280  0.38940  0.74020  Biso   1.000  C
  H328     1.0000 0.85110  0.35760  0.75540  Biso   1.000  H
  C423     1.0000 0.81790  0.48240  0.69760  Biso   1.000  C
  H329     1.0000 0.80720  0.51340  0.68220  Biso   1.000  H
  N107     1.0000 0.19650  0.10830  0.69710  Biso   1.000  N
  C424     1.0000 0.18770  0.07650  0.73590  Biso   1.000  C
  H330     1.0000 0.18520  0.08750  0.77030  Biso   1.000  H
  N108     1.0000 0.18250  0.02550  0.72120  Biso   1.000  N
  C425     1.0000 0.19700  0.07670  0.65520  Biso   1.000  C
  H331     1.0000 0.20010  0.08880  0.62120  Biso   1.000  H
  C426     1.0000 0.19300  0.02910  0.66670  Biso   1.000  C
  H332     1.0000 0.19630  0.00130  0.64380  Biso   1.000  H
  C427     1.0000 0.17460  0.97860  0.75200  Biso   1.000  C
  C428     1.0000 0.16020  0.89270  0.81190  Biso   1.000  C
  C429     1.0000 0.17260  0.93400  0.83410  Biso   1.000  C
  H333     1.0000 0.17600  0.93490  0.87010  Biso   1.000  H
  C430     1.0000 0.16580  0.93080  0.72910  Biso   1.000  C
  H334     1.0000 0.16590  0.92730  0.69310  Biso   1.000  H
  C431     1.0000 0.15720  0.88940  0.75980  Biso   1.000  C
  H335     1.0000 0.14890  0.85760  0.74460  Biso   1.000  H
  C432     1.0000 0.18210  0.98240  0.80240  Biso   1.000  C
  H336     1.0000 0.19280  0.01340  0.81780  Biso   1.000  H
  Cd13     1.0000 0.19949  0.19949  0.69949  Biso   1.000  Cd
  Cd14     1.0000 0.30051  0.80051  0.19949  Biso   1.000  Cd
  Cd15     1.0000 0.69949  0.30051  0.30051  Biso   1.000  Cd
  Cd16     1.0000 0.80051  0.69949  0.80051  Biso   1.000  Cd
  N109     1.0000 0.34320  0.15680  0.34320  Biso   1.000  N
  N110     1.0000 0.65680  0.65680  0.15680  Biso   1.000  N
  N111     1.0000 0.84320  0.34320  0.65680  Biso   1.000  N
  N112     1.0000 0.15680  0.84320  0.84320  Biso   1.000  N
