data_image0
_cell_length_a       25.3961
_cell_length_b       25.3961
_cell_length_c       25.3961
_cell_angle_alpha    90
_cell_angle_beta     90
_cell_angle_gamma    90

_symmetry_space_group_name_H-M    "P 1"
_symmetry_int_tables_number       1

loop_
  _symmetry_equiv_pos_as_xyz
  'x, y, z'

loop_
  _atom_site_label
  _atom_site_occupancy
  _atom_site_fract_x
  _atom_site_fract_y
  _atom_site_fract_z
  _atom_site_thermal_displace_type
  _atom_site_B_iso_or_equiv
  _atom_site_type_symbol
  C1       1.0000 0.18900  0.42340  0.23790  Biso   1.000  C
  H1       1.0000 0.18640  0.41260  0.27370  Biso   1.000  H
  C2       1.0000 0.19600  0.42430  0.15740  Biso   1.000  C
  H2       1.0000 0.20100  0.41420  0.12170  Biso   1.000  H
  C3       1.0000 0.18660  0.47230  0.17150  Biso   1.000  C
  H3       1.0000 0.18240  0.50160  0.14870  Biso   1.000  H
  C4       1.0000 0.17700  0.51820  0.25360  Biso   1.000  C
  C5       1.0000 0.16590  0.56590  0.22920  Biso   1.000  C
  H4       1.0000 0.16520  0.56810  0.19180  Biso   1.000  H
  C6       1.0000 0.15590  0.61050  0.25930  Biso   1.000  C
  H5       1.0000 0.14830  0.64310  0.24260  Biso   1.000  H
  C7       1.0000 0.15690  0.60730  0.31400  Biso   1.000  C
  C8       1.0000 0.16800  0.55960  0.33840  Biso   1.000  C
  H6       1.0000 0.16870  0.55740  0.37580  Biso   1.000  H
  C9       1.0000 0.17800  0.51500  0.30820  Biso   1.000  C
  H7       1.0000 0.18550  0.48240  0.32490  Biso   1.000  H
  N1       1.0000 0.19800  0.38930  0.19820  Biso   1.000  N
  N2       1.0000 0.18410  0.47300  0.22290  Biso   1.000  N
  C10      1.0000 0.31100  0.57660  0.73790  Biso   1.000  C
  H8       1.0000 0.31360  0.58740  0.77370  Biso   1.000  H
  C11      1.0000 0.30400  0.57570  0.65740  Biso   1.000  C
  H9       1.0000 0.29900  0.58580  0.62170  Biso   1.000  H
  C12      1.0000 0.31340  0.52770  0.67150  Biso   1.000  C
  H10      1.0000 0.31760  0.49840  0.64870  Biso   1.000  H
  C13      1.0000 0.32300  0.48180  0.75360  Biso   1.000  C
  C14      1.0000 0.33410  0.43410  0.72920  Biso   1.000  C
  H11      1.0000 0.33480  0.43190  0.69180  Biso   1.000  H
  C15      1.0000 0.34410  0.38950  0.75930  Biso   1.000  C
  H12      1.0000 0.35170  0.35690  0.74260  Biso   1.000  H
  C16      1.0000 0.34310  0.39270  0.81400  Biso   1.000  C
  C17      1.0000 0.33200  0.44040  0.83840  Biso   1.000  C
  H13      1.0000 0.33130  0.44260  0.87580  Biso   1.000  H
  C18      1.0000 0.32200  0.48500  0.80820  Biso   1.000  C
  H14      1.0000 0.31450  0.51760  0.82490  Biso   1.000  H
  N3       1.0000 0.30200  0.61070  0.69820  Biso   1.000  N
  N4       1.0000 0.31590  0.52700  0.72290  Biso   1.000  N
  C19      1.0000 0.81100  0.92340  0.26210  Biso   1.000  C
  H15      1.0000 0.81360  0.91260  0.22630  Biso   1.000  H
  C20      1.0000 0.80400  0.92430  0.34260  Biso   1.000  C
  H16      1.0000 0.79900  0.91420  0.37830  Biso   1.000  H
  C21      1.0000 0.81340  0.97230  0.32850  Biso   1.000  C
  H17      1.0000 0.81760  0.00160  0.35130  Biso   1.000  H
  C22      1.0000 0.82300  0.01820  0.24640  Biso   1.000  C
  C23      1.0000 0.83410  0.06590  0.27080  Biso   1.000  C
  H18      1.0000 0.83480  0.06810  0.30820  Biso   1.000  H
  C24      1.0000 0.84410  0.11050  0.24070  Biso   1.000  C
  H19      1.0000 0.85170  0.14310  0.25740  Biso   1.000  H
  C25      1.0000 0.84310  0.10730  0.18600  Biso   1.000  C
  C26      1.0000 0.83200  0.05960  0.16160  Biso   1.000  C
  H20      1.0000 0.83130  0.05740  0.12420  Biso   1.000  H
  C27      1.0000 0.82200  0.01500  0.19180  Biso   1.000  C
  H21      1.0000 0.81450  0.98240  0.17510  Biso   1.000  H
  N5       1.0000 0.80200  0.88930  0.30180  Biso   1.000  N
  N6       1.0000 0.81590  0.97300  0.27710  Biso   1.000  N
  C28      1.0000 0.68900  0.07660  0.76210  Biso   1.000  C
  H22      1.0000 0.68640  0.08740  0.72630  Biso   1.000  H
  C29      1.0000 0.69600  0.07570  0.84260  Biso   1.000  C
  H23      1.0000 0.70100  0.08580  0.87830  Biso   1.000  H
  C30      1.0000 0.68660  0.02770  0.82850  Biso   1.000  C
  H24      1.0000 0.68240  0.99840  0.85130  Biso   1.000  H
  C31      1.0000 0.67700  0.98180  0.74640  Biso   1.000  C
  C32      1.0000 0.66590  0.93410  0.77080  Biso   1.000  C
  H25      1.0000 0.66520  0.93190  0.80820  Biso   1.000  H
  C33      1.0000 0.65590  0.88950  0.74070  Biso   1.000  C
  H26      1.0000 0.64830  0.85690  0.75740  Biso   1.000  H
  C34      1.0000 0.65690  0.89270  0.68600  Biso   1.000  C
  C35      1.0000 0.66800  0.94040  0.66160  Biso   1.000  C
  H27      1.0000 0.66870  0.94260  0.62420  Biso   1.000  H
  C36      1.0000 0.67800  0.98500  0.69180  Biso   1.000  C
  H28      1.0000 0.68550  0.01760  0.67510  Biso   1.000  H
  N7       1.0000 0.69800  0.11070  0.80180  Biso   1.000  N
  N8       1.0000 0.68410  0.02700  0.77710  Biso   1.000  N
  C37      1.0000 0.73790  0.18900  0.92340  Biso   1.000  C
  H29      1.0000 0.77370  0.18640  0.91260  Biso   1.000  H
  C38      1.0000 0.65740  0.19600  0.92430  Biso   1.000  C
  H30      1.0000 0.62170  0.20100  0.91420  Biso   1.000  H
  C39      1.0000 0.67150  0.18660  0.97230  Biso   1.000  C
  H31      1.0000 0.64870  0.18240  0.00160  Biso   1.000  H
  C40      1.0000 0.75360  0.17700  0.01820  Biso   1.000  C
  C41      1.0000 0.72920  0.16590  0.06590  Biso   1.000  C
  H32      1.0000 0.69180  0.16520  0.06810  Biso   1.000  H
  C42      1.0000 0.75930  0.15590  0.11050  Biso   1.000  C
  H33      1.0000 0.74260  0.14830  0.14310  Biso   1.000  H
  C43      1.0000 0.81400  0.15690  0.10730  Biso   1.000  C
  C44      1.0000 0.83840  0.16800  0.05960  Biso   1.000  C
  H34      1.0000 0.87580  0.16870  0.05740  Biso   1.000  H
  C45      1.0000 0.80820  0.17800  0.01500  Biso   1.000  C
  H35      1.0000 0.82490  0.18550  0.98240  Biso   1.000  H
  N9       1.0000 0.69820  0.19800  0.88930  Biso   1.000  N
  N10      1.0000 0.72290  0.18410  0.97300  Biso   1.000  N
  C46      1.0000 0.23790  0.31100  0.07660  Biso   1.000  C
  H36      1.0000 0.27370  0.31360  0.08740  Biso   1.000  H
  C47      1.0000 0.15740  0.30400  0.07570  Biso   1.000  C
  H37      1.0000 0.12170  0.29900  0.08580  Biso   1.000  H
  C48      1.0000 0.17150  0.31340  0.02770  Biso   1.000  C
  H38      1.0000 0.14870  0.31760  0.99840  Biso   1.000  H
  C49      1.0000 0.25360  0.32300  0.98180  Biso   1.000  C
  C50      1.0000 0.22920  0.33410  0.93410  Biso   1.000  C
  H39      1.0000 0.19180  0.33480  0.93190  Biso   1.000  H
  C51      1.0000 0.25930  0.34410  0.88950  Biso   1.000  C
  H40      1.0000 0.24260  0.35170  0.85690  Biso   1.000  H
  C52      1.0000 0.31400  0.34310  0.89270  Biso   1.000  C
  C53      1.0000 0.33840  0.33200  0.94040  Biso   1.000  C
  H41      1.0000 0.37580  0.33130  0.94260  Biso   1.000  H
  C54      1.0000 0.30820  0.32200  0.98500  Biso   1.000  C
  H42      1.0000 0.32490  0.31450  0.01760  Biso   1.000  H
  N11      1.0000 0.19820  0.30200  0.11070  Biso   1.000  N
  N12      1.0000 0.22290  0.31590  0.02700  Biso   1.000  N
  C55      1.0000 0.76210  0.81100  0.42340  Biso   1.000  C
  H43      1.0000 0.72630  0.81360  0.41260  Biso   1.000  H
  C56      1.0000 0.84260  0.80400  0.42430  Biso   1.000  C
  H44      1.0000 0.87830  0.79900  0.41420  Biso   1.000  H
  C57      1.0000 0.82850  0.81340  0.47230  Biso   1.000  C
  H45      1.0000 0.85130  0.81760  0.50160  Biso   1.000  H
  C58      1.0000 0.74640  0.82300  0.51820  Biso   1.000  C
  C59      1.0000 0.77080  0.83410  0.56590  Biso   1.000  C
  H46      1.0000 0.80820  0.83480  0.56810  Biso   1.000  H
  C60      1.0000 0.74070  0.84410  0.61050  Biso   1.000  C
  H47      1.0000 0.75740  0.85170  0.64310  Biso   1.000  H
  C61      1.0000 0.68600  0.84310  0.60730  Biso   1.000  C
  C62      1.0000 0.66160  0.83200  0.55960  Biso   1.000  C
  H48      1.0000 0.62420  0.83130  0.55740  Biso   1.000  H
  C63      1.0000 0.69180  0.82200  0.51500  Biso   1.000  C
  H49      1.0000 0.67510  0.81450  0.48240  Biso   1.000  H
  N13      1.0000 0.80180  0.80200  0.38930  Biso   1.000  N
  N14      1.0000 0.77710  0.81590  0.47300  Biso   1.000  N
  C64      1.0000 0.26210  0.68900  0.57660  Biso   1.000  C
  H50      1.0000 0.22630  0.68640  0.58740  Biso   1.000  H
  C65      1.0000 0.34260  0.69600  0.57570  Biso   1.000  C
  H51      1.0000 0.37830  0.70100  0.58580  Biso   1.000  H
  C66      1.0000 0.32850  0.68660  0.52770  Biso   1.000  C
  H52      1.0000 0.35130  0.68240  0.49840  Biso   1.000  H
  C67      1.0000 0.24640  0.67700  0.48180  Biso   1.000  C
  C68      1.0000 0.27080  0.66590  0.43410  Biso   1.000  C
  H53      1.0000 0.30820  0.66520  0.43190  Biso   1.000  H
  C69      1.0000 0.24070  0.65590  0.38950  Biso   1.000  C
  H54      1.0000 0.25740  0.64830  0.35690  Biso   1.000  H
  C70      1.0000 0.18600  0.65690  0.39270  Biso   1.000  C
  C71      1.0000 0.16160  0.66800  0.44040  Biso   1.000  C
  H55      1.0000 0.12420  0.66870  0.44260  Biso   1.000  H
  C72      1.0000 0.19180  0.67800  0.48500  Biso   1.000  C
  H56      1.0000 0.17510  0.68550  0.51760  Biso   1.000  H
  N15      1.0000 0.30180  0.69800  0.61070  Biso   1.000  N
  N16      1.0000 0.27710  0.68410  0.52700  Biso   1.000  N
  C73      1.0000 0.42340  0.73790  0.68900  Biso   1.000  C
  H57      1.0000 0.41260  0.77370  0.68640  Biso   1.000  H
  C74      1.0000 0.42430  0.65740  0.69600  Biso   1.000  C
  H58      1.0000 0.41420  0.62170  0.70100  Biso   1.000  H
  C75      1.0000 0.47230  0.67150  0.68660  Biso   1.000  C
  H59      1.0000 0.50160  0.64870  0.68240  Biso   1.000  H
  C76      1.0000 0.51820  0.75360  0.67700  Biso   1.000  C
  C77      1.0000 0.56590  0.72920  0.66590  Biso   1.000  C
  H60      1.0000 0.56810  0.69180  0.66520  Biso   1.000  H
  C78      1.0000 0.61050  0.75930  0.65590  Biso   1.000  C
  H61      1.0000 0.64310  0.74260  0.64830  Biso   1.000  H
  C79      1.0000 0.60730  0.81400  0.65690  Biso   1.000  C
  C80      1.0000 0.55960  0.83840  0.66800  Biso   1.000  C
  H62      1.0000 0.55740  0.87580  0.66870  Biso   1.000  H
  C81      1.0000 0.51500  0.80820  0.67800  Biso   1.000  C
  H63      1.0000 0.48240  0.82490  0.68550  Biso   1.000  H
  N17      1.0000 0.38930  0.69820  0.69800  Biso   1.000  N
  N18      1.0000 0.47300  0.72290  0.68410  Biso   1.000  N
  C82      1.0000 0.57660  0.23790  0.81100  Biso   1.000  C
  H64      1.0000 0.58740  0.27370  0.81360  Biso   1.000  H
  C83      1.0000 0.57570  0.15740  0.80400  Biso   1.000  C
  H65      1.0000 0.58580  0.12170  0.79900  Biso   1.000  H
  C84      1.0000 0.52770  0.17150  0.81340  Biso   1.000  C
  H66      1.0000 0.49840  0.14870  0.81760  Biso   1.000  H
  C85      1.0000 0.48180  0.25360  0.82300  Biso   1.000  C
  C86      1.0000 0.43410  0.22920  0.83410  Biso   1.000  C
  H67      1.0000 0.43190  0.19180  0.83480  Biso   1.000  H
  C87      1.0000 0.38950  0.25930  0.84410  Biso   1.000  C
  H68      1.0000 0.35690  0.24260  0.85170  Biso   1.000  H
  C88      1.0000 0.39270  0.31400  0.84310  Biso   1.000  C
  C89      1.0000 0.44040  0.33840  0.83200  Biso   1.000  C
  H69      1.0000 0.44260  0.37580  0.83130  Biso   1.000  H
  C90      1.0000 0.48500  0.30820  0.82200  Biso   1.000  C
  H70      1.0000 0.51760  0.32490  0.81450  Biso   1.000  H
  N19      1.0000 0.61070  0.19820  0.80200  Biso   1.000  N
  N20      1.0000 0.52700  0.22290  0.81590  Biso   1.000  N
  C91      1.0000 0.92340  0.76210  0.31100  Biso   1.000  C
  H71      1.0000 0.91260  0.72630  0.31360  Biso   1.000  H
  C92      1.0000 0.92430  0.84260  0.30400  Biso   1.000  C
  H72      1.0000 0.91420  0.87830  0.29900  Biso   1.000  H
  C93      1.0000 0.97230  0.82850  0.31340  Biso   1.000  C
  H73      1.0000 0.00160  0.85130  0.31760  Biso   1.000  H
  C94      1.0000 0.01820  0.74640  0.32300  Biso   1.000  C
  C95      1.0000 0.06590  0.77080  0.33410  Biso   1.000  C
  H74      1.0000 0.06810  0.80820  0.33480  Biso   1.000  H
  C96      1.0000 0.11050  0.74070  0.34410  Biso   1.000  C
  H75      1.0000 0.14310  0.75740  0.35170  Biso   1.000  H
  C97      1.0000 0.10730  0.68600  0.34310  Biso   1.000  C
  C98      1.0000 0.05960  0.66160  0.33200  Biso   1.000  C
  H76      1.0000 0.05740  0.62420  0.33130  Biso   1.000  H
  C99      1.0000 0.01500  0.69180  0.32200  Biso   1.000  C
  H77      1.0000 0.98240  0.67510  0.31450  Biso   1.000  H
  N21      1.0000 0.88930  0.80180  0.30200  Biso   1.000  N
  N22      1.0000 0.97300  0.77710  0.31590  Biso   1.000  N
  C100     1.0000 0.07660  0.26210  0.18900  Biso   1.000  C
  H78      1.0000 0.08740  0.22630  0.18640  Biso   1.000  H
  C101     1.0000 0.07570  0.34260  0.19600  Biso   1.000  C
  H79      1.0000 0.08580  0.37830  0.20100  Biso   1.000  H
  C102     1.0000 0.02770  0.32850  0.18660  Biso   1.000  C
  H80      1.0000 0.99840  0.35130  0.18240  Biso   1.000  H
  C103     1.0000 0.98180  0.24640  0.17700  Biso   1.000  C
  C104     1.0000 0.93410  0.27080  0.16590  Biso   1.000  C
  H81      1.0000 0.93190  0.30820  0.16520  Biso   1.000  H
  C105     1.0000 0.88950  0.24070  0.15590  Biso   1.000  C
  H82      1.0000 0.85690  0.25740  0.14830  Biso   1.000  H
  C106     1.0000 0.89270  0.18600  0.15690  Biso   1.000  C
  C107     1.0000 0.94040  0.16160  0.16800  Biso   1.000  C
  H83      1.0000 0.94260  0.12420  0.16870  Biso   1.000  H
  C108     1.0000 0.98500  0.19180  0.17800  Biso   1.000  C
  H84      1.0000 0.01760  0.17510  0.18550  Biso   1.000  H
  N23      1.0000 0.11070  0.30180  0.19800  Biso   1.000  N
  N24      1.0000 0.02700  0.27710  0.18410  Biso   1.000  N
  Cd1      1.0000 0.20011  0.29989  0.20011  Biso   1.000  Cd
  Cd2      1.0000 0.79989  0.79989  0.29989  Biso   1.000  Cd
  Cd3      1.0000 0.29989  0.70011  0.70011  Biso   1.000  Cd
  Cd4      1.0000 0.70011  0.20011  0.79989  Biso   1.000  Cd
  N25      1.0000 0.15530  0.65530  0.34470  Biso   1.000  N
  N26      1.0000 0.84470  0.15530  0.15530  Biso   1.000  N
  N27      1.0000 0.65530  0.84470  0.65530  Biso   1.000  N
  N28      1.0000 0.34470  0.34470  0.84470  Biso   1.000  N
  C109     1.0000 0.18900  0.92340  0.73790  Biso   1.000  C
  H85      1.0000 0.18640  0.91260  0.77370  Biso   1.000  H
  C110     1.0000 0.19600  0.92430  0.65740  Biso   1.000  C
  H86      1.0000 0.20100  0.91420  0.62170  Biso   1.000  H
  C111     1.0000 0.18660  0.97230  0.67150  Biso   1.000  C
  H87      1.0000 0.18240  0.00160  0.64870  Biso   1.000  H
  C112     1.0000 0.17700  0.01820  0.75360  Biso   1.000  C
  C113     1.0000 0.16590  0.06590  0.72920  Biso   1.000  C
  H88      1.0000 0.16520  0.06810  0.69180  Biso   1.000  H
  C114     1.0000 0.15590  0.11050  0.75930  Biso   1.000  C
  H89      1.0000 0.14830  0.14310  0.74260  Biso   1.000  H
  C115     1.0000 0.15690  0.10730  0.81400  Biso   1.000  C
  C116     1.0000 0.16800  0.05960  0.83840  Biso   1.000  C
  H90      1.0000 0.16870  0.05740  0.87580  Biso   1.000  H
  C117     1.0000 0.17800  0.01500  0.80820  Biso   1.000  C
  H91      1.0000 0.18550  0.98240  0.82490  Biso   1.000  H
  N29      1.0000 0.19800  0.88930  0.69820  Biso   1.000  N
  N30      1.0000 0.18410  0.97300  0.72290  Biso   1.000  N
  C118     1.0000 0.31100  0.07660  0.23790  Biso   1.000  C
  H92      1.0000 0.31360  0.08740  0.27370  Biso   1.000  H
  C119     1.0000 0.30400  0.07570  0.15740  Biso   1.000  C
  H93      1.0000 0.29900  0.08580  0.12170  Biso   1.000  H
  C120     1.0000 0.31340  0.02770  0.17150  Biso   1.000  C
  H94      1.0000 0.31760  0.99840  0.14870  Biso   1.000  H
  C121     1.0000 0.32300  0.98180  0.25360  Biso   1.000  C
  C122     1.0000 0.33410  0.93410  0.22920  Biso   1.000  C
  H95      1.0000 0.33480  0.93190  0.19180  Biso   1.000  H
  C123     1.0000 0.34410  0.88950  0.25930  Biso   1.000  C
  H96      1.0000 0.35170  0.85690  0.24260  Biso   1.000  H
  C124     1.0000 0.34310  0.89270  0.31400  Biso   1.000  C
  C125     1.0000 0.33200  0.94040  0.33840  Biso   1.000  C
  H97      1.0000 0.33130  0.94260  0.37580  Biso   1.000  H
  C126     1.0000 0.32200  0.98500  0.30820  Biso   1.000  C
  H98      1.0000 0.31450  0.01760  0.32490  Biso   1.000  H
  N31      1.0000 0.30200  0.11070  0.19820  Biso   1.000  N
  N32      1.0000 0.31590  0.02700  0.22290  Biso   1.000  N
  C127     1.0000 0.81100  0.42340  0.76210  Biso   1.000  C
  H99      1.0000 0.81360  0.41260  0.72630  Biso   1.000  H
  C128     1.0000 0.80400  0.42430  0.84260  Biso   1.000  C
  H100     1.0000 0.79900  0.41420  0.87830  Biso   1.000  H
  C129     1.0000 0.81340  0.47230  0.82850  Biso   1.000  C
  H101     1.0000 0.81760  0.50160  0.85130  Biso   1.000  H
  C130     1.0000 0.82300  0.51820  0.74640  Biso   1.000  C
  C131     1.0000 0.83410  0.56590  0.77080  Biso   1.000  C
  H102     1.0000 0.83480  0.56810  0.80820  Biso   1.000  H
  C132     1.0000 0.84410  0.61050  0.74070  Biso   1.000  C
  H103     1.0000 0.85170  0.64310  0.75740  Biso   1.000  H
  C133     1.0000 0.84310  0.60730  0.68600  Biso   1.000  C
  C134     1.0000 0.83200  0.55960  0.66160  Biso   1.000  C
  H104     1.0000 0.83130  0.55740  0.62420  Biso   1.000  H
  C135     1.0000 0.82200  0.51500  0.69180  Biso   1.000  C
  H105     1.0000 0.81450  0.48240  0.67510  Biso   1.000  H
  N33      1.0000 0.80200  0.38930  0.80180  Biso   1.000  N
  N34      1.0000 0.81590  0.47300  0.77710  Biso   1.000  N
  C136     1.0000 0.68900  0.57660  0.26210  Biso   1.000  C
  H106     1.0000 0.68640  0.58740  0.22630  Biso   1.000  H
  C137     1.0000 0.69600  0.57570  0.34260  Biso   1.000  C
  H107     1.0000 0.70100  0.58580  0.37830  Biso   1.000  H
  C138     1.0000 0.68660  0.52770  0.32850  Biso   1.000  C
  H108     1.0000 0.68240  0.49840  0.35130  Biso   1.000  H
  C139     1.0000 0.67700  0.48180  0.24640  Biso   1.000  C
  C140     1.0000 0.66590  0.43410  0.27080  Biso   1.000  C
  H109     1.0000 0.66520  0.43190  0.30820  Biso   1.000  H
  C141     1.0000 0.65590  0.38950  0.24070  Biso   1.000  C
  H110     1.0000 0.64830  0.35690  0.25740  Biso   1.000  H
  C142     1.0000 0.65690  0.39270  0.18600  Biso   1.000  C
  C143     1.0000 0.66800  0.44040  0.16160  Biso   1.000  C
  H111     1.0000 0.66870  0.44260  0.12420  Biso   1.000  H
  C144     1.0000 0.67800  0.48500  0.19180  Biso   1.000  C
  H112     1.0000 0.68550  0.51760  0.17510  Biso   1.000  H
  N35      1.0000 0.69800  0.61070  0.30180  Biso   1.000  N
  N36      1.0000 0.68410  0.52700  0.27710  Biso   1.000  N
  C145     1.0000 0.73790  0.68900  0.42340  Biso   1.000  C
  H113     1.0000 0.77370  0.68640  0.41260  Biso   1.000  H
  C146     1.0000 0.65740  0.69600  0.42430  Biso   1.000  C
  H114     1.0000 0.62170  0.70100  0.41420  Biso   1.000  H
  C147     1.0000 0.67150  0.68660  0.47230  Biso   1.000  C
  H115     1.0000 0.64870  0.68240  0.50160  Biso   1.000  H
  C148     1.0000 0.75360  0.67700  0.51820  Biso   1.000  C
  C149     1.0000 0.72920  0.66590  0.56590  Biso   1.000  C
  H116     1.0000 0.69180  0.66520  0.56810  Biso   1.000  H
  C150     1.0000 0.75930  0.65590  0.61050  Biso   1.000  C
  H117     1.0000 0.74260  0.64830  0.64310  Biso   1.000  H
  C151     1.0000 0.81400  0.65690  0.60730  Biso   1.000  C
  C152     1.0000 0.83840  0.66800  0.55960  Biso   1.000  C
  H118     1.0000 0.87580  0.66870  0.55740  Biso   1.000  H
  C153     1.0000 0.80820  0.67800  0.51500  Biso   1.000  C
  H119     1.0000 0.82490  0.68550  0.48240  Biso   1.000  H
  N37      1.0000 0.69820  0.69800  0.38930  Biso   1.000  N
  N38      1.0000 0.72290  0.68410  0.47300  Biso   1.000  N
  C154     1.0000 0.23790  0.81100  0.57660  Biso   1.000  C
  H120     1.0000 0.27370  0.81360  0.58740  Biso   1.000  H
  C155     1.0000 0.15740  0.80400  0.57570  Biso   1.000  C
  H121     1.0000 0.12170  0.79900  0.58580  Biso   1.000  H
  C156     1.0000 0.17150  0.81340  0.52770  Biso   1.000  C
  H122     1.0000 0.14870  0.81760  0.49840  Biso   1.000  H
  C157     1.0000 0.25360  0.82300  0.48180  Biso   1.000  C
  C158     1.0000 0.22920  0.83410  0.43410  Biso   1.000  C
  H123     1.0000 0.19180  0.83480  0.43190  Biso   1.000  H
  C159     1.0000 0.25930  0.84410  0.38950  Biso   1.000  C
  H124     1.0000 0.24260  0.85170  0.35690  Biso   1.000  H
  C160     1.0000 0.31400  0.84310  0.39270  Biso   1.000  C
  C161     1.0000 0.33840  0.83200  0.44040  Biso   1.000  C
  H125     1.0000 0.37580  0.83130  0.44260  Biso   1.000  H
  C162     1.0000 0.30820  0.82200  0.48500  Biso   1.000  C
  H126     1.0000 0.32490  0.81450  0.51760  Biso   1.000  H
  N39      1.0000 0.19820  0.80200  0.61070  Biso   1.000  N
  N40      1.0000 0.22290  0.81590  0.52700  Biso   1.000  N
  C163     1.0000 0.76210  0.31100  0.92340  Biso   1.000  C
  H127     1.0000 0.72630  0.31360  0.91260  Biso   1.000  H
  C164     1.0000 0.84260  0.30400  0.92430  Biso   1.000  C
  H128     1.0000 0.87830  0.29900  0.91420  Biso   1.000  H
  C165     1.0000 0.82850  0.31340  0.97230  Biso   1.000  C
  H129     1.0000 0.85130  0.31760  0.00160  Biso   1.000  H
  C166     1.0000 0.74640  0.32300  0.01820  Biso   1.000  C
  C167     1.0000 0.77080  0.33410  0.06590  Biso   1.000  C
  H130     1.0000 0.80820  0.33480  0.06810  Biso   1.000  H
  C168     1.0000 0.74070  0.34410  0.11050  Biso   1.000  C
  H131     1.0000 0.75740  0.35170  0.14310  Biso   1.000  H
  C169     1.0000 0.68600  0.34310  0.10730  Biso   1.000  C
  C170     1.0000 0.66160  0.33200  0.05960  Biso   1.000  C
  H132     1.0000 0.62420  0.33130  0.05740  Biso   1.000  H
  C171     1.0000 0.69180  0.32200  0.01500  Biso   1.000  C
  H133     1.0000 0.67510  0.31450  0.98240  Biso   1.000  H
  N41      1.0000 0.80180  0.30200  0.88930  Biso   1.000  N
  N42      1.0000 0.77710  0.31590  0.97300  Biso   1.000  N
  C172     1.0000 0.26210  0.18900  0.07660  Biso   1.000  C
  H134     1.0000 0.22630  0.18640  0.08740  Biso   1.000  H
  C173     1.0000 0.34260  0.19600  0.07570  Biso   1.000  C
  H135     1.0000 0.37830  0.20100  0.08580  Biso   1.000  H
  C174     1.0000 0.32850  0.18660  0.02770  Biso   1.000  C
  H136     1.0000 0.35130  0.18240  0.99840  Biso   1.000  H
  C175     1.0000 0.24640  0.17700  0.98180  Biso   1.000  C
  C176     1.0000 0.27080  0.16590  0.93410  Biso   1.000  C
  H137     1.0000 0.30820  0.16520  0.93190  Biso   1.000  H
  C177     1.0000 0.24070  0.15590  0.88950  Biso   1.000  C
  H138     1.0000 0.25740  0.14830  0.85690  Biso   1.000  H
  C178     1.0000 0.18600  0.15690  0.89270  Biso   1.000  C
  C179     1.0000 0.16160  0.16800  0.94040  Biso   1.000  C
  H139     1.0000 0.12420  0.16870  0.94260  Biso   1.000  H
  C180     1.0000 0.19180  0.17800  0.98500  Biso   1.000  C
  H140     1.0000 0.17510  0.18550  0.01760  Biso   1.000  H
  N43      1.0000 0.30180  0.19800  0.11070  Biso   1.000  N
  N44      1.0000 0.27710  0.18410  0.02700  Biso   1.000  N
  C181     1.0000 0.42340  0.23790  0.18900  Biso   1.000  C
  H141     1.0000 0.41260  0.27370  0.18640  Biso   1.000  H
  C182     1.0000 0.42430  0.15740  0.19600  Biso   1.000  C
  H142     1.0000 0.41420  0.12170  0.20100  Biso   1.000  H
  C183     1.0000 0.47230  0.17150  0.18660  Biso   1.000  C
  H143     1.0000 0.50160  0.14870  0.18240  Biso   1.000  H
  C184     1.0000 0.51820  0.25360  0.17700  Biso   1.000  C
  C185     1.0000 0.56590  0.22920  0.16590  Biso   1.000  C
  H144     1.0000 0.56810  0.19180  0.16520  Biso   1.000  H
  C186     1.0000 0.61050  0.25930  0.15590  Biso   1.000  C
  H145     1.0000 0.64310  0.24260  0.14830  Biso   1.000  H
  C187     1.0000 0.60730  0.31400  0.15690  Biso   1.000  C
  C188     1.0000 0.55960  0.33840  0.16800  Biso   1.000  C
  H146     1.0000 0.55740  0.37580  0.16870  Biso   1.000  H
  C189     1.0000 0.51500  0.30820  0.17800  Biso   1.000  C
  H147     1.0000 0.48240  0.32490  0.18550  Biso   1.000  H
  N45      1.0000 0.38930  0.19820  0.19800  Biso   1.000  N
  N46      1.0000 0.47300  0.22290  0.18410  Biso   1.000  N
  C190     1.0000 0.57660  0.73790  0.31100  Biso   1.000  C
  H148     1.0000 0.58740  0.77370  0.31360  Biso   1.000  H
  C191     1.0000 0.57570  0.65740  0.30400  Biso   1.000  C
  H149     1.0000 0.58580  0.62170  0.29900  Biso   1.000  H
  C192     1.0000 0.52770  0.67150  0.31340  Biso   1.000  C
  H150     1.0000 0.49840  0.64870  0.31760  Biso   1.000  H
  C193     1.0000 0.48180  0.75360  0.32300  Biso   1.000  C
  C194     1.0000 0.43410  0.72920  0.33410  Biso   1.000  C
  H151     1.0000 0.43190  0.69180  0.33480  Biso   1.000  H
  C195     1.0000 0.38950  0.75930  0.34410  Biso   1.000  C
  H152     1.0000 0.35690  0.74260  0.35170  Biso   1.000  H
  C196     1.0000 0.39270  0.81400  0.34310  Biso   1.000  C
  C197     1.0000 0.44040  0.83840  0.33200  Biso   1.000  C
  H153     1.0000 0.44260  0.87580  0.33130  Biso   1.000  H
  C198     1.0000 0.48500  0.80820  0.32200  Biso   1.000  C
  H154     1.0000 0.51760  0.82490  0.31450  Biso   1.000  H
  N47      1.0000 0.61070  0.69820  0.30200  Biso   1.000  N
  N48      1.0000 0.52700  0.72290  0.31590  Biso   1.000  N
  C199     1.0000 0.92340  0.26210  0.81100  Biso   1.000  C
  H155     1.0000 0.91260  0.22630  0.81360  Biso   1.000  H
  C200     1.0000 0.92430  0.34260  0.80400  Biso   1.000  C
  H156     1.0000 0.91420  0.37830  0.79900  Biso   1.000  H
  C201     1.0000 0.97230  0.32850  0.81340  Biso   1.000  C
  H157     1.0000 0.00160  0.35130  0.81760  Biso   1.000  H
  C202     1.0000 0.01820  0.24640  0.82300  Biso   1.000  C
  C203     1.0000 0.06590  0.27080  0.83410  Biso   1.000  C
  H158     1.0000 0.06810  0.30820  0.83480  Biso   1.000  H
  C204     1.0000 0.11050  0.24070  0.84410  Biso   1.000  C
  H159     1.0000 0.14310  0.25740  0.85170  Biso   1.000  H
  C205     1.0000 0.10730  0.18600  0.84310  Biso   1.000  C
  C206     1.0000 0.05960  0.16160  0.83200  Biso   1.000  C
  H160     1.0000 0.05740  0.12420  0.83130  Biso   1.000  H
  C207     1.0000 0.01500  0.19180  0.82200  Biso   1.000  C
  H161     1.0000 0.98240  0.17510  0.81450  Biso   1.000  H
  N49      1.0000 0.88930  0.30180  0.80200  Biso   1.000  N
  N50      1.0000 0.97300  0.27710  0.81590  Biso   1.000  N
  C208     1.0000 0.07660  0.76210  0.68900  Biso   1.000  C
  H162     1.0000 0.08740  0.72630  0.68640  Biso   1.000  H
  C209     1.0000 0.07570  0.84260  0.69600  Biso   1.000  C
  H163     1.0000 0.08580  0.87830  0.70100  Biso   1.000  H
  C210     1.0000 0.02770  0.82850  0.68660  Biso   1.000  C
  H164     1.0000 0.99840  0.85130  0.68240  Biso   1.000  H
  C211     1.0000 0.98180  0.74640  0.67700  Biso   1.000  C
  C212     1.0000 0.93410  0.77080  0.66590  Biso   1.000  C
  H165     1.0000 0.93190  0.80820  0.66520  Biso   1.000  H
  C213     1.0000 0.88950  0.74070  0.65590  Biso   1.000  C
  H166     1.0000 0.85690  0.75740  0.64830  Biso   1.000  H
  C214     1.0000 0.89270  0.68600  0.65690  Biso   1.000  C
  C215     1.0000 0.94040  0.66160  0.66800  Biso   1.000  C
  H167     1.0000 0.94260  0.62420  0.66870  Biso   1.000  H
  C216     1.0000 0.98500  0.69180  0.67800  Biso   1.000  C
  H168     1.0000 0.01760  0.67510  0.68550  Biso   1.000  H
  N51      1.0000 0.11070  0.80180  0.69800  Biso   1.000  N
  N52      1.0000 0.02700  0.77710  0.68410  Biso   1.000  N
  Cd5      1.0000 0.29989  0.20011  0.20011  Biso   1.000  Cd
  Cd6      1.0000 0.79989  0.29989  0.79989  Biso   1.000  Cd
  Cd7      1.0000 0.20011  0.79989  0.70011  Biso   1.000  Cd
  Cd8      1.0000 0.70011  0.70011  0.29989  Biso   1.000  Cd
  N53      1.0000 0.15530  0.15530  0.84470  Biso   1.000  N
  N54      1.0000 0.84470  0.65530  0.65530  Biso   1.000  N
  N55      1.0000 0.34470  0.84470  0.34470  Biso   1.000  N
  N56      1.0000 0.65530  0.34470  0.15530  Biso   1.000  N
  C217     1.0000 0.68900  0.42340  0.73790  Biso   1.000  C
  H169     1.0000 0.68640  0.41260  0.77370  Biso   1.000  H
  C218     1.0000 0.69600  0.42430  0.65740  Biso   1.000  C
  H170     1.0000 0.70100  0.41420  0.62170  Biso   1.000  H
  C219     1.0000 0.68660  0.47230  0.67150  Biso   1.000  C
  H171     1.0000 0.68240  0.50160  0.64870  Biso   1.000  H
  C220     1.0000 0.67700  0.51820  0.75360  Biso   1.000  C
  C221     1.0000 0.66590  0.56590  0.72920  Biso   1.000  C
  H172     1.0000 0.66520  0.56810  0.69180  Biso   1.000  H
  C222     1.0000 0.65590  0.61050  0.75930  Biso   1.000  C
  H173     1.0000 0.64830  0.64310  0.74260  Biso   1.000  H
  C223     1.0000 0.65690  0.60730  0.81400  Biso   1.000  C
  C224     1.0000 0.66800  0.55960  0.83840  Biso   1.000  C
  H174     1.0000 0.66870  0.55740  0.87580  Biso   1.000  H
  C225     1.0000 0.67800  0.51500  0.80820  Biso   1.000  C
  H175     1.0000 0.68550  0.48240  0.82490  Biso   1.000  H
  N57      1.0000 0.69800  0.38930  0.69820  Biso   1.000  N
  N58      1.0000 0.68410  0.47300  0.72290  Biso   1.000  N
  C226     1.0000 0.81100  0.57660  0.23790  Biso   1.000  C
  H176     1.0000 0.81360  0.58740  0.27370  Biso   1.000  H
  C227     1.0000 0.80400  0.57570  0.15740  Biso   1.000  C
  H177     1.0000 0.79900  0.58580  0.12170  Biso   1.000  H
  C228     1.0000 0.81340  0.52770  0.17150  Biso   1.000  C
  H178     1.0000 0.81760  0.49840  0.14870  Biso   1.000  H
  C229     1.0000 0.82300  0.48180  0.25360  Biso   1.000  C
  C230     1.0000 0.83410  0.43410  0.22920  Biso   1.000  C
  H179     1.0000 0.83480  0.43190  0.19180  Biso   1.000  H
  C231     1.0000 0.84410  0.38950  0.25930  Biso   1.000  C
  H180     1.0000 0.85170  0.35690  0.24260  Biso   1.000  H
  C232     1.0000 0.84310  0.39270  0.31400  Biso   1.000  C
  C233     1.0000 0.83200  0.44040  0.33840  Biso   1.000  C
  H181     1.0000 0.83130  0.44260  0.37580  Biso   1.000  H
  C234     1.0000 0.82200  0.48500  0.30820  Biso   1.000  C
  H182     1.0000 0.81450  0.51760  0.32490  Biso   1.000  H
  N59      1.0000 0.80200  0.61070  0.19820  Biso   1.000  N
  N60      1.0000 0.81590  0.52700  0.22290  Biso   1.000  N
  C235     1.0000 0.31100  0.92340  0.76210  Biso   1.000  C
  H183     1.0000 0.31360  0.91260  0.72630  Biso   1.000  H
  C236     1.0000 0.30400  0.92430  0.84260  Biso   1.000  C
  H184     1.0000 0.29900  0.91420  0.87830  Biso   1.000  H
  C237     1.0000 0.31340  0.97230  0.82850  Biso   1.000  C
  H185     1.0000 0.31760  0.00160  0.85130  Biso   1.000  H
  C238     1.0000 0.32300  0.01820  0.74640  Biso   1.000  C
  C239     1.0000 0.33410  0.06590  0.77080  Biso   1.000  C
  H186     1.0000 0.33480  0.06810  0.80820  Biso   1.000  H
  C240     1.0000 0.34410  0.11050  0.74070  Biso   1.000  C
  H187     1.0000 0.35170  0.14310  0.75740  Biso   1.000  H
  C241     1.0000 0.34310  0.10730  0.68600  Biso   1.000  C
  C242     1.0000 0.33200  0.05960  0.66160  Biso   1.000  C
  H188     1.0000 0.33130  0.05740  0.62420  Biso   1.000  H
  C243     1.0000 0.32200  0.01500  0.69180  Biso   1.000  C
  H189     1.0000 0.31450  0.98240  0.67510  Biso   1.000  H
  N61      1.0000 0.30200  0.88930  0.80180  Biso   1.000  N
  N62      1.0000 0.31590  0.97300  0.77710  Biso   1.000  N
  C244     1.0000 0.18900  0.07660  0.26210  Biso   1.000  C
  H190     1.0000 0.18640  0.08740  0.22630  Biso   1.000  H
  C245     1.0000 0.19600  0.07570  0.34260  Biso   1.000  C
  H191     1.0000 0.20100  0.08580  0.37830  Biso   1.000  H
  C246     1.0000 0.18660  0.02770  0.32850  Biso   1.000  C
  H192     1.0000 0.18240  0.99840  0.35130  Biso   1.000  H
  C247     1.0000 0.17700  0.98180  0.24640  Biso   1.000  C
  C248     1.0000 0.16590  0.93410  0.27080  Biso   1.000  C
  H193     1.0000 0.16520  0.93190  0.30820  Biso   1.000  H
  C249     1.0000 0.15590  0.88950  0.24070  Biso   1.000  C
  H194     1.0000 0.14830  0.85690  0.25740  Biso   1.000  H
  C250     1.0000 0.15690  0.89270  0.18600  Biso   1.000  C
  C251     1.0000 0.16800  0.94040  0.16160  Biso   1.000  C
  H195     1.0000 0.16870  0.94260  0.12420  Biso   1.000  H
  C252     1.0000 0.17800  0.98500  0.19180  Biso   1.000  C
  H196     1.0000 0.18550  0.01760  0.17510  Biso   1.000  H
  N63      1.0000 0.19800  0.11070  0.30180  Biso   1.000  N
  N64      1.0000 0.18410  0.02700  0.27710  Biso   1.000  N
  C253     1.0000 0.23790  0.18900  0.42340  Biso   1.000  C
  H197     1.0000 0.27370  0.18640  0.41260  Biso   1.000  H
  C254     1.0000 0.15740  0.19600  0.42430  Biso   1.000  C
  H198     1.0000 0.12170  0.20100  0.41420  Biso   1.000  H
  C255     1.0000 0.17150  0.18660  0.47230  Biso   1.000  C
  H199     1.0000 0.14870  0.18240  0.50160  Biso   1.000  H
  C256     1.0000 0.25360  0.17700  0.51820  Biso   1.000  C
  C257     1.0000 0.22920  0.16590  0.56590  Biso   1.000  C
  H200     1.0000 0.19180  0.16520  0.56810  Biso   1.000  H
  C258     1.0000 0.25930  0.15590  0.61050  Biso   1.000  C
  H201     1.0000 0.24260  0.14830  0.64310  Biso   1.000  H
  C259     1.0000 0.31400  0.15690  0.60730  Biso   1.000  C
  C260     1.0000 0.33840  0.16800  0.55960  Biso   1.000  C
  H202     1.0000 0.37580  0.16870  0.55740  Biso   1.000  H
  C261     1.0000 0.30820  0.17800  0.51500  Biso   1.000  C
  H203     1.0000 0.32490  0.18550  0.48240  Biso   1.000  H
  N65      1.0000 0.19820  0.19800  0.38930  Biso   1.000  N
  N66      1.0000 0.22290  0.18410  0.47300  Biso   1.000  N
  C262     1.0000 0.73790  0.31100  0.57660  Biso   1.000  C
  H204     1.0000 0.77370  0.31360  0.58740  Biso   1.000  H
  C263     1.0000 0.65740  0.30400  0.57570  Biso   1.000  C
  H205     1.0000 0.62170  0.29900  0.58580  Biso   1.000  H
  C264     1.0000 0.67150  0.31340  0.52770  Biso   1.000  C
  H206     1.0000 0.64870  0.31760  0.49840  Biso   1.000  H
  C265     1.0000 0.75360  0.32300  0.48180  Biso   1.000  C
  C266     1.0000 0.72920  0.33410  0.43410  Biso   1.000  C
  H207     1.0000 0.69180  0.33480  0.43190  Biso   1.000  H
  C267     1.0000 0.75930  0.34410  0.38950  Biso   1.000  C
  H208     1.0000 0.74260  0.35170  0.35690  Biso   1.000  H
  C268     1.0000 0.81400  0.34310  0.39270  Biso   1.000  C
  C269     1.0000 0.83840  0.33200  0.44040  Biso   1.000  C
  H209     1.0000 0.87580  0.33130  0.44260  Biso   1.000  H
  C270     1.0000 0.80820  0.32200  0.48500  Biso   1.000  C
  H210     1.0000 0.82490  0.31450  0.51760  Biso   1.000  H
  N67      1.0000 0.69820  0.30200  0.61070  Biso   1.000  N
  N68      1.0000 0.72290  0.31590  0.52700  Biso   1.000  N
  C271     1.0000 0.26210  0.81100  0.92340  Biso   1.000  C
  H211     1.0000 0.22630  0.81360  0.91260  Biso   1.000  H
  C272     1.0000 0.34260  0.80400  0.92430  Biso   1.000  C
  H212     1.0000 0.37830  0.79900  0.91420  Biso   1.000  H
  C273     1.0000 0.32850  0.81340  0.97230  Biso   1.000  C
  H213     1.0000 0.35130  0.81760  0.00160  Biso   1.000  H
  C274     1.0000 0.24640  0.82300  0.01820  Biso   1.000  C
  C275     1.0000 0.27080  0.83410  0.06590  Biso   1.000  C
  H214     1.0000 0.30820  0.83480  0.06810  Biso   1.000  H
  C276     1.0000 0.24070  0.84410  0.11050  Biso   1.000  C
  H215     1.0000 0.25740  0.85170  0.14310  Biso   1.000  H
  C277     1.0000 0.18600  0.84310  0.10730  Biso   1.000  C
  C278     1.0000 0.16160  0.83200  0.05960  Biso   1.000  C
  H216     1.0000 0.12420  0.83130  0.05740  Biso   1.000  H
  C279     1.0000 0.19180  0.82200  0.01500  Biso   1.000  C
  H217     1.0000 0.17510  0.81450  0.98240  Biso   1.000  H
  N69      1.0000 0.30180  0.80200  0.88930  Biso   1.000  N
  N70      1.0000 0.27710  0.81590  0.97300  Biso   1.000  N
  C280     1.0000 0.76210  0.68900  0.07660  Biso   1.000  C
  H218     1.0000 0.72630  0.68640  0.08740  Biso   1.000  H
  C281     1.0000 0.84260  0.69600  0.07570  Biso   1.000  C
  H219     1.0000 0.87830  0.70100  0.08580  Biso   1.000  H
  C282     1.0000 0.82850  0.68660  0.02770  Biso   1.000  C
  H220     1.0000 0.85130  0.68240  0.99840  Biso   1.000  H
  C283     1.0000 0.74640  0.67700  0.98180  Biso   1.000  C
  C284     1.0000 0.77080  0.66590  0.93410  Biso   1.000  C
  H221     1.0000 0.80820  0.66520  0.93190  Biso   1.000  H
  C285     1.0000 0.74070  0.65590  0.88950  Biso   1.000  C
  H222     1.0000 0.75740  0.64830  0.85690  Biso   1.000  H
  C286     1.0000 0.68600  0.65690  0.89270  Biso   1.000  C
  C287     1.0000 0.66160  0.66800  0.94040  Biso   1.000  C
  H223     1.0000 0.62420  0.66870  0.94260  Biso   1.000  H
  C288     1.0000 0.69180  0.67800  0.98500  Biso   1.000  C
  H224     1.0000 0.67510  0.68550  0.01760  Biso   1.000  H
  N71      1.0000 0.80180  0.69800  0.11070  Biso   1.000  N
  N72      1.0000 0.77710  0.68410  0.02700  Biso   1.000  N
  C289     1.0000 0.92340  0.73790  0.18900  Biso   1.000  C
  H225     1.0000 0.91260  0.77370  0.18640  Biso   1.000  H
  C290     1.0000 0.92430  0.65740  0.19600  Biso   1.000  C
  H226     1.0000 0.91420  0.62170  0.20100  Biso   1.000  H
  C291     1.0000 0.97230  0.67150  0.18660  Biso   1.000  C
  H227     1.0000 0.00160  0.64870  0.18240  Biso   1.000  H
  C292     1.0000 0.01820  0.75360  0.17700  Biso   1.000  C
  C293     1.0000 0.06590  0.72920  0.16590  Biso   1.000  C
  H228     1.0000 0.06810  0.69180  0.16520  Biso   1.000  H
  C294     1.0000 0.11050  0.75930  0.15590  Biso   1.000  C
  H229     1.0000 0.14310  0.74260  0.14830  Biso   1.000  H
  C295     1.0000 0.10730  0.81400  0.15690  Biso   1.000  C
  C296     1.0000 0.05960  0.83840  0.16800  Biso   1.000  C
  H230     1.0000 0.05740  0.87580  0.16870  Biso   1.000  H
  C297     1.0000 0.01500  0.80820  0.17800  Biso   1.000  C
  H231     1.0000 0.98240  0.82490  0.18550  Biso   1.000  H
  N73      1.0000 0.88930  0.69820  0.19800  Biso   1.000  N
  N74      1.0000 0.97300  0.72290  0.18410  Biso   1.000  N
  C298     1.0000 0.07660  0.23790  0.31100  Biso   1.000  C
  H232     1.0000 0.08740  0.27370  0.31360  Biso   1.000  H
  C299     1.0000 0.07570  0.15740  0.30400  Biso   1.000  C
  H233     1.0000 0.08580  0.12170  0.29900  Biso   1.000  H
  C300     1.0000 0.02770  0.17150  0.31340  Biso   1.000  C
  H234     1.0000 0.99840  0.14870  0.31760  Biso   1.000  H
  C301     1.0000 0.98180  0.25360  0.32300  Biso   1.000  C
  C302     1.0000 0.93410  0.22920  0.33410  Biso   1.000  C
  H235     1.0000 0.93190  0.19180  0.33480  Biso   1.000  H
  C303     1.0000 0.88950  0.25930  0.34410  Biso   1.000  C
  H236     1.0000 0.85690  0.24260  0.35170  Biso   1.000  H
  C304     1.0000 0.89270  0.31400  0.34310  Biso   1.000  C
  C305     1.0000 0.94040  0.33840  0.33200  Biso   1.000  C
  H237     1.0000 0.94260  0.37580  0.33130  Biso   1.000  H
  C306     1.0000 0.98500  0.30820  0.32200  Biso   1.000  C
  H238     1.0000 0.01760  0.32490  0.31450  Biso   1.000  H
  N75      1.0000 0.11070  0.19820  0.30200  Biso   1.000  N
  N76      1.0000 0.02700  0.22290  0.31590  Biso   1.000  N
  C307     1.0000 0.42340  0.76210  0.81100  Biso   1.000  C
  H239     1.0000 0.41260  0.72630  0.81360  Biso   1.000  H
  C308     1.0000 0.42430  0.84260  0.80400  Biso   1.000  C
  H240     1.0000 0.41420  0.87830  0.79900  Biso   1.000  H
  C309     1.0000 0.47230  0.82850  0.81340  Biso   1.000  C
  H241     1.0000 0.50160  0.85130  0.81760  Biso   1.000  H
  C310     1.0000 0.51820  0.74640  0.82300  Biso   1.000  C
  C311     1.0000 0.56590  0.77080  0.83410  Biso   1.000  C
  H242     1.0000 0.56810  0.80820  0.83480  Biso   1.000  H
  C312     1.0000 0.61050  0.74070  0.84410  Biso   1.000  C
  H243     1.0000 0.64310  0.75740  0.85170  Biso   1.000  H
  C313     1.0000 0.60730  0.68600  0.84310  Biso   1.000  C
  C314     1.0000 0.55960  0.66160  0.83200  Biso   1.000  C
  H244     1.0000 0.55740  0.62420  0.83130  Biso   1.000  H
  C315     1.0000 0.51500  0.69180  0.82200  Biso   1.000  C
  H245     1.0000 0.48240  0.67510  0.81450  Biso   1.000  H
  N77      1.0000 0.38930  0.80180  0.80200  Biso   1.000  N
  N78      1.0000 0.47300  0.77710  0.81590  Biso   1.000  N
  C316     1.0000 0.57660  0.26210  0.68900  Biso   1.000  C
  H246     1.0000 0.58740  0.22630  0.68640  Biso   1.000  H
  C317     1.0000 0.57570  0.34260  0.69600  Biso   1.000  C
  H247     1.0000 0.58580  0.37830  0.70100  Biso   1.000  H
  C318     1.0000 0.52770  0.32850  0.68660  Biso   1.000  C
  H248     1.0000 0.49840  0.35130  0.68240  Biso   1.000  H
  C319     1.0000 0.48180  0.24640  0.67700  Biso   1.000  C
  C320     1.0000 0.43410  0.27080  0.66590  Biso   1.000  C
  H249     1.0000 0.43190  0.30820  0.66520  Biso   1.000  H
  C321     1.0000 0.38950  0.24070  0.65590  Biso   1.000  C
  H250     1.0000 0.35690  0.25740  0.64830  Biso   1.000  H
  C322     1.0000 0.39270  0.18600  0.65690  Biso   1.000  C
  C323     1.0000 0.44040  0.16160  0.66800  Biso   1.000  C
  H251     1.0000 0.44260  0.12420  0.66870  Biso   1.000  H
  C324     1.0000 0.48500  0.19180  0.67800  Biso   1.000  C
  H252     1.0000 0.51760  0.17510  0.68550  Biso   1.000  H
  N79      1.0000 0.61070  0.30180  0.69800  Biso   1.000  N
  N80      1.0000 0.52700  0.27710  0.68410  Biso   1.000  N
  Cd9      1.0000 0.79989  0.70011  0.20011  Biso   1.000  Cd
  Cd10     1.0000 0.20011  0.20011  0.29989  Biso   1.000  Cd
  Cd11     1.0000 0.29989  0.79989  0.79989  Biso   1.000  Cd
  Cd12     1.0000 0.70011  0.29989  0.70011  Biso   1.000  Cd
  N81      1.0000 0.84470  0.34470  0.34470  Biso   1.000  N
  N82      1.0000 0.15530  0.84470  0.15530  Biso   1.000  N
  N83      1.0000 0.34470  0.15530  0.65530  Biso   1.000  N
  N84      1.0000 0.65530  0.65530  0.84470  Biso   1.000  N
  C325     1.0000 0.68900  0.92340  0.23790  Biso   1.000  C
  H253     1.0000 0.68640  0.91260  0.27370  Biso   1.000  H
  C326     1.0000 0.69600  0.92430  0.15740  Biso   1.000  C
  H254     1.0000 0.70100  0.91420  0.12170  Biso   1.000  H
  C327     1.0000 0.68660  0.97230  0.17150  Biso   1.000  C
  H255     1.0000 0.68240  0.00160  0.14870  Biso   1.000  H
  C328     1.0000 0.67700  0.01820  0.25360  Biso   1.000  C
  C329     1.0000 0.66590  0.06590  0.22920  Biso   1.000  C
  H256     1.0000 0.66520  0.06810  0.19180  Biso   1.000  H
  C330     1.0000 0.65590  0.11050  0.25930  Biso   1.000  C
  H257     1.0000 0.64830  0.14310  0.24260  Biso   1.000  H
  C331     1.0000 0.65690  0.10730  0.31400  Biso   1.000  C
  C332     1.0000 0.66800  0.05960  0.33840  Biso   1.000  C
  H258     1.0000 0.66870  0.05740  0.37580  Biso   1.000  H
  C333     1.0000 0.67800  0.01500  0.30820  Biso   1.000  C
  H259     1.0000 0.68550  0.98240  0.32490  Biso   1.000  H
  N85      1.0000 0.69800  0.88930  0.19820  Biso   1.000  N
  N86      1.0000 0.68410  0.97300  0.22290  Biso   1.000  N
  C334     1.0000 0.81100  0.07660  0.73790  Biso   1.000  C
  H260     1.0000 0.81360  0.08740  0.77370  Biso   1.000  H
  C335     1.0000 0.80400  0.07570  0.65740  Biso   1.000  C
  H261     1.0000 0.79900  0.08580  0.62170  Biso   1.000  H
  C336     1.0000 0.81340  0.02770  0.67150  Biso   1.000  C
  H262     1.0000 0.81760  0.99840  0.64870  Biso   1.000  H
  C337     1.0000 0.82300  0.98180  0.75360  Biso   1.000  C
  C338     1.0000 0.83410  0.93410  0.72920  Biso   1.000  C
  H263     1.0000 0.83480  0.93190  0.69180  Biso   1.000  H
  C339     1.0000 0.84410  0.88950  0.75930  Biso   1.000  C
  H264     1.0000 0.85170  0.85690  0.74260  Biso   1.000  H
  C340     1.0000 0.84310  0.89270  0.81400  Biso   1.000  C
  C341     1.0000 0.83200  0.94040  0.83840  Biso   1.000  C
  H265     1.0000 0.83130  0.94260  0.87580  Biso   1.000  H
  C342     1.0000 0.82200  0.98500  0.80820  Biso   1.000  C
  H266     1.0000 0.81450  0.01760  0.82490  Biso   1.000  H
  N87      1.0000 0.80200  0.11070  0.69820  Biso   1.000  N
  N88      1.0000 0.81590  0.02700  0.72290  Biso   1.000  N
  C343     1.0000 0.31100  0.42340  0.26210  Biso   1.000  C
  H267     1.0000 0.31360  0.41260  0.22630  Biso   1.000  H
  C344     1.0000 0.30400  0.42430  0.34260  Biso   1.000  C
  H268     1.0000 0.29900  0.41420  0.37830  Biso   1.000  H
  C345     1.0000 0.31340  0.47230  0.32850  Biso   1.000  C
  H269     1.0000 0.31760  0.50160  0.35130  Biso   1.000  H
  C346     1.0000 0.32300  0.51820  0.24640  Biso   1.000  C
  C347     1.0000 0.33410  0.56590  0.27080  Biso   1.000  C
  H270     1.0000 0.33480  0.56810  0.30820  Biso   1.000  H
  C348     1.0000 0.34410  0.61050  0.24070  Biso   1.000  C
  H271     1.0000 0.35170  0.64310  0.25740  Biso   1.000  H
  C349     1.0000 0.34310  0.60730  0.18600  Biso   1.000  C
  C350     1.0000 0.33200  0.55960  0.16160  Biso   1.000  C
  H272     1.0000 0.33130  0.55740  0.12420  Biso   1.000  H
  C351     1.0000 0.32200  0.51500  0.19180  Biso   1.000  C
  H273     1.0000 0.31450  0.48240  0.17510  Biso   1.000  H
  N89      1.0000 0.30200  0.38930  0.30180  Biso   1.000  N
  N90      1.0000 0.31590  0.47300  0.27710  Biso   1.000  N
  C352     1.0000 0.18900  0.57660  0.76210  Biso   1.000  C
  H274     1.0000 0.18640  0.58740  0.72630  Biso   1.000  H
  C353     1.0000 0.19600  0.57570  0.84260  Biso   1.000  C
  H275     1.0000 0.20100  0.58580  0.87830  Biso   1.000  H
  C354     1.0000 0.18660  0.52770  0.82850  Biso   1.000  C
  H276     1.0000 0.18240  0.49840  0.85130  Biso   1.000  H
  C355     1.0000 0.17700  0.48180  0.74640  Biso   1.000  C
  C356     1.0000 0.16590  0.43410  0.77080  Biso   1.000  C
  H277     1.0000 0.16520  0.43190  0.80820  Biso   1.000  H
  C357     1.0000 0.15590  0.38950  0.74070  Biso   1.000  C
  H278     1.0000 0.14830  0.35690  0.75740  Biso   1.000  H
  C358     1.0000 0.15690  0.39270  0.68600  Biso   1.000  C
  C359     1.0000 0.16800  0.44040  0.66160  Biso   1.000  C
  H279     1.0000 0.16870  0.44260  0.62420  Biso   1.000  H
  C360     1.0000 0.17800  0.48500  0.69180  Biso   1.000  C
  H280     1.0000 0.18550  0.51760  0.67510  Biso   1.000  H
  N91      1.0000 0.19800  0.61070  0.80180  Biso   1.000  N
  N92      1.0000 0.18410  0.52700  0.77710  Biso   1.000  N
  C361     1.0000 0.23790  0.68900  0.92340  Biso   1.000  C
  H281     1.0000 0.27370  0.68640  0.91260  Biso   1.000  H
  C362     1.0000 0.15740  0.69600  0.92430  Biso   1.000  C
  H282     1.0000 0.12170  0.70100  0.91420  Biso   1.000  H
  C363     1.0000 0.17150  0.68660  0.97230  Biso   1.000  C
  H283     1.0000 0.14870  0.68240  0.00160  Biso   1.000  H
  C364     1.0000 0.25360  0.67700  0.01820  Biso   1.000  C
  C365     1.0000 0.22920  0.66590  0.06590  Biso   1.000  C
  H284     1.0000 0.19180  0.66520  0.06810  Biso   1.000  H
  C366     1.0000 0.25930  0.65590  0.11050  Biso   1.000  C
  H285     1.0000 0.24260  0.64830  0.14310  Biso   1.000  H
  C367     1.0000 0.31400  0.65690  0.10730  Biso   1.000  C
  C368     1.0000 0.33840  0.66800  0.05960  Biso   1.000  C
  H286     1.0000 0.37580  0.66870  0.05740  Biso   1.000  H
  C369     1.0000 0.30820  0.67800  0.01500  Biso   1.000  C
  H287     1.0000 0.32490  0.68550  0.98240  Biso   1.000  H
  N93      1.0000 0.19820  0.69800  0.88930  Biso   1.000  N
  N94      1.0000 0.22290  0.68410  0.97300  Biso   1.000  N
  C370     1.0000 0.73790  0.81100  0.07660  Biso   1.000  C
  H288     1.0000 0.77370  0.81360  0.08740  Biso   1.000  H
  C371     1.0000 0.65740  0.80400  0.07570  Biso   1.000  C
  H289     1.0000 0.62170  0.79900  0.08580  Biso   1.000  H
  C372     1.0000 0.67150  0.81340  0.02770  Biso   1.000  C
  H290     1.0000 0.64870  0.81760  0.99840  Biso   1.000  H
  C373     1.0000 0.75360  0.82300  0.98180  Biso   1.000  C
  C374     1.0000 0.72920  0.83410  0.93410  Biso   1.000  C
  H291     1.0000 0.69180  0.83480  0.93190  Biso   1.000  H
  C375     1.0000 0.75930  0.84410  0.88950  Biso   1.000  C
  H292     1.0000 0.74260  0.85170  0.85690  Biso   1.000  H
  C376     1.0000 0.81400  0.84310  0.89270  Biso   1.000  C
  C377     1.0000 0.83840  0.83200  0.94040  Biso   1.000  C
  H293     1.0000 0.87580  0.83130  0.94260  Biso   1.000  H
  C378     1.0000 0.80820  0.82200  0.98500  Biso   1.000  C
  H294     1.0000 0.82490  0.81450  0.01760  Biso   1.000  H
  N95      1.0000 0.69820  0.80200  0.11070  Biso   1.000  N
  N96      1.0000 0.72290  0.81590  0.02700  Biso   1.000  N
  C379     1.0000 0.26210  0.31100  0.42340  Biso   1.000  C
  H295     1.0000 0.22630  0.31360  0.41260  Biso   1.000  H
  C380     1.0000 0.34260  0.30400  0.42430  Biso   1.000  C
  H296     1.0000 0.37830  0.29900  0.41420  Biso   1.000  H
  C381     1.0000 0.32850  0.31340  0.47230  Biso   1.000  C
  H297     1.0000 0.35130  0.31760  0.50160  Biso   1.000  H
  C382     1.0000 0.24640  0.32300  0.51820  Biso   1.000  C
  C383     1.0000 0.27080  0.33410  0.56590  Biso   1.000  C
  H298     1.0000 0.30820  0.33480  0.56810  Biso   1.000  H
  C384     1.0000 0.24070  0.34410  0.61050  Biso   1.000  C
  H299     1.0000 0.25740  0.35170  0.64310  Biso   1.000  H
  C385     1.0000 0.18600  0.34310  0.60730  Biso   1.000  C
  C386     1.0000 0.16160  0.33200  0.55960  Biso   1.000  C
  H300     1.0000 0.12420  0.33130  0.55740  Biso   1.000  H
  C387     1.0000 0.19180  0.32200  0.51500  Biso   1.000  C
  H301     1.0000 0.17510  0.31450  0.48240  Biso   1.000  H
  N97      1.0000 0.30180  0.30200  0.38930  Biso   1.000  N
  N98      1.0000 0.27710  0.31590  0.47300  Biso   1.000  N
  C388     1.0000 0.76210  0.18900  0.57660  Biso   1.000  C
  H302     1.0000 0.72630  0.18640  0.58740  Biso   1.000  H
  C389     1.0000 0.84260  0.19600  0.57570  Biso   1.000  C
  H303     1.0000 0.87830  0.20100  0.58580  Biso   1.000  H
  C390     1.0000 0.82850  0.18660  0.52770  Biso   1.000  C
  H304     1.0000 0.85130  0.18240  0.49840  Biso   1.000  H
  C391     1.0000 0.74640  0.17700  0.48180  Biso   1.000  C
  C392     1.0000 0.77080  0.16590  0.43410  Biso   1.000  C
  H305     1.0000 0.80820  0.16520  0.43190  Biso   1.000  H
  C393     1.0000 0.74070  0.15590  0.38950  Biso   1.000  C
  H306     1.0000 0.75740  0.14830  0.35690  Biso   1.000  H
  C394     1.0000 0.68600  0.15690  0.39270  Biso   1.000  C
  C395     1.0000 0.66160  0.16800  0.44040  Biso   1.000  C
  H307     1.0000 0.62420  0.16870  0.44260  Biso   1.000  H
  C396     1.0000 0.69180  0.17800  0.48500  Biso   1.000  C
  H308     1.0000 0.67510  0.18550  0.51760  Biso   1.000  H
  N99      1.0000 0.80180  0.19800  0.61070  Biso   1.000  N
  N100     1.0000 0.77710  0.18410  0.52700  Biso   1.000  N
  C397     1.0000 0.92340  0.23790  0.68900  Biso   1.000  C
  H309     1.0000 0.91260  0.27370  0.68640  Biso   1.000  H
  C398     1.0000 0.92430  0.15740  0.69600  Biso   1.000  C
  H310     1.0000 0.91420  0.12170  0.70100  Biso   1.000  H
  C399     1.0000 0.97230  0.17150  0.68660  Biso   1.000  C
  H311     1.0000 0.00160  0.14870  0.68240  Biso   1.000  H
  C400     1.0000 0.01820  0.25360  0.67700  Biso   1.000  C
  C401     1.0000 0.06590  0.22920  0.66590  Biso   1.000  C
  H312     1.0000 0.06810  0.19180  0.66520  Biso   1.000  H
  C402     1.0000 0.11050  0.25930  0.65590  Biso   1.000  C
  H313     1.0000 0.14310  0.24260  0.64830  Biso   1.000  H
  C403     1.0000 0.10730  0.31400  0.65690  Biso   1.000  C
  C404     1.0000 0.05960  0.33840  0.66800  Biso   1.000  C
  H314     1.0000 0.05740  0.37580  0.66870  Biso   1.000  H
  C405     1.0000 0.01500  0.30820  0.67800  Biso   1.000  C
  H315     1.0000 0.98240  0.32490  0.68550  Biso   1.000  H
  N101     1.0000 0.88930  0.19820  0.69800  Biso   1.000  N
  N102     1.0000 0.97300  0.22290  0.68410  Biso   1.000  N
  C406     1.0000 0.07660  0.73790  0.81100  Biso   1.000  C
  H316     1.0000 0.08740  0.77370  0.81360  Biso   1.000  H
  C407     1.0000 0.07570  0.65740  0.80400  Biso   1.000  C
  H317     1.0000 0.08580  0.62170  0.79900  Biso   1.000  H
  C408     1.0000 0.02770  0.67150  0.81340  Biso   1.000  C
  H318     1.0000 0.99840  0.64870  0.81760  Biso   1.000  H
  C409     1.0000 0.98180  0.75360  0.82300  Biso   1.000  C
  C410     1.0000 0.93410  0.72920  0.83410  Biso   1.000  C
  H319     1.0000 0.93190  0.69180  0.83480  Biso   1.000  H
  C411     1.0000 0.88950  0.75930  0.84410  Biso   1.000  C
  H320     1.0000 0.85690  0.74260  0.85170  Biso   1.000  H
  C412     1.0000 0.89270  0.81400  0.84310  Biso   1.000  C
  C413     1.0000 0.94040  0.83840  0.83200  Biso   1.000  C
  H321     1.0000 0.94260  0.87580  0.83130  Biso   1.000  H
  C414     1.0000 0.98500  0.80820  0.82200  Biso   1.000  C
  H322     1.0000 0.01760  0.82490  0.81450  Biso   1.000  H
  N103     1.0000 0.11070  0.69820  0.80200  Biso   1.000  N
  N104     1.0000 0.02700  0.72290  0.81590  Biso   1.000  N
  C415     1.0000 0.42340  0.26210  0.31100  Biso   1.000  C
  H323     1.0000 0.41260  0.22630  0.31360  Biso   1.000  H
  C416     1.0000 0.42430  0.34260  0.30400  Biso   1.000  C
  H324     1.0000 0.41420  0.37830  0.29900  Biso   1.000  H
  C417     1.0000 0.47230  0.32850  0.31340  Biso   1.000  C
  H325     1.0000 0.50160  0.35130  0.31760  Biso   1.000  H
  C418     1.0000 0.51820  0.24640  0.32300  Biso   1.000  C
  C419     1.0000 0.56590  0.27080  0.33410  Biso   1.000  C
  H326     1.0000 0.56810  0.30820  0.33480  Biso   1.000  H
  C420     1.0000 0.61050  0.24070  0.34410  Biso   1.000  C
  H327     1.0000 0.64310  0.25740  0.35170  Biso   1.000  H
  C421     1.0000 0.60730  0.18600  0.34310  Biso   1.000  C
  C422     1.0000 0.55960  0.16160  0.33200  Biso   1.000  C
  H328     1.0000 0.55740  0.12420  0.33130  Biso   1.000  H
  C423     1.0000 0.51500  0.19180  0.32200  Biso   1.000  C
  H329     1.0000 0.48240  0.17510  0.31450  Biso   1.000  H
  N105     1.0000 0.38930  0.30180  0.30200  Biso   1.000  N
  N106     1.0000 0.47300  0.27710  0.31590  Biso   1.000  N
  C424     1.0000 0.57660  0.76210  0.18900  Biso   1.000  C
  H330     1.0000 0.58740  0.72630  0.18640  Biso   1.000  H
  C425     1.0000 0.57570  0.84260  0.19600  Biso   1.000  C
  H331     1.0000 0.58580  0.87830  0.20100  Biso   1.000  H
  C426     1.0000 0.52770  0.82850  0.18660  Biso   1.000  C
  H332     1.0000 0.49840  0.85130  0.18240  Biso   1.000  H
  C427     1.0000 0.48180  0.74640  0.17700  Biso   1.000  C
  C428     1.0000 0.43410  0.77080  0.16590  Biso   1.000  C
  H333     1.0000 0.43190  0.80820  0.16520  Biso   1.000  H
  C429     1.0000 0.38950  0.74070  0.15590  Biso   1.000  C
  H334     1.0000 0.35690  0.75740  0.14830  Biso   1.000  H
  C430     1.0000 0.39270  0.68600  0.15690  Biso   1.000  C
  C431     1.0000 0.44040  0.66160  0.16800  Biso   1.000  C
  H335     1.0000 0.44260  0.62420  0.16870  Biso   1.000  H
  C432     1.0000 0.48500  0.69180  0.17800  Biso   1.000  C
  H336     1.0000 0.51760  0.67510  0.18550  Biso   1.000  H
  N107     1.0000 0.61070  0.80180  0.19800  Biso   1.000  N
  N108     1.0000 0.52700  0.77710  0.18410  Biso   1.000  N
  Cd13     1.0000 0.29989  0.29989  0.29989  Biso   1.000  Cd
  Cd14     1.0000 0.20011  0.70011  0.79989  Biso   1.000  Cd
  Cd15     1.0000 0.79989  0.20011  0.70011  Biso   1.000  Cd
  Cd16     1.0000 0.70011  0.79989  0.20011  Biso   1.000  Cd
  N109     1.0000 0.84470  0.84470  0.84470  Biso   1.000  N
  N110     1.0000 0.15530  0.34470  0.65530  Biso   1.000  N
  N111     1.0000 0.65530  0.15530  0.34470  Biso   1.000  N
  N112     1.0000 0.34470  0.65530  0.15530  Biso   1.000  N
