data_image0
_cell_length_a       31.34
_cell_length_b       31.34
_cell_length_c       31.34
_cell_angle_alpha    90
_cell_angle_beta     90
_cell_angle_gamma    90

_symmetry_space_group_name_H-M    "P 1"
_symmetry_int_tables_number       1

loop_
  _symmetry_equiv_pos_as_xyz
  'x, y, z'

loop_
  _atom_site_label
  _atom_site_occupancy
  _atom_site_fract_x
  _atom_site_fract_y
  _atom_site_fract_z
  _atom_site_thermal_displace_type
  _atom_site_B_iso_or_equiv
  _atom_site_type_symbol
  Ni1      1.0000 0.21610  0.03600  0.03420  Biso   1.000  Ni
  Ni2      1.0000 0.21610  0.53600  0.53420  Biso   1.000  Ni
  Ni3      1.0000 0.71610  0.03600  0.53420  Biso   1.000  Ni
  Ni4      1.0000 0.71610  0.53600  0.03420  Biso   1.000  Ni
  Ni5      1.0000 0.78390  0.96400  0.03420  Biso   1.000  Ni
  Ni6      1.0000 0.78390  0.46400  0.53420  Biso   1.000  Ni
  Ni7      1.0000 0.28390  0.96400  0.53420  Biso   1.000  Ni
  Ni8      1.0000 0.28390  0.46400  0.03420  Biso   1.000  Ni
  Ni9      1.0000 0.78390  0.03600  0.96580  Biso   1.000  Ni
  Ni10     1.0000 0.78390  0.53600  0.46580  Biso   1.000  Ni
  Ni11     1.0000 0.28390  0.03600  0.46580  Biso   1.000  Ni
  Ni12     1.0000 0.28390  0.53600  0.96580  Biso   1.000  Ni
  Ni13     1.0000 0.21610  0.96400  0.96580  Biso   1.000  Ni
  Ni14     1.0000 0.21610  0.46400  0.46580  Biso   1.000  Ni
  Ni15     1.0000 0.71610  0.96400  0.46580  Biso   1.000  Ni
  Ni16     1.0000 0.71610  0.46400  0.96580  Biso   1.000  Ni
  Ni17     1.0000 0.03420  0.21610  0.03600  Biso   1.000  Ni
  Ni18     1.0000 0.03420  0.71610  0.53600  Biso   1.000  Ni
  Ni19     1.0000 0.53420  0.21610  0.53600  Biso   1.000  Ni
  Ni20     1.0000 0.53420  0.71610  0.03600  Biso   1.000  Ni
  Ni21     1.0000 0.03420  0.78390  0.96400  Biso   1.000  Ni
  Ni22     1.0000 0.03420  0.28390  0.46400  Biso   1.000  Ni
  Ni23     1.0000 0.53420  0.78390  0.46400  Biso   1.000  Ni
  Ni24     1.0000 0.53420  0.28390  0.96400  Biso   1.000  Ni
  Ni25     1.0000 0.96580  0.78390  0.03600  Biso   1.000  Ni
  Ni26     1.0000 0.96580  0.28390  0.53600  Biso   1.000  Ni
  Ni27     1.0000 0.46580  0.78390  0.53600  Biso   1.000  Ni
  Ni28     1.0000 0.46580  0.28390  0.03600  Biso   1.000  Ni
  Ni29     1.0000 0.96580  0.21610  0.96400  Biso   1.000  Ni
  Ni30     1.0000 0.96580  0.71610  0.46400  Biso   1.000  Ni
  Ni31     1.0000 0.46580  0.21610  0.46400  Biso   1.000  Ni
  Ni32     1.0000 0.46580  0.71610  0.96400  Biso   1.000  Ni
  Ni33     1.0000 0.03600  0.03420  0.21610  Biso   1.000  Ni
  Ni34     1.0000 0.03600  0.53420  0.71610  Biso   1.000  Ni
  Ni35     1.0000 0.53600  0.03420  0.71610  Biso   1.000  Ni
  Ni36     1.0000 0.53600  0.53420  0.21610  Biso   1.000  Ni
  Ni37     1.0000 0.96400  0.03420  0.78390  Biso   1.000  Ni
  Ni38     1.0000 0.96400  0.53420  0.28390  Biso   1.000  Ni
  Ni39     1.0000 0.46400  0.03420  0.28390  Biso   1.000  Ni
  Ni40     1.0000 0.46400  0.53420  0.78390  Biso   1.000  Ni
  Ni41     1.0000 0.03600  0.96580  0.78390  Biso   1.000  Ni
  Ni42     1.0000 0.03600  0.46580  0.28390  Biso   1.000  Ni
  Ni43     1.0000 0.53600  0.96580  0.28390  Biso   1.000  Ni
  Ni44     1.0000 0.53600  0.46580  0.78390  Biso   1.000  Ni
  Ni45     1.0000 0.96400  0.96580  0.21610  Biso   1.000  Ni
  Ni46     1.0000 0.96400  0.46580  0.71610  Biso   1.000  Ni
  Ni47     1.0000 0.46400  0.96580  0.71610  Biso   1.000  Ni
  Ni48     1.0000 0.46400  0.46580  0.21610  Biso   1.000  Ni
  Ni49     1.0000 0.78390  0.96400  0.96580  Biso   1.000  Ni
  Ni50     1.0000 0.78390  0.46400  0.46580  Biso   1.000  Ni
  Ni51     1.0000 0.28390  0.96400  0.46580  Biso   1.000  Ni
  Ni52     1.0000 0.28390  0.46400  0.96580  Biso   1.000  Ni
  Ni53     1.0000 0.21610  0.03600  0.96580  Biso   1.000  Ni
  Ni54     1.0000 0.21610  0.53600  0.46580  Biso   1.000  Ni
  Ni55     1.0000 0.71610  0.03600  0.46580  Biso   1.000  Ni
  Ni56     1.0000 0.71610  0.53600  0.96580  Biso   1.000  Ni
  Ni57     1.0000 0.21610  0.96400  0.03420  Biso   1.000  Ni
  Ni58     1.0000 0.21610  0.46400  0.53420  Biso   1.000  Ni
  Ni59     1.0000 0.71610  0.96400  0.53420  Biso   1.000  Ni
  Ni60     1.0000 0.71610  0.46400  0.03420  Biso   1.000  Ni
  Ni61     1.0000 0.78390  0.03600  0.03420  Biso   1.000  Ni
  Ni62     1.0000 0.78390  0.53600  0.53420  Biso   1.000  Ni
  Ni63     1.0000 0.28390  0.03600  0.53420  Biso   1.000  Ni
  Ni64     1.0000 0.28390  0.53600  0.03420  Biso   1.000  Ni
  Ni65     1.0000 0.96580  0.78390  0.96400  Biso   1.000  Ni
  Ni66     1.0000 0.96580  0.28390  0.46400  Biso   1.000  Ni
  Ni67     1.0000 0.46580  0.78390  0.46400  Biso   1.000  Ni
  Ni68     1.0000 0.46580  0.28390  0.96400  Biso   1.000  Ni
  Ni69     1.0000 0.96580  0.21610  0.03600  Biso   1.000  Ni
  Ni70     1.0000 0.96580  0.71610  0.53600  Biso   1.000  Ni
  Ni71     1.0000 0.46580  0.21610  0.53600  Biso   1.000  Ni
  Ni72     1.0000 0.46580  0.71610  0.03600  Biso   1.000  Ni
  Ni73     1.0000 0.03420  0.21610  0.96400  Biso   1.000  Ni
  Ni74     1.0000 0.03420  0.71610  0.46400  Biso   1.000  Ni
  Ni75     1.0000 0.53420  0.21610  0.46400  Biso   1.000  Ni
  Ni76     1.0000 0.53420  0.71610  0.96400  Biso   1.000  Ni
  Ni77     1.0000 0.03420  0.78390  0.03600  Biso   1.000  Ni
  Ni78     1.0000 0.03420  0.28390  0.53600  Biso   1.000  Ni
  Ni79     1.0000 0.53420  0.78390  0.53600  Biso   1.000  Ni
  Ni80     1.0000 0.53420  0.28390  0.03600  Biso   1.000  Ni
  Ni81     1.0000 0.96400  0.96580  0.78390  Biso   1.000  Ni
  Ni82     1.0000 0.96400  0.46580  0.28390  Biso   1.000  Ni
  Ni83     1.0000 0.46400  0.96580  0.28390  Biso   1.000  Ni
  Ni84     1.0000 0.46400  0.46580  0.78390  Biso   1.000  Ni
  Ni85     1.0000 0.03600  0.96580  0.21610  Biso   1.000  Ni
  Ni86     1.0000 0.03600  0.46580  0.71610  Biso   1.000  Ni
  Ni87     1.0000 0.53600  0.96580  0.71610  Biso   1.000  Ni
  Ni88     1.0000 0.53600  0.46580  0.21610  Biso   1.000  Ni
  Ni89     1.0000 0.96400  0.03420  0.21610  Biso   1.000  Ni
  Ni90     1.0000 0.96400  0.53420  0.71610  Biso   1.000  Ni
  Ni91     1.0000 0.46400  0.03420  0.71610  Biso   1.000  Ni
  Ni92     1.0000 0.46400  0.53420  0.21610  Biso   1.000  Ni
  Ni93     1.0000 0.03600  0.03420  0.78390  Biso   1.000  Ni
  Ni94     1.0000 0.03600  0.53420  0.28390  Biso   1.000  Ni
  Ni95     1.0000 0.53600  0.03420  0.28390  Biso   1.000  Ni
  Ni96     1.0000 0.53600  0.53420  0.78390  Biso   1.000  Ni
  Ni97     1.0000 0.32147  0.00000  0.00000  Biso   1.000  Ni
  O1       1.0000 0.25500  0.00000  0.00000  Biso   1.000  O
  Ni98     1.0000 0.32147  0.50000  0.50000  Biso   1.000  Ni
  O2       1.0000 0.25500  0.50000  0.50000  Biso   1.000  O
  Ni99     1.0000 0.82147  0.00000  0.50000  Biso   1.000  Ni
  O3       1.0000 0.75500  0.00000  0.50000  Biso   1.000  O
  Ni100    1.0000 0.82147  0.50000  0.00000  Biso   1.000  Ni
  O4       1.0000 0.75500  0.50000  0.00000  Biso   1.000  O
  Ni101    1.0000 0.67853  0.00000  0.00000  Biso   1.000  Ni
  O5       1.0000 0.74500  0.00000  0.00000  Biso   1.000  O
  Ni102    1.0000 0.67853  0.50000  0.50000  Biso   1.000  Ni
  O6       1.0000 0.74500  0.50000  0.50000  Biso   1.000  O
  Ni103    1.0000 0.17853  0.00000  0.50000  Biso   1.000  Ni
  O7       1.0000 0.24500  0.00000  0.50000  Biso   1.000  O
  Ni104    1.0000 0.17853  0.50000  0.00000  Biso   1.000  Ni
  O8       1.0000 0.24500  0.50000  0.00000  Biso   1.000  O
  Ni105    1.0000 0.00000  0.32147  0.00000  Biso   1.000  Ni
  O9       1.0000 0.00000  0.25500  0.00000  Biso   1.000  O
  Ni106    1.0000 0.00000  0.82147  0.50000  Biso   1.000  Ni
  O10      1.0000 0.00000  0.75500  0.50000  Biso   1.000  O
  Ni107    1.0000 0.50000  0.32147  0.50000  Biso   1.000  Ni
  O11      1.0000 0.50000  0.25500  0.50000  Biso   1.000  O
  Ni108    1.0000 0.50000  0.82147  0.00000  Biso   1.000  Ni
  O12      1.0000 0.50000  0.75500  0.00000  Biso   1.000  O
  Ni109    1.0000 0.00000  0.67853  0.00000  Biso   1.000  Ni
  O13      1.0000 0.00000  0.74500  0.00000  Biso   1.000  O
  Ni110    1.0000 0.00000  0.17853  0.50000  Biso   1.000  Ni
  O14      1.0000 0.00000  0.24500  0.50000  Biso   1.000  O
  Ni111    1.0000 0.50000  0.67853  0.50000  Biso   1.000  Ni
  O15      1.0000 0.50000  0.74500  0.50000  Biso   1.000  O
  Ni112    1.0000 0.50000  0.17853  0.00000  Biso   1.000  Ni
  O16      1.0000 0.50000  0.24500  0.00000  Biso   1.000  O
  Ni113    1.0000 0.00000  0.00000  0.32147  Biso   1.000  Ni
  O17      1.0000 0.00000  0.00000  0.25500  Biso   1.000  O
  Ni114    1.0000 0.00000  0.50000  0.82147  Biso   1.000  Ni
  O18      1.0000 0.00000  0.50000  0.75500  Biso   1.000  O
  Ni115    1.0000 0.50000  0.00000  0.82147  Biso   1.000  Ni
  O19      1.0000 0.50000  0.00000  0.75500  Biso   1.000  O
  Ni116    1.0000 0.50000  0.50000  0.32147  Biso   1.000  Ni
  O20      1.0000 0.50000  0.50000  0.25500  Biso   1.000  O
  Ni117    1.0000 0.00000  0.00000  0.67853  Biso   1.000  Ni
  O21      1.0000 0.00000  0.00000  0.74500  Biso   1.000  O
  Ni118    1.0000 0.00000  0.50000  0.17853  Biso   1.000  Ni
  O22      1.0000 0.00000  0.50000  0.24500  Biso   1.000  O
  Ni119    1.0000 0.50000  0.00000  0.17853  Biso   1.000  Ni
  O23      1.0000 0.50000  0.00000  0.24500  Biso   1.000  O
  Ni120    1.0000 0.50000  0.50000  0.67853  Biso   1.000  Ni
  O24      1.0000 0.50000  0.50000  0.74500  Biso   1.000  O
  O25      1.0000 0.32550  0.06440  0.00000  Biso   1.000  O
  O26      1.0000 0.43230  0.17730  0.00000  Biso   1.000  O
  O27      1.0000 0.40840  0.24410  0.00000  Biso   1.000  O
  C1       1.0000 0.35860  0.18520  0.00000  Biso   1.000  C
  C2       1.0000 0.34680  0.14240  0.00000  Biso   1.000  C
  H1       1.0000 0.36800  0.12080  0.00000  Biso   1.000  H
  C3       1.0000 0.30380  0.13130  0.00000  Biso   1.000  C
  C4       1.0000 0.27270  0.16290  0.00000  Biso   1.000  C
  H2       1.0000 0.24340  0.15530  0.00000  Biso   1.000  H
  C5       1.0000 0.28450  0.20570  0.00000  Biso   1.000  C
  C6       1.0000 0.32750  0.21680  0.00000  Biso   1.000  C
  H3       1.0000 0.33560  0.24600  0.00000  Biso   1.000  H
  C7       1.0000 0.40340  0.20360  0.00000  Biso   1.000  C
  C8       1.0000 0.28570  0.08490  0.00000  Biso   1.000  C
  N1       1.0000 0.24390  0.23130  0.00000  Biso   1.000  N
  O28      1.0000 0.25260  0.05980  0.00000  Biso   1.000  O
  O29      1.0000 0.32550  0.56440  0.50000  Biso   1.000  O
  O30      1.0000 0.43230  0.67730  0.50000  Biso   1.000  O
  O31      1.0000 0.40840  0.74410  0.50000  Biso   1.000  O
  C9       1.0000 0.35860  0.68520  0.50000  Biso   1.000  C
  C10      1.0000 0.34680  0.64240  0.50000  Biso   1.000  C
  H4       1.0000 0.36800  0.62080  0.50000  Biso   1.000  H
  C11      1.0000 0.30380  0.63130  0.50000  Biso   1.000  C
  C12      1.0000 0.27270  0.66290  0.50000  Biso   1.000  C
  H5       1.0000 0.24340  0.65530  0.50000  Biso   1.000  H
  C13      1.0000 0.28450  0.70570  0.50000  Biso   1.000  C
  C14      1.0000 0.32750  0.71680  0.50000  Biso   1.000  C
  H6       1.0000 0.33560  0.74600  0.50000  Biso   1.000  H
  C15      1.0000 0.40340  0.70360  0.50000  Biso   1.000  C
  C16      1.0000 0.28570  0.58490  0.50000  Biso   1.000  C
  N2       1.0000 0.24390  0.73130  0.50000  Biso   1.000  N
  O32      1.0000 0.25260  0.55980  0.50000  Biso   1.000  O
  O33      1.0000 0.82550  0.06440  0.50000  Biso   1.000  O
  O34      1.0000 0.93230  0.17730  0.50000  Biso   1.000  O
  O35      1.0000 0.90840  0.24410  0.50000  Biso   1.000  O
  C17      1.0000 0.85860  0.18520  0.50000  Biso   1.000  C
  C18      1.0000 0.84680  0.14240  0.50000  Biso   1.000  C
  H7       1.0000 0.86800  0.12080  0.50000  Biso   1.000  H
  C19      1.0000 0.80380  0.13130  0.50000  Biso   1.000  C
  C20      1.0000 0.77270  0.16290  0.50000  Biso   1.000  C
  H8       1.0000 0.74340  0.15530  0.50000  Biso   1.000  H
  C21      1.0000 0.78450  0.20570  0.50000  Biso   1.000  C
  C22      1.0000 0.82750  0.21680  0.50000  Biso   1.000  C
  H9       1.0000 0.83560  0.24600  0.50000  Biso   1.000  H
  C23      1.0000 0.90340  0.20360  0.50000  Biso   1.000  C
  C24      1.0000 0.78570  0.08490  0.50000  Biso   1.000  C
  N3       1.0000 0.74390  0.23130  0.50000  Biso   1.000  N
  O36      1.0000 0.75260  0.05980  0.50000  Biso   1.000  O
  O37      1.0000 0.82550  0.56440  0.00000  Biso   1.000  O
  O38      1.0000 0.93230  0.67730  0.00000  Biso   1.000  O
  O39      1.0000 0.90840  0.74410  0.00000  Biso   1.000  O
  C25      1.0000 0.85860  0.68520  0.00000  Biso   1.000  C
  C26      1.0000 0.84680  0.64240  0.00000  Biso   1.000  C
  H10      1.0000 0.86800  0.62080  0.00000  Biso   1.000  H
  C27      1.0000 0.80380  0.63130  0.00000  Biso   1.000  C
  C28      1.0000 0.77270  0.66290  0.00000  Biso   1.000  C
  H11      1.0000 0.74340  0.65530  0.00000  Biso   1.000  H
  C29      1.0000 0.78450  0.70570  0.00000  Biso   1.000  C
  C30      1.0000 0.82750  0.71680  0.00000  Biso   1.000  C
  H12      1.0000 0.83560  0.74600  0.00000  Biso   1.000  H
  C31      1.0000 0.90340  0.70360  0.00000  Biso   1.000  C
  C32      1.0000 0.78570  0.58490  0.00000  Biso   1.000  C
  N4       1.0000 0.74390  0.73130  0.00000  Biso   1.000  N
  O40      1.0000 0.75260  0.55980  0.00000  Biso   1.000  O
  O41      1.0000 0.67450  0.93560  0.00000  Biso   1.000  O
  O42      1.0000 0.56770  0.82270  0.00000  Biso   1.000  O
  O43      1.0000 0.59160  0.75590  0.00000  Biso   1.000  O
  C33      1.0000 0.64140  0.81480  0.00000  Biso   1.000  C
  C34      1.0000 0.65320  0.85760  0.00000  Biso   1.000  C
  H13      1.0000 0.63200  0.87920  0.00000  Biso   1.000  H
  C35      1.0000 0.69620  0.86870  0.00000  Biso   1.000  C
  C36      1.0000 0.72730  0.83710  0.00000  Biso   1.000  C
  H14      1.0000 0.75660  0.84470  0.00000  Biso   1.000  H
  C37      1.0000 0.71550  0.79430  0.00000  Biso   1.000  C
  C38      1.0000 0.67250  0.78320  0.00000  Biso   1.000  C
  H15      1.0000 0.66440  0.75400  0.00000  Biso   1.000  H
  C39      1.0000 0.59660  0.79640  0.00000  Biso   1.000  C
  C40      1.0000 0.71430  0.91510  0.00000  Biso   1.000  C
  N5       1.0000 0.75610  0.76870  0.00000  Biso   1.000  N
  O44      1.0000 0.74740  0.94020  0.00000  Biso   1.000  O
  O45      1.0000 0.67450  0.43560  0.50000  Biso   1.000  O
  O46      1.0000 0.56770  0.32270  0.50000  Biso   1.000  O
  O47      1.0000 0.59160  0.25590  0.50000  Biso   1.000  O
  C41      1.0000 0.64140  0.31480  0.50000  Biso   1.000  C
  C42      1.0000 0.65320  0.35760  0.50000  Biso   1.000  C
  H16      1.0000 0.63200  0.37920  0.50000  Biso   1.000  H
  C43      1.0000 0.69620  0.36870  0.50000  Biso   1.000  C
  C44      1.0000 0.72730  0.33710  0.50000  Biso   1.000  C
  H17      1.0000 0.75660  0.34470  0.50000  Biso   1.000  H
  C45      1.0000 0.71550  0.29430  0.50000  Biso   1.000  C
  C46      1.0000 0.67250  0.28320  0.50000  Biso   1.000  C
  H18      1.0000 0.66440  0.25400  0.50000  Biso   1.000  H
  C47      1.0000 0.59660  0.29640  0.50000  Biso   1.000  C
  C48      1.0000 0.71430  0.41510  0.50000  Biso   1.000  C
  N6       1.0000 0.75610  0.26870  0.50000  Biso   1.000  N
  O48      1.0000 0.74740  0.44020  0.50000  Biso   1.000  O
  O49      1.0000 0.17450  0.93560  0.50000  Biso   1.000  O
  O50      1.0000 0.06770  0.82270  0.50000  Biso   1.000  O
  O51      1.0000 0.09160  0.75590  0.50000  Biso   1.000  O
  C49      1.0000 0.14140  0.81480  0.50000  Biso   1.000  C
  C50      1.0000 0.15320  0.85760  0.50000  Biso   1.000  C
  H19      1.0000 0.13200  0.87920  0.50000  Biso   1.000  H
  C51      1.0000 0.19620  0.86870  0.50000  Biso   1.000  C
  C52      1.0000 0.22730  0.83710  0.50000  Biso   1.000  C
  H20      1.0000 0.25660  0.84470  0.50000  Biso   1.000  H
  C53      1.0000 0.21550  0.79430  0.50000  Biso   1.000  C
  C54      1.0000 0.17250  0.78320  0.50000  Biso   1.000  C
  H21      1.0000 0.16440  0.75400  0.50000  Biso   1.000  H
  C55      1.0000 0.09660  0.79640  0.50000  Biso   1.000  C
  C56      1.0000 0.21430  0.91510  0.50000  Biso   1.000  C
  N7       1.0000 0.25610  0.76870  0.50000  Biso   1.000  N
  O52      1.0000 0.24740  0.94020  0.50000  Biso   1.000  O
  O53      1.0000 0.17450  0.43560  0.00000  Biso   1.000  O
  O54      1.0000 0.06770  0.32270  0.00000  Biso   1.000  O
  O55      1.0000 0.09160  0.25590  0.00000  Biso   1.000  O
  C57      1.0000 0.14140  0.31480  0.00000  Biso   1.000  C
  C58      1.0000 0.15320  0.35760  0.00000  Biso   1.000  C
  H22      1.0000 0.13200  0.37920  0.00000  Biso   1.000  H
  C59      1.0000 0.19620  0.36870  0.00000  Biso   1.000  C
  C60      1.0000 0.22730  0.33710  0.00000  Biso   1.000  C
  H23      1.0000 0.25660  0.34470  0.00000  Biso   1.000  H
  C61      1.0000 0.21550  0.29430  0.00000  Biso   1.000  C
  C62      1.0000 0.17250  0.28320  0.00000  Biso   1.000  C
  H24      1.0000 0.16440  0.25400  0.00000  Biso   1.000  H
  C63      1.0000 0.09660  0.29640  0.00000  Biso   1.000  C
  C64      1.0000 0.21430  0.41510  0.00000  Biso   1.000  C
  N8       1.0000 0.25610  0.26870  0.00000  Biso   1.000  N
  O56      1.0000 0.24740  0.44020  0.00000  Biso   1.000  O
  O57      1.0000 0.67450  0.06440  0.00000  Biso   1.000  O
  O58      1.0000 0.56770  0.17730  0.00000  Biso   1.000  O
  O59      1.0000 0.59160  0.24410  0.00000  Biso   1.000  O
  C65      1.0000 0.64140  0.18520  0.00000  Biso   1.000  C
  C66      1.0000 0.65320  0.14240  0.00000  Biso   1.000  C
  H25      1.0000 0.63200  0.12080  0.00000  Biso   1.000  H
  C67      1.0000 0.69620  0.13130  0.00000  Biso   1.000  C
  C68      1.0000 0.72730  0.16290  0.00000  Biso   1.000  C
  H26      1.0000 0.75660  0.15530  0.00000  Biso   1.000  H
  C69      1.0000 0.71550  0.20570  0.00000  Biso   1.000  C
  C70      1.0000 0.67250  0.21680  0.00000  Biso   1.000  C
  H27      1.0000 0.66440  0.24600  0.00000  Biso   1.000  H
  C71      1.0000 0.59660  0.20360  0.00000  Biso   1.000  C
  C72      1.0000 0.71430  0.08490  0.00000  Biso   1.000  C
  N9       1.0000 0.75610  0.23130  0.00000  Biso   1.000  N
  O60      1.0000 0.74740  0.05980  0.00000  Biso   1.000  O
  O61      1.0000 0.67450  0.56440  0.50000  Biso   1.000  O
  O62      1.0000 0.56770  0.67730  0.50000  Biso   1.000  O
  O63      1.0000 0.59160  0.74410  0.50000  Biso   1.000  O
  C73      1.0000 0.64140  0.68520  0.50000  Biso   1.000  C
  C74      1.0000 0.65320  0.64240  0.50000  Biso   1.000  C
  H28      1.0000 0.63200  0.62080  0.50000  Biso   1.000  H
  C75      1.0000 0.69620  0.63130  0.50000  Biso   1.000  C
  C76      1.0000 0.72730  0.66290  0.50000  Biso   1.000  C
  H29      1.0000 0.75660  0.65530  0.50000  Biso   1.000  H
  C77      1.0000 0.71550  0.70570  0.50000  Biso   1.000  C
  C78      1.0000 0.67250  0.71680  0.50000  Biso   1.000  C
  H30      1.0000 0.66440  0.74600  0.50000  Biso   1.000  H
  C79      1.0000 0.59660  0.70360  0.50000  Biso   1.000  C
  C80      1.0000 0.71430  0.58490  0.50000  Biso   1.000  C
  N10      1.0000 0.75610  0.73130  0.50000  Biso   1.000  N
  O64      1.0000 0.74740  0.55980  0.50000  Biso   1.000  O
  O65      1.0000 0.17450  0.06440  0.50000  Biso   1.000  O
  O66      1.0000 0.06770  0.17730  0.50000  Biso   1.000  O
  O67      1.0000 0.09160  0.24410  0.50000  Biso   1.000  O
  C81      1.0000 0.14140  0.18520  0.50000  Biso   1.000  C
  C82      1.0000 0.15320  0.14240  0.50000  Biso   1.000  C
  H31      1.0000 0.13200  0.12080  0.50000  Biso   1.000  H
  C83      1.0000 0.19620  0.13130  0.50000  Biso   1.000  C
  C84      1.0000 0.22730  0.16290  0.50000  Biso   1.000  C
  H32      1.0000 0.25660  0.15530  0.50000  Biso   1.000  H
  C85      1.0000 0.21550  0.20570  0.50000  Biso   1.000  C
  C86      1.0000 0.17250  0.21680  0.50000  Biso   1.000  C
  H33      1.0000 0.16440  0.24600  0.50000  Biso   1.000  H
  C87      1.0000 0.09660  0.20360  0.50000  Biso   1.000  C
  C88      1.0000 0.21430  0.08490  0.50000  Biso   1.000  C
  N11      1.0000 0.25610  0.23130  0.50000  Biso   1.000  N
  O68      1.0000 0.24740  0.05980  0.50000  Biso   1.000  O
  O69      1.0000 0.17450  0.56440  0.00000  Biso   1.000  O
  O70      1.0000 0.06770  0.67730  0.00000  Biso   1.000  O
  O71      1.0000 0.09160  0.74410  0.00000  Biso   1.000  O
  C89      1.0000 0.14140  0.68520  0.00000  Biso   1.000  C
  C90      1.0000 0.15320  0.64240  0.00000  Biso   1.000  C
  H34      1.0000 0.13200  0.62080  0.00000  Biso   1.000  H
  C91      1.0000 0.19620  0.63130  0.00000  Biso   1.000  C
  C92      1.0000 0.22730  0.66290  0.00000  Biso   1.000  C
  H35      1.0000 0.25660  0.65530  0.00000  Biso   1.000  H
  C93      1.0000 0.21550  0.70570  0.00000  Biso   1.000  C
  C94      1.0000 0.17250  0.71680  0.00000  Biso   1.000  C
  H36      1.0000 0.16440  0.74600  0.00000  Biso   1.000  H
  C95      1.0000 0.09660  0.70360  0.00000  Biso   1.000  C
  C96      1.0000 0.21430  0.58490  0.00000  Biso   1.000  C
  N12      1.0000 0.25610  0.73130  0.00000  Biso   1.000  N
  O72      1.0000 0.24740  0.55980  0.00000  Biso   1.000  O
  O73      1.0000 0.32550  0.93560  0.00000  Biso   1.000  O
  O74      1.0000 0.43230  0.82270  0.00000  Biso   1.000  O
  O75      1.0000 0.40840  0.75590  0.00000  Biso   1.000  O
  C97      1.0000 0.35860  0.81480  0.00000  Biso   1.000  C
  C98      1.0000 0.34680  0.85760  0.00000  Biso   1.000  C
  H37      1.0000 0.36800  0.87920  0.00000  Biso   1.000  H
  C99      1.0000 0.30380  0.86870  0.00000  Biso   1.000  C
  C100     1.0000 0.27270  0.83710  0.00000  Biso   1.000  C
  H38      1.0000 0.24340  0.84470  0.00000  Biso   1.000  H
  C101     1.0000 0.28450  0.79430  0.00000  Biso   1.000  C
  C102     1.0000 0.32750  0.78320  0.00000  Biso   1.000  C
  H39      1.0000 0.33560  0.75400  0.00000  Biso   1.000  H
  C103     1.0000 0.40340  0.79640  0.00000  Biso   1.000  C
  C104     1.0000 0.28570  0.91510  0.00000  Biso   1.000  C
  N13      1.0000 0.24390  0.76870  0.00000  Biso   1.000  N
  O76      1.0000 0.25260  0.94020  0.00000  Biso   1.000  O
  O77      1.0000 0.32550  0.43560  0.50000  Biso   1.000  O
  O78      1.0000 0.43230  0.32270  0.50000  Biso   1.000  O
  O79      1.0000 0.40840  0.25590  0.50000  Biso   1.000  O
  C105     1.0000 0.35860  0.31480  0.50000  Biso   1.000  C
  C106     1.0000 0.34680  0.35760  0.50000  Biso   1.000  C
  H40      1.0000 0.36800  0.37920  0.50000  Biso   1.000  H
  C107     1.0000 0.30380  0.36870  0.50000  Biso   1.000  C
  C108     1.0000 0.27270  0.33710  0.50000  Biso   1.000  C
  H41      1.0000 0.24340  0.34470  0.50000  Biso   1.000  H
  C109     1.0000 0.28450  0.29430  0.50000  Biso   1.000  C
  C110     1.0000 0.32750  0.28320  0.50000  Biso   1.000  C
  H42      1.0000 0.33560  0.25400  0.50000  Biso   1.000  H
  C111     1.0000 0.40340  0.29640  0.50000  Biso   1.000  C
  C112     1.0000 0.28570  0.41510  0.50000  Biso   1.000  C
  N14      1.0000 0.24390  0.26870  0.50000  Biso   1.000  N
  O80      1.0000 0.25260  0.44020  0.50000  Biso   1.000  O
  O81      1.0000 0.82550  0.93560  0.50000  Biso   1.000  O
  O82      1.0000 0.93230  0.82270  0.50000  Biso   1.000  O
  O83      1.0000 0.90840  0.75590  0.50000  Biso   1.000  O
  C113     1.0000 0.85860  0.81480  0.50000  Biso   1.000  C
  C114     1.0000 0.84680  0.85760  0.50000  Biso   1.000  C
  H43      1.0000 0.86800  0.87920  0.50000  Biso   1.000  H
  C115     1.0000 0.80380  0.86870  0.50000  Biso   1.000  C
  C116     1.0000 0.77270  0.83710  0.50000  Biso   1.000  C
  H44      1.0000 0.74340  0.84470  0.50000  Biso   1.000  H
  C117     1.0000 0.78450  0.79430  0.50000  Biso   1.000  C
  C118     1.0000 0.82750  0.78320  0.50000  Biso   1.000  C
  H45      1.0000 0.83560  0.75400  0.50000  Biso   1.000  H
  C119     1.0000 0.90340  0.79640  0.50000  Biso   1.000  C
  C120     1.0000 0.78570  0.91510  0.50000  Biso   1.000  C
  N15      1.0000 0.74390  0.76870  0.50000  Biso   1.000  N
  O84      1.0000 0.75260  0.94020  0.50000  Biso   1.000  O
  O85      1.0000 0.82550  0.43560  0.00000  Biso   1.000  O
  O86      1.0000 0.93230  0.32270  0.00000  Biso   1.000  O
  O87      1.0000 0.90840  0.25590  0.00000  Biso   1.000  O
  C121     1.0000 0.85860  0.31480  0.00000  Biso   1.000  C
  C122     1.0000 0.84680  0.35760  0.00000  Biso   1.000  C
  H46      1.0000 0.86800  0.37920  0.00000  Biso   1.000  H
  C123     1.0000 0.80380  0.36870  0.00000  Biso   1.000  C
  C124     1.0000 0.77270  0.33710  0.00000  Biso   1.000  C
  H47      1.0000 0.74340  0.34470  0.00000  Biso   1.000  H
  C125     1.0000 0.78450  0.29430  0.00000  Biso   1.000  C
  C126     1.0000 0.82750  0.28320  0.00000  Biso   1.000  C
  H48      1.0000 0.83560  0.25400  0.00000  Biso   1.000  H
  C127     1.0000 0.90340  0.29640  0.00000  Biso   1.000  C
  C128     1.0000 0.78570  0.41510  0.00000  Biso   1.000  C
  N16      1.0000 0.74390  0.26870  0.00000  Biso   1.000  N
  O88      1.0000 0.75260  0.44020  0.00000  Biso   1.000  O
  O89      1.0000 0.00000  0.32550  0.06440  Biso   1.000  O
  O90      1.0000 0.00000  0.43230  0.17730  Biso   1.000  O
  O91      1.0000 0.00000  0.40840  0.24410  Biso   1.000  O
  C129     1.0000 0.00000  0.35860  0.18520  Biso   1.000  C
  C130     1.0000 0.00000  0.34680  0.14240  Biso   1.000  C
  H49      1.0000 0.00000  0.36800  0.12080  Biso   1.000  H
  C131     1.0000 0.00000  0.30380  0.13130  Biso   1.000  C
  C132     1.0000 0.00000  0.27270  0.16290  Biso   1.000  C
  H50      1.0000 0.00000  0.24340  0.15530  Biso   1.000  H
  C133     1.0000 0.00000  0.28450  0.20570  Biso   1.000  C
  C134     1.0000 0.00000  0.32750  0.21680  Biso   1.000  C
  H51      1.0000 0.00000  0.33560  0.24600  Biso   1.000  H
  C135     1.0000 0.00000  0.40340  0.20360  Biso   1.000  C
  C136     1.0000 0.00000  0.28570  0.08490  Biso   1.000  C
  N17      1.0000 0.00000  0.24390  0.23130  Biso   1.000  N
  O92      1.0000 0.00000  0.25260  0.05980  Biso   1.000  O
  O93      1.0000 0.00000  0.82550  0.56440  Biso   1.000  O
  O94      1.0000 0.00000  0.93230  0.67730  Biso   1.000  O
  O95      1.0000 0.00000  0.90840  0.74410  Biso   1.000  O
  C137     1.0000 0.00000  0.85860  0.68520  Biso   1.000  C
  C138     1.0000 0.00000  0.84680  0.64240  Biso   1.000  C
  H52      1.0000 0.00000  0.86800  0.62080  Biso   1.000  H
  C139     1.0000 0.00000  0.80380  0.63130  Biso   1.000  C
  C140     1.0000 0.00000  0.77270  0.66290  Biso   1.000  C
  H53      1.0000 0.00000  0.74340  0.65530  Biso   1.000  H
  C141     1.0000 0.00000  0.78450  0.70570  Biso   1.000  C
  C142     1.0000 0.00000  0.82750  0.71680  Biso   1.000  C
  H54      1.0000 0.00000  0.83560  0.74600  Biso   1.000  H
  C143     1.0000 0.00000  0.90340  0.70360  Biso   1.000  C
  C144     1.0000 0.00000  0.78570  0.58490  Biso   1.000  C
  N18      1.0000 0.00000  0.74390  0.73130  Biso   1.000  N
  O96      1.0000 0.00000  0.75260  0.55980  Biso   1.000  O
  O97      1.0000 0.50000  0.32550  0.56440  Biso   1.000  O
  O98      1.0000 0.50000  0.43230  0.67730  Biso   1.000  O
  O99      1.0000 0.50000  0.40840  0.74410  Biso   1.000  O
  C145     1.0000 0.50000  0.35860  0.68520  Biso   1.000  C
  C146     1.0000 0.50000  0.34680  0.64240  Biso   1.000  C
  H55      1.0000 0.50000  0.36800  0.62080  Biso   1.000  H
  C147     1.0000 0.50000  0.30380  0.63130  Biso   1.000  C
  C148     1.0000 0.50000  0.27270  0.66290  Biso   1.000  C
  H56      1.0000 0.50000  0.24340  0.65530  Biso   1.000  H
  C149     1.0000 0.50000  0.28450  0.70570  Biso   1.000  C
  C150     1.0000 0.50000  0.32750  0.71680  Biso   1.000  C
  H57      1.0000 0.50000  0.33560  0.74600  Biso   1.000  H
  C151     1.0000 0.50000  0.40340  0.70360  Biso   1.000  C
  C152     1.0000 0.50000  0.28570  0.58490  Biso   1.000  C
  N19      1.0000 0.50000  0.24390  0.73130  Biso   1.000  N
  O100     1.0000 0.50000  0.25260  0.55980  Biso   1.000  O
  O101     1.0000 0.50000  0.82550  0.06440  Biso   1.000  O
  O102     1.0000 0.50000  0.93230  0.17730  Biso   1.000  O
  O103     1.0000 0.50000  0.90840  0.24410  Biso   1.000  O
  C153     1.0000 0.50000  0.85860  0.18520  Biso   1.000  C
  C154     1.0000 0.50000  0.84680  0.14240  Biso   1.000  C
  H58      1.0000 0.50000  0.86800  0.12080  Biso   1.000  H
  C155     1.0000 0.50000  0.80380  0.13130  Biso   1.000  C
  C156     1.0000 0.50000  0.77270  0.16290  Biso   1.000  C
  H59      1.0000 0.50000  0.74340  0.15530  Biso   1.000  H
  C157     1.0000 0.50000  0.78450  0.20570  Biso   1.000  C
  C158     1.0000 0.50000  0.82750  0.21680  Biso   1.000  C
  H60      1.0000 0.50000  0.83560  0.24600  Biso   1.000  H
  C159     1.0000 0.50000  0.90340  0.20360  Biso   1.000  C
  C160     1.0000 0.50000  0.78570  0.08490  Biso   1.000  C
  N20      1.0000 0.50000  0.74390  0.23130  Biso   1.000  N
  O104     1.0000 0.50000  0.75260  0.05980  Biso   1.000  O
  O105     1.0000 0.00000  0.67450  0.93560  Biso   1.000  O
  O106     1.0000 0.00000  0.56770  0.82270  Biso   1.000  O
  O107     1.0000 0.00000  0.59160  0.75590  Biso   1.000  O
  C161     1.0000 0.00000  0.64140  0.81480  Biso   1.000  C
  C162     1.0000 0.00000  0.65320  0.85760  Biso   1.000  C
  H61      1.0000 0.00000  0.63200  0.87920  Biso   1.000  H
  C163     1.0000 0.00000  0.69620  0.86870  Biso   1.000  C
  C164     1.0000 0.00000  0.72730  0.83710  Biso   1.000  C
  H62      1.0000 0.00000  0.75660  0.84470  Biso   1.000  H
  C165     1.0000 0.00000  0.71550  0.79430  Biso   1.000  C
  C166     1.0000 0.00000  0.67250  0.78320  Biso   1.000  C
  H63      1.0000 0.00000  0.66440  0.75400  Biso   1.000  H
  C167     1.0000 0.00000  0.59660  0.79640  Biso   1.000  C
  C168     1.0000 0.00000  0.71430  0.91510  Biso   1.000  C
  N21      1.0000 0.00000  0.75610  0.76870  Biso   1.000  N
  O108     1.0000 0.00000  0.74740  0.94020  Biso   1.000  O
  O109     1.0000 0.00000  0.17450  0.43560  Biso   1.000  O
  O110     1.0000 0.00000  0.06770  0.32270  Biso   1.000  O
  O111     1.0000 0.00000  0.09160  0.25590  Biso   1.000  O
  C169     1.0000 0.00000  0.14140  0.31480  Biso   1.000  C
  C170     1.0000 0.00000  0.15320  0.35760  Biso   1.000  C
  H64      1.0000 0.00000  0.13200  0.37920  Biso   1.000  H
  C171     1.0000 0.00000  0.19620  0.36870  Biso   1.000  C
  C172     1.0000 0.00000  0.22730  0.33710  Biso   1.000  C
  H65      1.0000 0.00000  0.25660  0.34470  Biso   1.000  H
  C173     1.0000 0.00000  0.21550  0.29430  Biso   1.000  C
  C174     1.0000 0.00000  0.17250  0.28320  Biso   1.000  C
  H66      1.0000 0.00000  0.16440  0.25400  Biso   1.000  H
  C175     1.0000 0.00000  0.09660  0.29640  Biso   1.000  C
  C176     1.0000 0.00000  0.21430  0.41510  Biso   1.000  C
  N22      1.0000 0.00000  0.25610  0.26870  Biso   1.000  N
  O112     1.0000 0.00000  0.24740  0.44020  Biso   1.000  O
  O113     1.0000 0.50000  0.67450  0.43560  Biso   1.000  O
  O114     1.0000 0.50000  0.56770  0.32270  Biso   1.000  O
  O115     1.0000 0.50000  0.59160  0.25590  Biso   1.000  O
  C177     1.0000 0.50000  0.64140  0.31480  Biso   1.000  C
  C178     1.0000 0.50000  0.65320  0.35760  Biso   1.000  C
  H67      1.0000 0.50000  0.63200  0.37920  Biso   1.000  H
  C179     1.0000 0.50000  0.69620  0.36870  Biso   1.000  C
  C180     1.0000 0.50000  0.72730  0.33710  Biso   1.000  C
  H68      1.0000 0.50000  0.75660  0.34470  Biso   1.000  H
  C181     1.0000 0.50000  0.71550  0.29430  Biso   1.000  C
  C182     1.0000 0.50000  0.67250  0.28320  Biso   1.000  C
  H69      1.0000 0.50000  0.66440  0.25400  Biso   1.000  H
  C183     1.0000 0.50000  0.59660  0.29640  Biso   1.000  C
  C184     1.0000 0.50000  0.71430  0.41510  Biso   1.000  C
  N23      1.0000 0.50000  0.75610  0.26870  Biso   1.000  N
  O116     1.0000 0.50000  0.74740  0.44020  Biso   1.000  O
  O117     1.0000 0.50000  0.17450  0.93560  Biso   1.000  O
  O118     1.0000 0.50000  0.06770  0.82270  Biso   1.000  O
  O119     1.0000 0.50000  0.09160  0.75590  Biso   1.000  O
  C185     1.0000 0.50000  0.14140  0.81480  Biso   1.000  C
  C186     1.0000 0.50000  0.15320  0.85760  Biso   1.000  C
  H70      1.0000 0.50000  0.13200  0.87920  Biso   1.000  H
  C187     1.0000 0.50000  0.19620  0.86870  Biso   1.000  C
  C188     1.0000 0.50000  0.22730  0.83710  Biso   1.000  C
  H71      1.0000 0.50000  0.25660  0.84470  Biso   1.000  H
  C189     1.0000 0.50000  0.21550  0.79430  Biso   1.000  C
  C190     1.0000 0.50000  0.17250  0.78320  Biso   1.000  C
  H72      1.0000 0.50000  0.16440  0.75400  Biso   1.000  H
  C191     1.0000 0.50000  0.09660  0.79640  Biso   1.000  C
  C192     1.0000 0.50000  0.21430  0.91510  Biso   1.000  C
  N24      1.0000 0.50000  0.25610  0.76870  Biso   1.000  N
  O120     1.0000 0.50000  0.24740  0.94020  Biso   1.000  O
  O121     1.0000 0.00000  0.67450  0.06440  Biso   1.000  O
  O122     1.0000 0.00000  0.56770  0.17730  Biso   1.000  O
  O123     1.0000 0.00000  0.59160  0.24410  Biso   1.000  O
  C193     1.0000 0.00000  0.64140  0.18520  Biso   1.000  C
  C194     1.0000 0.00000  0.65320  0.14240  Biso   1.000  C
  H73      1.0000 0.00000  0.63200  0.12080  Biso   1.000  H
  C195     1.0000 0.00000  0.69620  0.13130  Biso   1.000  C
  C196     1.0000 0.00000  0.72730  0.16290  Biso   1.000  C
  H74      1.0000 0.00000  0.75660  0.15530  Biso   1.000  H
  C197     1.0000 0.00000  0.71550  0.20570  Biso   1.000  C
  C198     1.0000 0.00000  0.67250  0.21680  Biso   1.000  C
  H75      1.0000 0.00000  0.66440  0.24600  Biso   1.000  H
  C199     1.0000 0.00000  0.59660  0.20360  Biso   1.000  C
  C200     1.0000 0.00000  0.71430  0.08490  Biso   1.000  C
  N25      1.0000 0.00000  0.75610  0.23130  Biso   1.000  N
  O124     1.0000 0.00000  0.74740  0.05980  Biso   1.000  O
  O125     1.0000 0.00000  0.17450  0.56440  Biso   1.000  O
  O126     1.0000 0.00000  0.06770  0.67730  Biso   1.000  O
  O127     1.0000 0.00000  0.09160  0.74410  Biso   1.000  O
  C201     1.0000 0.00000  0.14140  0.68520  Biso   1.000  C
  C202     1.0000 0.00000  0.15320  0.64240  Biso   1.000  C
  H76      1.0000 0.00000  0.13200  0.62080  Biso   1.000  H
  C203     1.0000 0.00000  0.19620  0.63130  Biso   1.000  C
  C204     1.0000 0.00000  0.22730  0.66290  Biso   1.000  C
  H77      1.0000 0.00000  0.25660  0.65530  Biso   1.000  H
  C205     1.0000 0.00000  0.21550  0.70570  Biso   1.000  C
  C206     1.0000 0.00000  0.17250  0.71680  Biso   1.000  C
  H78      1.0000 0.00000  0.16440  0.74600  Biso   1.000  H
  C207     1.0000 0.00000  0.09660  0.70360  Biso   1.000  C
  C208     1.0000 0.00000  0.21430  0.58490  Biso   1.000  C
  N26      1.0000 0.00000  0.25610  0.73130  Biso   1.000  N
  O128     1.0000 0.00000  0.24740  0.55980  Biso   1.000  O
  O129     1.0000 0.50000  0.67450  0.56440  Biso   1.000  O
  O130     1.0000 0.50000  0.56770  0.67730  Biso   1.000  O
  O131     1.0000 0.50000  0.59160  0.74410  Biso   1.000  O
  C209     1.0000 0.50000  0.64140  0.68520  Biso   1.000  C
  C210     1.0000 0.50000  0.65320  0.64240  Biso   1.000  C
  H79      1.0000 0.50000  0.63200  0.62080  Biso   1.000  H
  C211     1.0000 0.50000  0.69620  0.63130  Biso   1.000  C
  C212     1.0000 0.50000  0.72730  0.66290  Biso   1.000  C
  H80      1.0000 0.50000  0.75660  0.65530  Biso   1.000  H
  C213     1.0000 0.50000  0.71550  0.70570  Biso   1.000  C
  C214     1.0000 0.50000  0.67250  0.71680  Biso   1.000  C
  H81      1.0000 0.50000  0.66440  0.74600  Biso   1.000  H
  C215     1.0000 0.50000  0.59660  0.70360  Biso   1.000  C
  C216     1.0000 0.50000  0.71430  0.58490  Biso   1.000  C
  N27      1.0000 0.50000  0.75610  0.73130  Biso   1.000  N
  O132     1.0000 0.50000  0.74740  0.55980  Biso   1.000  O
  O133     1.0000 0.50000  0.17450  0.06440  Biso   1.000  O
  O134     1.0000 0.50000  0.06770  0.17730  Biso   1.000  O
  O135     1.0000 0.50000  0.09160  0.24410  Biso   1.000  O
  C217     1.0000 0.50000  0.14140  0.18520  Biso   1.000  C
  C218     1.0000 0.50000  0.15320  0.14240  Biso   1.000  C
  H82      1.0000 0.50000  0.13200  0.12080  Biso   1.000  H
  C219     1.0000 0.50000  0.19620  0.13130  Biso   1.000  C
  C220     1.0000 0.50000  0.22730  0.16290  Biso   1.000  C
  H83      1.0000 0.50000  0.25660  0.15530  Biso   1.000  H
  C221     1.0000 0.50000  0.21550  0.20570  Biso   1.000  C
  C222     1.0000 0.50000  0.17250  0.21680  Biso   1.000  C
  H84      1.0000 0.50000  0.16440  0.24600  Biso   1.000  H
  C223     1.0000 0.50000  0.09660  0.20360  Biso   1.000  C
  C224     1.0000 0.50000  0.21430  0.08490  Biso   1.000  C
  N28      1.0000 0.50000  0.25610  0.23130  Biso   1.000  N
  O136     1.0000 0.50000  0.24740  0.05980  Biso   1.000  O
  O137     1.0000 0.00000  0.32550  0.93560  Biso   1.000  O
  O138     1.0000 0.00000  0.43230  0.82270  Biso   1.000  O
  O139     1.0000 0.00000  0.40840  0.75590  Biso   1.000  O
  C225     1.0000 0.00000  0.35860  0.81480  Biso   1.000  C
  C226     1.0000 0.00000  0.34680  0.85760  Biso   1.000  C
  H85      1.0000 0.00000  0.36800  0.87920  Biso   1.000  H
  C227     1.0000 0.00000  0.30380  0.86870  Biso   1.000  C
  C228     1.0000 0.00000  0.27270  0.83710  Biso   1.000  C
  H86      1.0000 0.00000  0.24340  0.84470  Biso   1.000  H
  C229     1.0000 0.00000  0.28450  0.79430  Biso   1.000  C
  C230     1.0000 0.00000  0.32750  0.78320  Biso   1.000  C
  H87      1.0000 0.00000  0.33560  0.75400  Biso   1.000  H
  C231     1.0000 0.00000  0.40340  0.79640  Biso   1.000  C
  C232     1.0000 0.00000  0.28570  0.91510  Biso   1.000  C
  N29      1.0000 0.00000  0.24390  0.76870  Biso   1.000  N
  O140     1.0000 0.00000  0.25260  0.94020  Biso   1.000  O
  O141     1.0000 0.00000  0.82550  0.43560  Biso   1.000  O
  O142     1.0000 0.00000  0.93230  0.32270  Biso   1.000  O
  O143     1.0000 0.00000  0.90840  0.25590  Biso   1.000  O
  C233     1.0000 0.00000  0.85860  0.31480  Biso   1.000  C
  C234     1.0000 0.00000  0.84680  0.35760  Biso   1.000  C
  H88      1.0000 0.00000  0.86800  0.37920  Biso   1.000  H
  C235     1.0000 0.00000  0.80380  0.36870  Biso   1.000  C
  C236     1.0000 0.00000  0.77270  0.33710  Biso   1.000  C
  H89      1.0000 0.00000  0.74340  0.34470  Biso   1.000  H
  C237     1.0000 0.00000  0.78450  0.29430  Biso   1.000  C
  C238     1.0000 0.00000  0.82750  0.28320  Biso   1.000  C
  H90      1.0000 0.00000  0.83560  0.25400  Biso   1.000  H
  C239     1.0000 0.00000  0.90340  0.29640  Biso   1.000  C
  C240     1.0000 0.00000  0.78570  0.41510  Biso   1.000  C
  N30      1.0000 0.00000  0.74390  0.26870  Biso   1.000  N
  O144     1.0000 0.00000  0.75260  0.44020  Biso   1.000  O
  O145     1.0000 0.50000  0.32550  0.43560  Biso   1.000  O
  O146     1.0000 0.50000  0.43230  0.32270  Biso   1.000  O
  O147     1.0000 0.50000  0.40840  0.25590  Biso   1.000  O
  C241     1.0000 0.50000  0.35860  0.31480  Biso   1.000  C
  C242     1.0000 0.50000  0.34680  0.35760  Biso   1.000  C
  H91      1.0000 0.50000  0.36800  0.37920  Biso   1.000  H
  C243     1.0000 0.50000  0.30380  0.36870  Biso   1.000  C
  C244     1.0000 0.50000  0.27270  0.33710  Biso   1.000  C
  H92      1.0000 0.50000  0.24340  0.34470  Biso   1.000  H
  C245     1.0000 0.50000  0.28450  0.29430  Biso   1.000  C
  C246     1.0000 0.50000  0.32750  0.28320  Biso   1.000  C
  H93      1.0000 0.50000  0.33560  0.25400  Biso   1.000  H
  C247     1.0000 0.50000  0.40340  0.29640  Biso   1.000  C
  C248     1.0000 0.50000  0.28570  0.41510  Biso   1.000  C
  N31      1.0000 0.50000  0.24390  0.26870  Biso   1.000  N
  O148     1.0000 0.50000  0.25260  0.44020  Biso   1.000  O
  O149     1.0000 0.50000  0.82550  0.93560  Biso   1.000  O
  O150     1.0000 0.50000  0.93230  0.82270  Biso   1.000  O
  O151     1.0000 0.50000  0.90840  0.75590  Biso   1.000  O
  C249     1.0000 0.50000  0.85860  0.81480  Biso   1.000  C
  C250     1.0000 0.50000  0.84680  0.85760  Biso   1.000  C
  H94      1.0000 0.50000  0.86800  0.87920  Biso   1.000  H
  C251     1.0000 0.50000  0.80380  0.86870  Biso   1.000  C
  C252     1.0000 0.50000  0.77270  0.83710  Biso   1.000  C
  H95      1.0000 0.50000  0.74340  0.84470  Biso   1.000  H
  C253     1.0000 0.50000  0.78450  0.79430  Biso   1.000  C
  C254     1.0000 0.50000  0.82750  0.78320  Biso   1.000  C
  H96      1.0000 0.50000  0.83560  0.75400  Biso   1.000  H
  C255     1.0000 0.50000  0.90340  0.79640  Biso   1.000  C
  C256     1.0000 0.50000  0.78570  0.91510  Biso   1.000  C
  N32      1.0000 0.50000  0.74390  0.76870  Biso   1.000  N
  O152     1.0000 0.50000  0.75260  0.94020  Biso   1.000  O
  O153     1.0000 0.06440  0.00000  0.32550  Biso   1.000  O
  O154     1.0000 0.17730  0.00000  0.43230  Biso   1.000  O
  O155     1.0000 0.24410  0.00000  0.40840  Biso   1.000  O
  C257     1.0000 0.18520  0.00000  0.35860  Biso   1.000  C
  C258     1.0000 0.14240  0.00000  0.34680  Biso   1.000  C
  H97      1.0000 0.12080  0.00000  0.36800  Biso   1.000  H
  C259     1.0000 0.13130  0.00000  0.30380  Biso   1.000  C
  C260     1.0000 0.16290  0.00000  0.27270  Biso   1.000  C
  H98      1.0000 0.15530  0.00000  0.24340  Biso   1.000  H
  C261     1.0000 0.20570  0.00000  0.28450  Biso   1.000  C
  C262     1.0000 0.21680  0.00000  0.32750  Biso   1.000  C
  H99      1.0000 0.24600  0.00000  0.33560  Biso   1.000  H
  C263     1.0000 0.20360  0.00000  0.40340  Biso   1.000  C
  C264     1.0000 0.08490  0.00000  0.28570  Biso   1.000  C
  N33      1.0000 0.23130  0.00000  0.24390  Biso   1.000  N
  O156     1.0000 0.05980  0.00000  0.25260  Biso   1.000  O
  O157     1.0000 0.06440  0.50000  0.82550  Biso   1.000  O
  O158     1.0000 0.17730  0.50000  0.93230  Biso   1.000  O
  O159     1.0000 0.24410  0.50000  0.90840  Biso   1.000  O
  C265     1.0000 0.18520  0.50000  0.85860  Biso   1.000  C
  C266     1.0000 0.14240  0.50000  0.84680  Biso   1.000  C
  H100     1.0000 0.12080  0.50000  0.86800  Biso   1.000  H
  C267     1.0000 0.13130  0.50000  0.80380  Biso   1.000  C
  C268     1.0000 0.16290  0.50000  0.77270  Biso   1.000  C
  H101     1.0000 0.15530  0.50000  0.74340  Biso   1.000  H
  C269     1.0000 0.20570  0.50000  0.78450  Biso   1.000  C
  C270     1.0000 0.21680  0.50000  0.82750  Biso   1.000  C
  H102     1.0000 0.24600  0.50000  0.83560  Biso   1.000  H
  C271     1.0000 0.20360  0.50000  0.90340  Biso   1.000  C
  C272     1.0000 0.08490  0.50000  0.78570  Biso   1.000  C
  N34      1.0000 0.23130  0.50000  0.74390  Biso   1.000  N
  O160     1.0000 0.05980  0.50000  0.75260  Biso   1.000  O
  O161     1.0000 0.56440  0.00000  0.82550  Biso   1.000  O
  O162     1.0000 0.67730  0.00000  0.93230  Biso   1.000  O
  O163     1.0000 0.74410  0.00000  0.90840  Biso   1.000  O
  C273     1.0000 0.68520  0.00000  0.85860  Biso   1.000  C
  C274     1.0000 0.64240  0.00000  0.84680  Biso   1.000  C
  H103     1.0000 0.62080  0.00000  0.86800  Biso   1.000  H
  C275     1.0000 0.63130  0.00000  0.80380  Biso   1.000  C
  C276     1.0000 0.66290  0.00000  0.77270  Biso   1.000  C
  H104     1.0000 0.65530  0.00000  0.74340  Biso   1.000  H
  C277     1.0000 0.70570  0.00000  0.78450  Biso   1.000  C
  C278     1.0000 0.71680  0.00000  0.82750  Biso   1.000  C
  H105     1.0000 0.74600  0.00000  0.83560  Biso   1.000  H
  C279     1.0000 0.70360  0.00000  0.90340  Biso   1.000  C
  C280     1.0000 0.58490  0.00000  0.78570  Biso   1.000  C
  N35      1.0000 0.73130  0.00000  0.74390  Biso   1.000  N
  O164     1.0000 0.55980  0.00000  0.75260  Biso   1.000  O
  O165     1.0000 0.56440  0.50000  0.32550  Biso   1.000  O
  O166     1.0000 0.67730  0.50000  0.43230  Biso   1.000  O
  O167     1.0000 0.74410  0.50000  0.40840  Biso   1.000  O
  C281     1.0000 0.68520  0.50000  0.35860  Biso   1.000  C
  C282     1.0000 0.64240  0.50000  0.34680  Biso   1.000  C
  H106     1.0000 0.62080  0.50000  0.36800  Biso   1.000  H
  C283     1.0000 0.63130  0.50000  0.30380  Biso   1.000  C
  C284     1.0000 0.66290  0.50000  0.27270  Biso   1.000  C
  H107     1.0000 0.65530  0.50000  0.24340  Biso   1.000  H
  C285     1.0000 0.70570  0.50000  0.28450  Biso   1.000  C
  C286     1.0000 0.71680  0.50000  0.32750  Biso   1.000  C
  H108     1.0000 0.74600  0.50000  0.33560  Biso   1.000  H
  C287     1.0000 0.70360  0.50000  0.40340  Biso   1.000  C
  C288     1.0000 0.58490  0.50000  0.28570  Biso   1.000  C
  N36      1.0000 0.73130  0.50000  0.24390  Biso   1.000  N
  O168     1.0000 0.55980  0.50000  0.25260  Biso   1.000  O
  O169     1.0000 0.93560  0.00000  0.67450  Biso   1.000  O
  O170     1.0000 0.82270  0.00000  0.56770  Biso   1.000  O
  O171     1.0000 0.75590  0.00000  0.59160  Biso   1.000  O
  C289     1.0000 0.81480  0.00000  0.64140  Biso   1.000  C
  C290     1.0000 0.85760  0.00000  0.65320  Biso   1.000  C
  H109     1.0000 0.87920  0.00000  0.63200  Biso   1.000  H
  C291     1.0000 0.86870  0.00000  0.69620  Biso   1.000  C
  C292     1.0000 0.83710  0.00000  0.72730  Biso   1.000  C
  H110     1.0000 0.84470  0.00000  0.75660  Biso   1.000  H
  C293     1.0000 0.79430  0.00000  0.71550  Biso   1.000  C
  C294     1.0000 0.78320  0.00000  0.67250  Biso   1.000  C
  H111     1.0000 0.75400  0.00000  0.66440  Biso   1.000  H
  C295     1.0000 0.79640  0.00000  0.59660  Biso   1.000  C
  C296     1.0000 0.91510  0.00000  0.71430  Biso   1.000  C
  N37      1.0000 0.76870  0.00000  0.75610  Biso   1.000  N
  O172     1.0000 0.94020  0.00000  0.74740  Biso   1.000  O
  O173     1.0000 0.93560  0.50000  0.17450  Biso   1.000  O
  O174     1.0000 0.82270  0.50000  0.06770  Biso   1.000  O
  O175     1.0000 0.75590  0.50000  0.09160  Biso   1.000  O
  C297     1.0000 0.81480  0.50000  0.14140  Biso   1.000  C
  C298     1.0000 0.85760  0.50000  0.15320  Biso   1.000  C
  H112     1.0000 0.87920  0.50000  0.13200  Biso   1.000  H
  C299     1.0000 0.86870  0.50000  0.19620  Biso   1.000  C
  C300     1.0000 0.83710  0.50000  0.22730  Biso   1.000  C
  H113     1.0000 0.84470  0.50000  0.25660  Biso   1.000  H
  C301     1.0000 0.79430  0.50000  0.21550  Biso   1.000  C
  C302     1.0000 0.78320  0.50000  0.17250  Biso   1.000  C
  H114     1.0000 0.75400  0.50000  0.16440  Biso   1.000  H
  C303     1.0000 0.79640  0.50000  0.09660  Biso   1.000  C
  C304     1.0000 0.91510  0.50000  0.21430  Biso   1.000  C
  N38      1.0000 0.76870  0.50000  0.25610  Biso   1.000  N
  O176     1.0000 0.94020  0.50000  0.24740  Biso   1.000  O
  O177     1.0000 0.43560  0.00000  0.17450  Biso   1.000  O
  O178     1.0000 0.32270  0.00000  0.06770  Biso   1.000  O
  O179     1.0000 0.25590  0.00000  0.09160  Biso   1.000  O
  C305     1.0000 0.31480  0.00000  0.14140  Biso   1.000  C
  C306     1.0000 0.35760  0.00000  0.15320  Biso   1.000  C
  H115     1.0000 0.37920  0.00000  0.13200  Biso   1.000  H
  C307     1.0000 0.36870  0.00000  0.19620  Biso   1.000  C
  C308     1.0000 0.33710  0.00000  0.22730  Biso   1.000  C
  H116     1.0000 0.34470  0.00000  0.25660  Biso   1.000  H
  C309     1.0000 0.29430  0.00000  0.21550  Biso   1.000  C
  C310     1.0000 0.28320  0.00000  0.17250  Biso   1.000  C
  H117     1.0000 0.25400  0.00000  0.16440  Biso   1.000  H
  C311     1.0000 0.29640  0.00000  0.09660  Biso   1.000  C
  C312     1.0000 0.41510  0.00000  0.21430  Biso   1.000  C
  N39      1.0000 0.26870  0.00000  0.25610  Biso   1.000  N
  O180     1.0000 0.44020  0.00000  0.24740  Biso   1.000  O
  O181     1.0000 0.43560  0.50000  0.67450  Biso   1.000  O
  O182     1.0000 0.32270  0.50000  0.56770  Biso   1.000  O
  O183     1.0000 0.25590  0.50000  0.59160  Biso   1.000  O
  C313     1.0000 0.31480  0.50000  0.64140  Biso   1.000  C
  C314     1.0000 0.35760  0.50000  0.65320  Biso   1.000  C
  H118     1.0000 0.37920  0.50000  0.63200  Biso   1.000  H
  C315     1.0000 0.36870  0.50000  0.69620  Biso   1.000  C
  C316     1.0000 0.33710  0.50000  0.72730  Biso   1.000  C
  H119     1.0000 0.34470  0.50000  0.75660  Biso   1.000  H
  C317     1.0000 0.29430  0.50000  0.71550  Biso   1.000  C
  C318     1.0000 0.28320  0.50000  0.67250  Biso   1.000  C
  H120     1.0000 0.25400  0.50000  0.66440  Biso   1.000  H
  C319     1.0000 0.29640  0.50000  0.59660  Biso   1.000  C
  C320     1.0000 0.41510  0.50000  0.71430  Biso   1.000  C
  N40      1.0000 0.26870  0.50000  0.75610  Biso   1.000  N
  O184     1.0000 0.44020  0.50000  0.74740  Biso   1.000  O
  O185     1.0000 0.06440  0.00000  0.67450  Biso   1.000  O
  O186     1.0000 0.17730  0.00000  0.56770  Biso   1.000  O
  O187     1.0000 0.24410  0.00000  0.59160  Biso   1.000  O
  C321     1.0000 0.18520  0.00000  0.64140  Biso   1.000  C
  C322     1.0000 0.14240  0.00000  0.65320  Biso   1.000  C
  H121     1.0000 0.12080  0.00000  0.63200  Biso   1.000  H
  C323     1.0000 0.13130  0.00000  0.69620  Biso   1.000  C
  C324     1.0000 0.16290  0.00000  0.72730  Biso   1.000  C
  H122     1.0000 0.15530  0.00000  0.75660  Biso   1.000  H
  C325     1.0000 0.20570  0.00000  0.71550  Biso   1.000  C
  C326     1.0000 0.21680  0.00000  0.67250  Biso   1.000  C
  H123     1.0000 0.24600  0.00000  0.66440  Biso   1.000  H
  C327     1.0000 0.20360  0.00000  0.59660  Biso   1.000  C
  C328     1.0000 0.08490  0.00000  0.71430  Biso   1.000  C
  N41      1.0000 0.23130  0.00000  0.75610  Biso   1.000  N
  O188     1.0000 0.05980  0.00000  0.74740  Biso   1.000  O
  O189     1.0000 0.06440  0.50000  0.17450  Biso   1.000  O
  O190     1.0000 0.17730  0.50000  0.06770  Biso   1.000  O
  O191     1.0000 0.24410  0.50000  0.09160  Biso   1.000  O
  C329     1.0000 0.18520  0.50000  0.14140  Biso   1.000  C
  C330     1.0000 0.14240  0.50000  0.15320  Biso   1.000  C
  H124     1.0000 0.12080  0.50000  0.13200  Biso   1.000  H
  C331     1.0000 0.13130  0.50000  0.19620  Biso   1.000  C
  C332     1.0000 0.16290  0.50000  0.22730  Biso   1.000  C
  H125     1.0000 0.15530  0.50000  0.25660  Biso   1.000  H
  C333     1.0000 0.20570  0.50000  0.21550  Biso   1.000  C
  C334     1.0000 0.21680  0.50000  0.17250  Biso   1.000  C
  H126     1.0000 0.24600  0.50000  0.16440  Biso   1.000  H
  C335     1.0000 0.20360  0.50000  0.09660  Biso   1.000  C
  C336     1.0000 0.08490  0.50000  0.21430  Biso   1.000  C
  N42      1.0000 0.23130  0.50000  0.25610  Biso   1.000  N
  O192     1.0000 0.05980  0.50000  0.24740  Biso   1.000  O
  O193     1.0000 0.56440  0.00000  0.17450  Biso   1.000  O
  O194     1.0000 0.67730  0.00000  0.06770  Biso   1.000  O
  O195     1.0000 0.74410  0.00000  0.09160  Biso   1.000  O
  C337     1.0000 0.68520  0.00000  0.14140  Biso   1.000  C
  C338     1.0000 0.64240  0.00000  0.15320  Biso   1.000  C
  H127     1.0000 0.62080  0.00000  0.13200  Biso   1.000  H
  C339     1.0000 0.63130  0.00000  0.19620  Biso   1.000  C
  C340     1.0000 0.66290  0.00000  0.22730  Biso   1.000  C
  H128     1.0000 0.65530  0.00000  0.25660  Biso   1.000  H
  C341     1.0000 0.70570  0.00000  0.21550  Biso   1.000  C
  C342     1.0000 0.71680  0.00000  0.17250  Biso   1.000  C
  H129     1.0000 0.74600  0.00000  0.16440  Biso   1.000  H
  C343     1.0000 0.70360  0.00000  0.09660  Biso   1.000  C
  C344     1.0000 0.58490  0.00000  0.21430  Biso   1.000  C
  N43      1.0000 0.73130  0.00000  0.25610  Biso   1.000  N
  O196     1.0000 0.55980  0.00000  0.24740  Biso   1.000  O
  O197     1.0000 0.56440  0.50000  0.67450  Biso   1.000  O
  O198     1.0000 0.67730  0.50000  0.56770  Biso   1.000  O
  O199     1.0000 0.74410  0.50000  0.59160  Biso   1.000  O
  C345     1.0000 0.68520  0.50000  0.64140  Biso   1.000  C
  C346     1.0000 0.64240  0.50000  0.65320  Biso   1.000  C
  H130     1.0000 0.62080  0.50000  0.63200  Biso   1.000  H
  C347     1.0000 0.63130  0.50000  0.69620  Biso   1.000  C
  C348     1.0000 0.66290  0.50000  0.72730  Biso   1.000  C
  H131     1.0000 0.65530  0.50000  0.75660  Biso   1.000  H
  C349     1.0000 0.70570  0.50000  0.71550  Biso   1.000  C
  C350     1.0000 0.71680  0.50000  0.67250  Biso   1.000  C
  H132     1.0000 0.74600  0.50000  0.66440  Biso   1.000  H
  C351     1.0000 0.70360  0.50000  0.59660  Biso   1.000  C
  C352     1.0000 0.58490  0.50000  0.71430  Biso   1.000  C
  N44      1.0000 0.73130  0.50000  0.75610  Biso   1.000  N
  O200     1.0000 0.55980  0.50000  0.74740  Biso   1.000  O
  O201     1.0000 0.93560  0.00000  0.32550  Biso   1.000  O
  O202     1.0000 0.82270  0.00000  0.43230  Biso   1.000  O
  O203     1.0000 0.75590  0.00000  0.40840  Biso   1.000  O
  C353     1.0000 0.81480  0.00000  0.35860  Biso   1.000  C
  C354     1.0000 0.85760  0.00000  0.34680  Biso   1.000  C
  H133     1.0000 0.87920  0.00000  0.36800  Biso   1.000  H
  C355     1.0000 0.86870  0.00000  0.30380  Biso   1.000  C
  C356     1.0000 0.83710  0.00000  0.27270  Biso   1.000  C
  H134     1.0000 0.84470  0.00000  0.24340  Biso   1.000  H
  C357     1.0000 0.79430  0.00000  0.28450  Biso   1.000  C
  C358     1.0000 0.78320  0.00000  0.32750  Biso   1.000  C
  H135     1.0000 0.75400  0.00000  0.33560  Biso   1.000  H
  C359     1.0000 0.79640  0.00000  0.40340  Biso   1.000  C
  C360     1.0000 0.91510  0.00000  0.28570  Biso   1.000  C
  N45      1.0000 0.76870  0.00000  0.24390  Biso   1.000  N
  O204     1.0000 0.94020  0.00000  0.25260  Biso   1.000  O
  O205     1.0000 0.93560  0.50000  0.82550  Biso   1.000  O
  O206     1.0000 0.82270  0.50000  0.93230  Biso   1.000  O
  O207     1.0000 0.75590  0.50000  0.90840  Biso   1.000  O
  C361     1.0000 0.81480  0.50000  0.85860  Biso   1.000  C
  C362     1.0000 0.85760  0.50000  0.84680  Biso   1.000  C
  H136     1.0000 0.87920  0.50000  0.86800  Biso   1.000  H
  C363     1.0000 0.86870  0.50000  0.80380  Biso   1.000  C
  C364     1.0000 0.83710  0.50000  0.77270  Biso   1.000  C
  H137     1.0000 0.84470  0.50000  0.74340  Biso   1.000  H
  C365     1.0000 0.79430  0.50000  0.78450  Biso   1.000  C
  C366     1.0000 0.78320  0.50000  0.82750  Biso   1.000  C
  H138     1.0000 0.75400  0.50000  0.83560  Biso   1.000  H
  C367     1.0000 0.79640  0.50000  0.90340  Biso   1.000  C
  C368     1.0000 0.91510  0.50000  0.78570  Biso   1.000  C
  N46      1.0000 0.76870  0.50000  0.74390  Biso   1.000  N
  O208     1.0000 0.94020  0.50000  0.75260  Biso   1.000  O
  O209     1.0000 0.43560  0.00000  0.82550  Biso   1.000  O
  O210     1.0000 0.32270  0.00000  0.93230  Biso   1.000  O
  O211     1.0000 0.25590  0.00000  0.90840  Biso   1.000  O
  C369     1.0000 0.31480  0.00000  0.85860  Biso   1.000  C
  C370     1.0000 0.35760  0.00000  0.84680  Biso   1.000  C
  H139     1.0000 0.37920  0.00000  0.86800  Biso   1.000  H
  C371     1.0000 0.36870  0.00000  0.80380  Biso   1.000  C
  C372     1.0000 0.33710  0.00000  0.77270  Biso   1.000  C
  H140     1.0000 0.34470  0.00000  0.74340  Biso   1.000  H
  C373     1.0000 0.29430  0.00000  0.78450  Biso   1.000  C
  C374     1.0000 0.28320  0.00000  0.82750  Biso   1.000  C
  H141     1.0000 0.25400  0.00000  0.83560  Biso   1.000  H
  C375     1.0000 0.29640  0.00000  0.90340  Biso   1.000  C
  C376     1.0000 0.41510  0.00000  0.78570  Biso   1.000  C
  N47      1.0000 0.26870  0.00000  0.74390  Biso   1.000  N
  O212     1.0000 0.44020  0.00000  0.75260  Biso   1.000  O
  O213     1.0000 0.43560  0.50000  0.32550  Biso   1.000  O
  O214     1.0000 0.32270  0.50000  0.43230  Biso   1.000  O
  O215     1.0000 0.25590  0.50000  0.40840  Biso   1.000  O
  C377     1.0000 0.31480  0.50000  0.35860  Biso   1.000  C
  C378     1.0000 0.35760  0.50000  0.34680  Biso   1.000  C
  H142     1.0000 0.37920  0.50000  0.36800  Biso   1.000  H
  C379     1.0000 0.36870  0.50000  0.30380  Biso   1.000  C
  C380     1.0000 0.33710  0.50000  0.27270  Biso   1.000  C
  H143     1.0000 0.34470  0.50000  0.24340  Biso   1.000  H
  C381     1.0000 0.29430  0.50000  0.28450  Biso   1.000  C
  C382     1.0000 0.28320  0.50000  0.32750  Biso   1.000  C
  H144     1.0000 0.25400  0.50000  0.33560  Biso   1.000  H
  C383     1.0000 0.29640  0.50000  0.40340  Biso   1.000  C
  C384     1.0000 0.41510  0.50000  0.28570  Biso   1.000  C
  N48      1.0000 0.26870  0.50000  0.24390  Biso   1.000  N
  O216     1.0000 0.44020  0.50000  0.25260  Biso   1.000  O
