data_image0
_cell_length_a       44.006
_cell_length_b       44.006
_cell_length_c       28.267
_cell_angle_alpha    90
_cell_angle_beta     90
_cell_angle_gamma    120

_symmetry_space_group_name_H-M    "P 1"
_symmetry_int_tables_number       1

loop_
  _symmetry_equiv_pos_as_xyz
  'x, y, z'

loop_
  _atom_site_label
  _atom_site_occupancy
  _atom_site_fract_x
  _atom_site_fract_y
  _atom_site_fract_z
  _atom_site_thermal_displace_type
  _atom_site_B_iso_or_equiv
  _atom_site_type_symbol
  Zn1      1.0000 0.49284  0.64556  0.80690  Biso   1.000  Zn
  I1       1.0000 0.45405  0.67197  0.80786  Biso   1.000  I
  N1       1.0000 0.54373  0.68255  0.82110  Biso   1.000  N
  C1       1.0000 0.55882  0.71303  0.79603  Biso   1.000  C
  H1       1.0000 0.54530  0.71580  0.77200  Biso   1.000  H
  C2       1.0000 0.59192  0.73954  0.80345  Biso   1.000  C
  H2       1.0000 0.60170  0.76020  0.78460  Biso   1.000  H
  C3       1.0000 0.61129  0.73572  0.83956  Biso   1.000  C
  C4       1.0000 0.59688  0.70488  0.86444  Biso   1.000  C
  H3       1.0000 0.60980  0.70160  0.88880  Biso   1.000  H
  C5       1.0000 0.56288  0.67842  0.85342  Biso   1.000  C
  H4       1.0000 0.55330  0.65670  0.86980  Biso   1.000  H
  N2       1.0000 0.79538  0.94234  0.69068  Biso   1.000  N
  C6       1.0000 0.81080  0.94512  0.73293  Biso   1.000  C
  H5       1.0000 0.83360  0.96460  0.73820  Biso   1.000  H
  C7       1.0000 0.79530  0.92122  0.76854  Biso   1.000  C
  H6       1.0000 0.80690  0.92430  0.79800  Biso   1.000  H
  C8       1.0000 0.76224  0.89233  0.76104  Biso   1.000  C
  C9       1.0000 0.74532  0.89022  0.71832  Biso   1.000  C
  H7       1.0000 0.72210  0.87160  0.71280  Biso   1.000  H
  C10      1.0000 0.76252  0.91507  0.68475  Biso   1.000  C
  H8       1.0000 0.75090  0.91320  0.65570  Biso   1.000  H
  N3       1.0000 0.79362  0.83520  0.07889  Biso   1.000  N
  C11      1.0000 0.76410  0.80690  0.06830  Biso   1.000  C
  H9       1.0000 0.75410  0.78850  0.09090  Biso   1.000  H
  C12      1.0000 0.74650  0.80237  0.02634  Biso   1.000  C
  H10      1.0000 0.72490  0.78130  0.02100  Biso   1.000  H
  C13      1.0000 0.75936  0.82709  0.99316  Biso   1.000  C
  C14      1.0000 0.78980  0.85780  0.00370  Biso   1.000  C
  H11      1.0000 0.79950  0.87670  0.98190  Biso   1.000  H
  C15      1.0000 0.80630  0.86050  0.04750  Biso   1.000  C
  H12      1.0000 0.82740  0.88150  0.05460  Biso   1.000  H
  C16      1.0000 0.64740  0.76556  0.84945  Biso   1.000  C
  N4       1.0000 0.66181  0.78894  0.81357  Biso   1.000  N
  C17      1.0000 0.69456  0.81558  0.82149  Biso   1.000  C
  N5       1.0000 0.71119  0.83996  0.78736  Biso   1.000  N
  C18      1.0000 0.74365  0.86480  0.79853  Biso   1.000  C
  N6       1.0000 0.76233  0.86996  0.83834  Biso   1.000  N
  C19      1.0000 0.74517  0.84583  0.87248  Biso   1.000  C
  N7       1.0000 0.76101  0.84842  0.91496  Biso   1.000  N
  C20      1.0000 0.74208  0.82359  0.94635  Biso   1.000  C
  N8       1.0000 0.70915  0.79542  0.94259  Biso   1.000  N
  C21      1.0000 0.69314  0.79261  0.89979  Biso   1.000  C
  N9       1.0000 0.66088  0.76572  0.89212  Biso   1.000  N
  C22      1.0000 0.71104  0.81812  0.86509  Biso   1.000  C
  Zn2      1.0000 0.15950  0.97890  0.14023  Biso   1.000  Zn
  I2       1.0000 0.12071  0.00531  0.14119  Biso   1.000  I
  N10      1.0000 0.21040  0.01588  0.15443  Biso   1.000  N
  C23      1.0000 0.22549  0.04636  0.12936  Biso   1.000  C
  H13      1.0000 0.21197  0.04913  0.10533  Biso   1.000  H
  C24      1.0000 0.25859  0.07287  0.13678  Biso   1.000  C
  H14      1.0000 0.26837  0.09353  0.11793  Biso   1.000  H
  C25      1.0000 0.27796  0.06905  0.17289  Biso   1.000  C
  C26      1.0000 0.26355  0.03821  0.19777  Biso   1.000  C
  H15      1.0000 0.27647  0.03493  0.22213  Biso   1.000  H
  C27      1.0000 0.22955  0.01175  0.18675  Biso   1.000  C
  H16      1.0000 0.21997  0.99003  0.20313  Biso   1.000  H
  N11      1.0000 0.46205  0.27567  0.02401  Biso   1.000  N
  C28      1.0000 0.47747  0.27845  0.06626  Biso   1.000  C
  H17      1.0000 0.50027  0.29793  0.07153  Biso   1.000  H
  C29      1.0000 0.46197  0.25455  0.10187  Biso   1.000  C
  H18      1.0000 0.47357  0.25763  0.13133  Biso   1.000  H
  C30      1.0000 0.42891  0.22566  0.09437  Biso   1.000  C
  C31      1.0000 0.41199  0.22355  0.05165  Biso   1.000  C
  H19      1.0000 0.38877  0.20493  0.04613  Biso   1.000  H
  C32      1.0000 0.42919  0.24840  0.01808  Biso   1.000  C
  H20      1.0000 0.41757  0.24653  0.98903  Biso   1.000  H
  N12      1.0000 0.46029  0.16853  0.41222  Biso   1.000  N
  C33      1.0000 0.43077  0.14023  0.40163  Biso   1.000  C
  H21      1.0000 0.42077  0.12183  0.42423  Biso   1.000  H
  C34      1.0000 0.41317  0.13570  0.35967  Biso   1.000  C
  H22      1.0000 0.39157  0.11463  0.35433  Biso   1.000  H
  C35      1.0000 0.42603  0.16042  0.32649  Biso   1.000  C
  C36      1.0000 0.45647  0.19113  0.33703  Biso   1.000  C
  H23      1.0000 0.46617  0.21003  0.31523  Biso   1.000  H
  C37      1.0000 0.47297  0.19383  0.38083  Biso   1.000  C
  H24      1.0000 0.49407  0.21483  0.38793  Biso   1.000  H
  C38      1.0000 0.31407  0.09889  0.18278  Biso   1.000  C
  N13      1.0000 0.32848  0.12227  0.14690  Biso   1.000  N
  C39      1.0000 0.36123  0.14891  0.15482  Biso   1.000  C
  N14      1.0000 0.37786  0.17329  0.12069  Biso   1.000  N
  C40      1.0000 0.41032  0.19813  0.13186  Biso   1.000  C
  N15      1.0000 0.42900  0.20329  0.17167  Biso   1.000  N
  C41      1.0000 0.41184  0.17916  0.20581  Biso   1.000  C
  N16      1.0000 0.42768  0.18175  0.24829  Biso   1.000  N
  C42      1.0000 0.40875  0.15692  0.27968  Biso   1.000  C
  N17      1.0000 0.37582  0.12875  0.27592  Biso   1.000  N
  C43      1.0000 0.35981  0.12594  0.23312  Biso   1.000  C
  N18      1.0000 0.32755  0.09905  0.22545  Biso   1.000  N
  C44      1.0000 0.37771  0.15145  0.19842  Biso   1.000  C
  Zn3      1.0000 0.82617  0.31223  0.47357  Biso   1.000  Zn
  I3       1.0000 0.78738  0.33864  0.47453  Biso   1.000  I
  N19      1.0000 0.87706  0.34922  0.48777  Biso   1.000  N
  C45      1.0000 0.89215  0.37970  0.46270  Biso   1.000  C
  H25      1.0000 0.87863  0.38247  0.43867  Biso   1.000  H
  C46      1.0000 0.92525  0.40621  0.47012  Biso   1.000  C
  H26      1.0000 0.93503  0.42687  0.45127  Biso   1.000  H
  C47      1.0000 0.94462  0.40239  0.50623  Biso   1.000  C
  C48      1.0000 0.93021  0.37155  0.53111  Biso   1.000  C
  H27      1.0000 0.94313  0.36827  0.55547  Biso   1.000  H
  C49      1.0000 0.89621  0.34509  0.52009  Biso   1.000  C
  H28      1.0000 0.88663  0.32337  0.53647  Biso   1.000  H
  N20      1.0000 0.12871  0.60901  0.35735  Biso   1.000  N
  C50      1.0000 0.14413  0.61179  0.39960  Biso   1.000  C
  H29      1.0000 0.16693  0.63127  0.40487  Biso   1.000  H
  C51      1.0000 0.12863  0.58789  0.43521  Biso   1.000  C
  H30      1.0000 0.14023  0.59097  0.46467  Biso   1.000  H
  C52      1.0000 0.09557  0.55900  0.42771  Biso   1.000  C
  C53      1.0000 0.07865  0.55689  0.38499  Biso   1.000  C
  H31      1.0000 0.05543  0.53827  0.37947  Biso   1.000  H
  C54      1.0000 0.09585  0.58174  0.35142  Biso   1.000  C
  H32      1.0000 0.08423  0.57987  0.32237  Biso   1.000  H
  N21      1.0000 0.12695  0.50187  0.74556  Biso   1.000  N
  C55      1.0000 0.09743  0.47357  0.73497  Biso   1.000  C
  H33      1.0000 0.08743  0.45517  0.75757  Biso   1.000  H
  C56      1.0000 0.07983  0.46904  0.69301  Biso   1.000  C
  H34      1.0000 0.05823  0.44797  0.68767  Biso   1.000  H
  C57      1.0000 0.09269  0.49376  0.65983  Biso   1.000  C
  C58      1.0000 0.12313  0.52447  0.67037  Biso   1.000  C
  H35      1.0000 0.13283  0.54337  0.64857  Biso   1.000  H
  C59      1.0000 0.13963  0.52717  0.71417  Biso   1.000  C
  H36      1.0000 0.16073  0.54817  0.72127  Biso   1.000  H
  C60      1.0000 0.98073  0.43223  0.51612  Biso   1.000  C
  N22      1.0000 0.99514  0.45561  0.48024  Biso   1.000  N
  C61      1.0000 0.02789  0.48225  0.48816  Biso   1.000  C
  N23      1.0000 0.04452  0.50663  0.45403  Biso   1.000  N
  C62      1.0000 0.07698  0.53147  0.46520  Biso   1.000  C
  N24      1.0000 0.09566  0.53663  0.50501  Biso   1.000  N
  C63      1.0000 0.07850  0.51250  0.53915  Biso   1.000  C
  N25      1.0000 0.09434  0.51509  0.58163  Biso   1.000  N
  C64      1.0000 0.07541  0.49026  0.61302  Biso   1.000  C
  N26      1.0000 0.04248  0.46209  0.60926  Biso   1.000  N
  C65      1.0000 0.02647  0.45928  0.56646  Biso   1.000  C
  N27      1.0000 0.99421  0.43239  0.55879  Biso   1.000  N
  C66      1.0000 0.04437  0.48479  0.53176  Biso   1.000  C
  Zn4      1.0000 0.35444  0.84727  0.80690  Biso   1.000  Zn
  I4       1.0000 0.32803  0.78207  0.80786  Biso   1.000  I
  N28      1.0000 0.31745  0.86118  0.82110  Biso   1.000  N
  C67      1.0000 0.28697  0.84579  0.79603  Biso   1.000  C
  H37      1.0000 0.28420  0.82950  0.77200  Biso   1.000  H
  C68      1.0000 0.26046  0.85238  0.80345  Biso   1.000  C
  H38      1.0000 0.23980  0.84150  0.78460  Biso   1.000  H
  C69      1.0000 0.26428  0.87557  0.83956  Biso   1.000  C
  C70      1.0000 0.29512  0.89200  0.86444  Biso   1.000  C
  H39      1.0000 0.29840  0.90820  0.88880  Biso   1.000  H
  C71      1.0000 0.32158  0.88446  0.85342  Biso   1.000  C
  H40      1.0000 0.34330  0.89660  0.86980  Biso   1.000  H
  N29      1.0000 0.05766  0.85304  0.69068  Biso   1.000  N
  C72      1.0000 0.05488  0.86568  0.73293  Biso   1.000  C
  H41      1.0000 0.03540  0.86900  0.73820  Biso   1.000  H
  C73      1.0000 0.07878  0.87408  0.76854  Biso   1.000  C
  H42      1.0000 0.07570  0.88260  0.79800  Biso   1.000  H
  C74      1.0000 0.10767  0.86991  0.76104  Biso   1.000  C
  C75      1.0000 0.10978  0.85510  0.71832  Biso   1.000  C
  H43      1.0000 0.12840  0.85050  0.71280  Biso   1.000  H
  C76      1.0000 0.08493  0.84745  0.68475  Biso   1.000  C
  H44      1.0000 0.08680  0.83770  0.65570  Biso   1.000  H
  N30      1.0000 0.16480  0.95842  0.07889  Biso   1.000  N
  C77      1.0000 0.19310  0.95720  0.06830  Biso   1.000  C
  H45      1.0000 0.21150  0.96560  0.09090  Biso   1.000  H
  C78      1.0000 0.19763  0.94413  0.02634  Biso   1.000  C
  H46      1.0000 0.21870  0.94360  0.02100  Biso   1.000  H
  C79      1.0000 0.17291  0.93227  0.99316  Biso   1.000  C
  C80      1.0000 0.14220  0.93200  0.00370  Biso   1.000  C
  H47      1.0000 0.12330  0.92280  0.98190  Biso   1.000  H
  C81      1.0000 0.13950  0.94580  0.04750  Biso   1.000  C
  H48      1.0000 0.11850  0.94590  0.05460  Biso   1.000  H
  C82      1.0000 0.23444  0.88184  0.84945  Biso   1.000  C
  N31      1.0000 0.21106  0.87287  0.81357  Biso   1.000  N
  C83      1.0000 0.18442  0.87898  0.82149  Biso   1.000  C
  N32      1.0000 0.16004  0.87123  0.78736  Biso   1.000  N
  C84      1.0000 0.13520  0.87885  0.79853  Biso   1.000  C
  N33      1.0000 0.13004  0.89237  0.83834  Biso   1.000  N
  C85      1.0000 0.15417  0.89934  0.87248  Biso   1.000  C
  N34      1.0000 0.15158  0.91259  0.91496  Biso   1.000  N
  C86      1.0000 0.17641  0.91849  0.94635  Biso   1.000  C
  N35      1.0000 0.20458  0.91373  0.94259  Biso   1.000  N
  C87      1.0000 0.20739  0.90053  0.89979  Biso   1.000  C
  N36      1.0000 0.23428  0.89516  0.89212  Biso   1.000  N
  C88      1.0000 0.18188  0.89292  0.86509  Biso   1.000  C
  Zn5      1.0000 0.02110  0.18061  0.14023  Biso   1.000  Zn
  I5       1.0000 0.99469  0.11541  0.14119  Biso   1.000  I
  N37      1.0000 0.98412  0.19451  0.15443  Biso   1.000  N
  C89      1.0000 0.95364  0.17912  0.12936  Biso   1.000  C
  H49      1.0000 0.95087  0.16283  0.10533  Biso   1.000  H
  C90      1.0000 0.92713  0.18571  0.13678  Biso   1.000  C
  H50      1.0000 0.90647  0.17483  0.11793  Biso   1.000  H
  C91      1.0000 0.93095  0.20890  0.17289  Biso   1.000  C
  C92      1.0000 0.96179  0.22533  0.19777  Biso   1.000  C
  H51      1.0000 0.96507  0.24153  0.22213  Biso   1.000  H
  C93      1.0000 0.98825  0.21779  0.18675  Biso   1.000  C
  H52      1.0000 0.00997  0.22993  0.20313  Biso   1.000  H
  N38      1.0000 0.72433  0.18637  0.02401  Biso   1.000  N
  C94      1.0000 0.72155  0.19901  0.06626  Biso   1.000  C
  H53      1.0000 0.70207  0.20233  0.07153  Biso   1.000  H
  C95      1.0000 0.74545  0.20741  0.10187  Biso   1.000  C
  H54      1.0000 0.74237  0.21593  0.13133  Biso   1.000  H
  C96      1.0000 0.77434  0.20324  0.09437  Biso   1.000  C
  C97      1.0000 0.77645  0.18843  0.05165  Biso   1.000  C
  H55      1.0000 0.79507  0.18383  0.04613  Biso   1.000  H
  C98      1.0000 0.75160  0.18078  0.01808  Biso   1.000  C
  H56      1.0000 0.75347  0.17103  0.98903  Biso   1.000  H
  N39      1.0000 0.83147  0.29175  0.41222  Biso   1.000  N
  C99      1.0000 0.85977  0.29053  0.40163  Biso   1.000  C
  H57      1.0000 0.87817  0.29893  0.42423  Biso   1.000  H
  C100     1.0000 0.86430  0.27746  0.35967  Biso   1.000  C
  H58      1.0000 0.88537  0.27693  0.35433  Biso   1.000  H
  C101     1.0000 0.83958  0.26560  0.32649  Biso   1.000  C
  C102     1.0000 0.80887  0.26533  0.33703  Biso   1.000  C
  H59      1.0000 0.78997  0.25613  0.31523  Biso   1.000  H
  C103     1.0000 0.80617  0.27913  0.38083  Biso   1.000  C
  H60      1.0000 0.78517  0.27923  0.38793  Biso   1.000  H
  C104     1.0000 0.90111  0.21517  0.18278  Biso   1.000  C
  N40      1.0000 0.87773  0.20620  0.14690  Biso   1.000  N
  C105     1.0000 0.85109  0.21231  0.15482  Biso   1.000  C
  N41      1.0000 0.82671  0.20456  0.12069  Biso   1.000  N
  C106     1.0000 0.80187  0.21218  0.13186  Biso   1.000  C
  N42      1.0000 0.79671  0.22570  0.17167  Biso   1.000  N
  C107     1.0000 0.82084  0.23267  0.20581  Biso   1.000  C
  N43      1.0000 0.81825  0.24592  0.24829  Biso   1.000  N
  C108     1.0000 0.84308  0.25182  0.27968  Biso   1.000  C
  N44      1.0000 0.87125  0.24706  0.27592  Biso   1.000  N
  C109     1.0000 0.87406  0.23386  0.23312  Biso   1.000  C
  N45      1.0000 0.90095  0.22849  0.22545  Biso   1.000  N
  C110     1.0000 0.84855  0.22625  0.19842  Biso   1.000  C
  Zn6      1.0000 0.68777  0.51394  0.47357  Biso   1.000  Zn
  I6       1.0000 0.66136  0.44874  0.47453  Biso   1.000  I
  N46      1.0000 0.65078  0.52785  0.48777  Biso   1.000  N
  C111     1.0000 0.62030  0.51246  0.46270  Biso   1.000  C
  H61      1.0000 0.61753  0.49617  0.43867  Biso   1.000  H
  C112     1.0000 0.59379  0.51905  0.47012  Biso   1.000  C
  H62      1.0000 0.57313  0.50817  0.45127  Biso   1.000  H
  C113     1.0000 0.59761  0.54224  0.50623  Biso   1.000  C
  C114     1.0000 0.62845  0.55867  0.53111  Biso   1.000  C
  H63      1.0000 0.63173  0.57487  0.55547  Biso   1.000  H
  C115     1.0000 0.65491  0.55113  0.52009  Biso   1.000  C
  H64      1.0000 0.67663  0.56327  0.53647  Biso   1.000  H
  N47      1.0000 0.39099  0.51971  0.35735  Biso   1.000  N
  C116     1.0000 0.38821  0.53235  0.39960  Biso   1.000  C
  H65      1.0000 0.36873  0.53567  0.40487  Biso   1.000  H
  C117     1.0000 0.41211  0.54075  0.43521  Biso   1.000  C
  H66      1.0000 0.40903  0.54927  0.46467  Biso   1.000  H
  C118     1.0000 0.44100  0.53658  0.42771  Biso   1.000  C
  C119     1.0000 0.44311  0.52177  0.38499  Biso   1.000  C
  H67      1.0000 0.46173  0.51717  0.37947  Biso   1.000  H
  C120     1.0000 0.41826  0.51412  0.35142  Biso   1.000  C
  H68      1.0000 0.42013  0.50437  0.32237  Biso   1.000  H
  N48      1.0000 0.49813  0.62509  0.74556  Biso   1.000  N
  C121     1.0000 0.52643  0.62387  0.73497  Biso   1.000  C
  H69      1.0000 0.54483  0.63227  0.75757  Biso   1.000  H
  C122     1.0000 0.53096  0.61080  0.69301  Biso   1.000  C
  H70      1.0000 0.55203  0.61027  0.68767  Biso   1.000  H
  C123     1.0000 0.50624  0.59894  0.65983  Biso   1.000  C
  C124     1.0000 0.47553  0.59867  0.67037  Biso   1.000  C
  H71      1.0000 0.45663  0.58947  0.64857  Biso   1.000  H
  C125     1.0000 0.47283  0.61247  0.71417  Biso   1.000  C
  H72      1.0000 0.45183  0.61257  0.72127  Biso   1.000  H
  C126     1.0000 0.56777  0.54851  0.51612  Biso   1.000  C
  N49      1.0000 0.54439  0.53954  0.48024  Biso   1.000  N
  C127     1.0000 0.51775  0.54565  0.48816  Biso   1.000  C
  N50      1.0000 0.49337  0.53790  0.45403  Biso   1.000  N
  C128     1.0000 0.46853  0.54552  0.46520  Biso   1.000  C
  N51      1.0000 0.46337  0.55904  0.50501  Biso   1.000  N
  C129     1.0000 0.48750  0.56601  0.53915  Biso   1.000  C
  N52      1.0000 0.48491  0.57926  0.58163  Biso   1.000  N
  C130     1.0000 0.50974  0.58516  0.61302  Biso   1.000  C
  N53      1.0000 0.53791  0.58040  0.60926  Biso   1.000  N
  C131     1.0000 0.54072  0.56720  0.56646  Biso   1.000  C
  N54      1.0000 0.56761  0.56183  0.55879  Biso   1.000  N
  C132     1.0000 0.51521  0.55959  0.53176  Biso   1.000  C
  Zn7      1.0000 0.15273  0.50716  0.80690  Biso   1.000  Zn
  I7       1.0000 0.21793  0.54595  0.80786  Biso   1.000  I
  N55      1.0000 0.13882  0.45627  0.82110  Biso   1.000  N
  C133     1.0000 0.15421  0.44118  0.79603  Biso   1.000  C
  H73      1.0000 0.17050  0.45470  0.77200  Biso   1.000  H
  C134     1.0000 0.14762  0.40808  0.80345  Biso   1.000  C
  H74      1.0000 0.15850  0.39830  0.78460  Biso   1.000  H
  C135     1.0000 0.12443  0.38871  0.83956  Biso   1.000  C
  C136     1.0000 0.10800  0.40312  0.86444  Biso   1.000  C
  H75      1.0000 0.09180  0.39020  0.88880  Biso   1.000  H
  C137     1.0000 0.11554  0.43712  0.85342  Biso   1.000  C
  H76      1.0000 0.10340  0.44670  0.86980  Biso   1.000  H
  N56      1.0000 0.14696  0.20462  0.69068  Biso   1.000  N
  C138     1.0000 0.13432  0.18920  0.73293  Biso   1.000  C
  H77      1.0000 0.13100  0.16640  0.73820  Biso   1.000  H
  C139     1.0000 0.12592  0.20470  0.76854  Biso   1.000  C
  H78      1.0000 0.11740  0.19310  0.79800  Biso   1.000  H
  C140     1.0000 0.13009  0.23776  0.76104  Biso   1.000  C
  C141     1.0000 0.14490  0.25468  0.71832  Biso   1.000  C
  H79      1.0000 0.14950  0.27790  0.71280  Biso   1.000  H
  C142     1.0000 0.15255  0.23748  0.68475  Biso   1.000  C
  H80      1.0000 0.16230  0.24910  0.65570  Biso   1.000  H
  N57      1.0000 0.04158  0.20638  0.07889  Biso   1.000  N
  C143     1.0000 0.04280  0.23590  0.06830  Biso   1.000  C
  H81      1.0000 0.03440  0.24590  0.09090  Biso   1.000  H
  C144     1.0000 0.05587  0.25350  0.02634  Biso   1.000  C
  H82      1.0000 0.05640  0.27510  0.02100  Biso   1.000  H
  C145     1.0000 0.06773  0.24064  0.99316  Biso   1.000  C
  C146     1.0000 0.06800  0.21020  0.00370  Biso   1.000  C
  H83      1.0000 0.07720  0.20050  0.98190  Biso   1.000  H
  C147     1.0000 0.05420  0.19370  0.04750  Biso   1.000  C
  H84      1.0000 0.05410  0.17260  0.05460  Biso   1.000  H
  C148     1.0000 0.11816  0.35260  0.84945  Biso   1.000  C
  N58      1.0000 0.12713  0.33819  0.81357  Biso   1.000  N
  C149     1.0000 0.12102  0.30544  0.82149  Biso   1.000  C
  N59      1.0000 0.12877  0.28881  0.78736  Biso   1.000  N
  C150     1.0000 0.12115  0.25635  0.79853  Biso   1.000  C
  N60      1.0000 0.10763  0.23767  0.83834  Biso   1.000  N
  C151     1.0000 0.10066  0.25483  0.87248  Biso   1.000  C
  N61      1.0000 0.08741  0.23899  0.91496  Biso   1.000  N
  C152     1.0000 0.08151  0.25792  0.94635  Biso   1.000  C
  N62      1.0000 0.08627  0.29085  0.94259  Biso   1.000  N
  C153     1.0000 0.09947  0.30686  0.89979  Biso   1.000  C
  N63      1.0000 0.10484  0.33912  0.89212  Biso   1.000  N
  C154     1.0000 0.10708  0.28896  0.86509  Biso   1.000  C
  Zn8      1.0000 0.81939  0.84050  0.14023  Biso   1.000  Zn
  I8       1.0000 0.88459  0.87929  0.14119  Biso   1.000  I
  N64      1.0000 0.80549  0.78960  0.15443  Biso   1.000  N
  C155     1.0000 0.82088  0.77451  0.12936  Biso   1.000  C
  H85      1.0000 0.83717  0.78803  0.10533  Biso   1.000  H
  C156     1.0000 0.81429  0.74141  0.13678  Biso   1.000  C
  H86      1.0000 0.82517  0.73163  0.11793  Biso   1.000  H
  C157     1.0000 0.79110  0.72204  0.17289  Biso   1.000  C
  C158     1.0000 0.77467  0.73645  0.19777  Biso   1.000  C
  H87      1.0000 0.75847  0.72353  0.22213  Biso   1.000  H
  C159     1.0000 0.78221  0.77045  0.18675  Biso   1.000  C
  H88      1.0000 0.77007  0.78003  0.20313  Biso   1.000  H
  N65      1.0000 0.81363  0.53795  0.02401  Biso   1.000  N
  C160     1.0000 0.80099  0.52253  0.06626  Biso   1.000  C
  H89      1.0000 0.79767  0.49973  0.07153  Biso   1.000  H
  C161     1.0000 0.79259  0.53803  0.10187  Biso   1.000  C
  H90      1.0000 0.78407  0.52643  0.13133  Biso   1.000  H
  C162     1.0000 0.79676  0.57109  0.09437  Biso   1.000  C
  C163     1.0000 0.81157  0.58801  0.05165  Biso   1.000  C
  H91      1.0000 0.81617  0.61123  0.04613  Biso   1.000  H
  C164     1.0000 0.81922  0.57081  0.01808  Biso   1.000  C
  H92      1.0000 0.82897  0.58243  0.98903  Biso   1.000  H
  N66      1.0000 0.70825  0.53971  0.41222  Biso   1.000  N
  C165     1.0000 0.70947  0.56923  0.40163  Biso   1.000  C
  H93      1.0000 0.70107  0.57923  0.42423  Biso   1.000  H
  C166     1.0000 0.72254  0.58683  0.35967  Biso   1.000  C
  H94      1.0000 0.72307  0.60843  0.35433  Biso   1.000  H
  C167     1.0000 0.73440  0.57397  0.32649  Biso   1.000  C
  C168     1.0000 0.73467  0.54353  0.33703  Biso   1.000  C
  H95      1.0000 0.74387  0.53383  0.31523  Biso   1.000  H
  C169     1.0000 0.72087  0.52703  0.38083  Biso   1.000  C
  H96      1.0000 0.72077  0.50593  0.38793  Biso   1.000  H
  C170     1.0000 0.78483  0.68593  0.18278  Biso   1.000  C
  N67      1.0000 0.79380  0.67152  0.14690  Biso   1.000  N
  C171     1.0000 0.78769  0.63877  0.15482  Biso   1.000  C
  N68      1.0000 0.79544  0.62214  0.12069  Biso   1.000  N
  C172     1.0000 0.78782  0.58968  0.13186  Biso   1.000  C
  N69      1.0000 0.77430  0.57100  0.17167  Biso   1.000  N
  C173     1.0000 0.76733  0.58816  0.20581  Biso   1.000  C
  N70      1.0000 0.75408  0.57232  0.24829  Biso   1.000  N
  C174     1.0000 0.74818  0.59125  0.27968  Biso   1.000  C
  N71      1.0000 0.75294  0.62418  0.27592  Biso   1.000  N
  C175     1.0000 0.76614  0.64019  0.23312  Biso   1.000  C
  N72      1.0000 0.77151  0.67245  0.22545  Biso   1.000  N
  C176     1.0000 0.77375  0.62229  0.19842  Biso   1.000  C
  Zn9      1.0000 0.48606  0.17383  0.47357  Biso   1.000  Zn
  I9       1.0000 0.55126  0.21262  0.47453  Biso   1.000  I
  N73      1.0000 0.47215  0.12294  0.48777  Biso   1.000  N
  C177     1.0000 0.48754  0.10785  0.46270  Biso   1.000  C
  H97      1.0000 0.50383  0.12137  0.43867  Biso   1.000  H
  C178     1.0000 0.48095  0.07475  0.47012  Biso   1.000  C
  H98      1.0000 0.49183  0.06497  0.45127  Biso   1.000  H
  C179     1.0000 0.45776  0.05538  0.50623  Biso   1.000  C
  C180     1.0000 0.44133  0.06979  0.53111  Biso   1.000  C
  H99      1.0000 0.42513  0.05687  0.55547  Biso   1.000  H
  C181     1.0000 0.44887  0.10379  0.52009  Biso   1.000  C
  H100     1.0000 0.43673  0.11337  0.53647  Biso   1.000  H
  N74      1.0000 0.48029  0.87129  0.35735  Biso   1.000  N
  C182     1.0000 0.46765  0.85587  0.39960  Biso   1.000  C
  H101     1.0000 0.46433  0.83307  0.40487  Biso   1.000  H
  C183     1.0000 0.45925  0.87137  0.43521  Biso   1.000  C
  H102     1.0000 0.45073  0.85977  0.46467  Biso   1.000  H
  C184     1.0000 0.46342  0.90443  0.42771  Biso   1.000  C
  C185     1.0000 0.47823  0.92135  0.38499  Biso   1.000  C
  H103     1.0000 0.48283  0.94457  0.37947  Biso   1.000  H
  C186     1.0000 0.48588  0.90415  0.35142  Biso   1.000  C
  H104     1.0000 0.49563  0.91577  0.32237  Biso   1.000  H
  N75      1.0000 0.37491  0.87305  0.74556  Biso   1.000  N
  C187     1.0000 0.37613  0.90257  0.73497  Biso   1.000  C
  H105     1.0000 0.36773  0.91257  0.75757  Biso   1.000  H
  C188     1.0000 0.38920  0.92017  0.69301  Biso   1.000  C
  H106     1.0000 0.38973  0.94177  0.68767  Biso   1.000  H
  C189     1.0000 0.40106  0.90731  0.65983  Biso   1.000  C
  C190     1.0000 0.40133  0.87687  0.67037  Biso   1.000  C
  H107     1.0000 0.41053  0.86717  0.64857  Biso   1.000  H
  C191     1.0000 0.38753  0.86037  0.71417  Biso   1.000  C
  H108     1.0000 0.38743  0.83927  0.72127  Biso   1.000  H
  C192     1.0000 0.45149  0.01927  0.51612  Biso   1.000  C
  N76      1.0000 0.46046  0.00486  0.48024  Biso   1.000  N
  C193     1.0000 0.45435  0.97211  0.48816  Biso   1.000  C
  N77      1.0000 0.46210  0.95548  0.45403  Biso   1.000  N
  C194     1.0000 0.45448  0.92302  0.46520  Biso   1.000  C
  N78      1.0000 0.44096  0.90434  0.50501  Biso   1.000  N
  C195     1.0000 0.43399  0.92150  0.53915  Biso   1.000  C
  N79      1.0000 0.42074  0.90566  0.58163  Biso   1.000  N
  C196     1.0000 0.41484  0.92459  0.61302  Biso   1.000  C
  N80      1.0000 0.41960  0.95752  0.60926  Biso   1.000  N
  C197     1.0000 0.43280  0.97353  0.56646  Biso   1.000  C
  N81      1.0000 0.43817  0.00579  0.55879  Biso   1.000  N
  C198     1.0000 0.44041  0.95563  0.53176  Biso   1.000  C
  Zn10     1.0000 0.35444  0.50716  0.30690  Biso   1.000  Zn
  I10      1.0000 0.32803  0.54595  0.30786  Biso   1.000  I
  N82      1.0000 0.31745  0.45627  0.32110  Biso   1.000  N
  C199     1.0000 0.28697  0.44118  0.29603  Biso   1.000  C
  H109     1.0000 0.28420  0.45470  0.27200  Biso   1.000  H
  C200     1.0000 0.26046  0.40808  0.30345  Biso   1.000  C
  H110     1.0000 0.23980  0.39830  0.28460  Biso   1.000  H
  C201     1.0000 0.26428  0.38871  0.33956  Biso   1.000  C
  C202     1.0000 0.29512  0.40312  0.36444  Biso   1.000  C
  H111     1.0000 0.29840  0.39020  0.38880  Biso   1.000  H
  C203     1.0000 0.32158  0.43712  0.35342  Biso   1.000  C
  H112     1.0000 0.34330  0.44670  0.36980  Biso   1.000  H
  N83      1.0000 0.05766  0.20462  0.19068  Biso   1.000  N
  C204     1.0000 0.05488  0.18920  0.23293  Biso   1.000  C
  H113     1.0000 0.03540  0.16640  0.23820  Biso   1.000  H
  C205     1.0000 0.07878  0.20470  0.26854  Biso   1.000  C
  H114     1.0000 0.07570  0.19310  0.29800  Biso   1.000  H
  C206     1.0000 0.10767  0.23776  0.26104  Biso   1.000  C
  C207     1.0000 0.10978  0.25468  0.21832  Biso   1.000  C
  H115     1.0000 0.12840  0.27790  0.21280  Biso   1.000  H
  C208     1.0000 0.08493  0.23748  0.18475  Biso   1.000  C
  H116     1.0000 0.08680  0.24910  0.15570  Biso   1.000  H
  N84      1.0000 0.16480  0.20638  0.57889  Biso   1.000  N
  C209     1.0000 0.19310  0.23590  0.56830  Biso   1.000  C
  H117     1.0000 0.21150  0.24590  0.59090  Biso   1.000  H
  C210     1.0000 0.19763  0.25350  0.52634  Biso   1.000  C
  H118     1.0000 0.21870  0.27510  0.52100  Biso   1.000  H
  C211     1.0000 0.17291  0.24064  0.49316  Biso   1.000  C
  C212     1.0000 0.14220  0.21020  0.50370  Biso   1.000  C
  H119     1.0000 0.12330  0.20050  0.48190  Biso   1.000  H
  C213     1.0000 0.13950  0.19370  0.54750  Biso   1.000  C
  H120     1.0000 0.11850  0.17260  0.55460  Biso   1.000  H
  C214     1.0000 0.23444  0.35260  0.34945  Biso   1.000  C
  N85      1.0000 0.21106  0.33819  0.31357  Biso   1.000  N
  C215     1.0000 0.18442  0.30544  0.32149  Biso   1.000  C
  N86      1.0000 0.16004  0.28881  0.28736  Biso   1.000  N
  C216     1.0000 0.13520  0.25635  0.29853  Biso   1.000  C
  N87      1.0000 0.13004  0.23767  0.33834  Biso   1.000  N
  C217     1.0000 0.15417  0.25483  0.37248  Biso   1.000  C
  N88      1.0000 0.15158  0.23899  0.41496  Biso   1.000  N
  C218     1.0000 0.17641  0.25792  0.44635  Biso   1.000  C
  N89      1.0000 0.20458  0.29085  0.44259  Biso   1.000  N
  C219     1.0000 0.20739  0.30686  0.39979  Biso   1.000  C
  N90      1.0000 0.23428  0.33912  0.39212  Biso   1.000  N
  C220     1.0000 0.18188  0.28896  0.36509  Biso   1.000  C
  Zn11     1.0000 0.02110  0.84050  0.64023  Biso   1.000  Zn
  I11      1.0000 0.99469  0.87929  0.64119  Biso   1.000  I
  N91      1.0000 0.98412  0.78960  0.65443  Biso   1.000  N
  C221     1.0000 0.95364  0.77451  0.62936  Biso   1.000  C
  H121     1.0000 0.95087  0.78803  0.60533  Biso   1.000  H
  C222     1.0000 0.92713  0.74141  0.63678  Biso   1.000  C
  H122     1.0000 0.90647  0.73163  0.61793  Biso   1.000  H
  C223     1.0000 0.93095  0.72204  0.67289  Biso   1.000  C
  C224     1.0000 0.96179  0.73645  0.69777  Biso   1.000  C
  H123     1.0000 0.96507  0.72353  0.72213  Biso   1.000  H
  C225     1.0000 0.98825  0.77045  0.68675  Biso   1.000  C
  H124     1.0000 0.00997  0.78003  0.70313  Biso   1.000  H
  N92      1.0000 0.72433  0.53795  0.52401  Biso   1.000  N
  C226     1.0000 0.72155  0.52253  0.56626  Biso   1.000  C
  H125     1.0000 0.70207  0.49973  0.57153  Biso   1.000  H
  C227     1.0000 0.74545  0.53803  0.60187  Biso   1.000  C
  H126     1.0000 0.74237  0.52643  0.63133  Biso   1.000  H
  C228     1.0000 0.77434  0.57109  0.59437  Biso   1.000  C
  C229     1.0000 0.77645  0.58801  0.55165  Biso   1.000  C
  H127     1.0000 0.79507  0.61123  0.54613  Biso   1.000  H
  C230     1.0000 0.75160  0.57081  0.51808  Biso   1.000  C
  H128     1.0000 0.75347  0.58243  0.48903  Biso   1.000  H
  N93      1.0000 0.83147  0.53971  0.91222  Biso   1.000  N
  C231     1.0000 0.85977  0.56923  0.90163  Biso   1.000  C
  H129     1.0000 0.87817  0.57923  0.92423  Biso   1.000  H
  C232     1.0000 0.86430  0.58683  0.85967  Biso   1.000  C
  H130     1.0000 0.88537  0.60843  0.85433  Biso   1.000  H
  C233     1.0000 0.83958  0.57397  0.82649  Biso   1.000  C
  C234     1.0000 0.80887  0.54353  0.83703  Biso   1.000  C
  H131     1.0000 0.78997  0.53383  0.81523  Biso   1.000  H
  C235     1.0000 0.80617  0.52703  0.88083  Biso   1.000  C
  H132     1.0000 0.78517  0.50593  0.88793  Biso   1.000  H
  C236     1.0000 0.90111  0.68593  0.68278  Biso   1.000  C
  N94      1.0000 0.87773  0.67152  0.64690  Biso   1.000  N
  C237     1.0000 0.85109  0.63877  0.65482  Biso   1.000  C
  N95      1.0000 0.82671  0.62214  0.62069  Biso   1.000  N
  C238     1.0000 0.80187  0.58968  0.63186  Biso   1.000  C
  N96      1.0000 0.79671  0.57100  0.67167  Biso   1.000  N
  C239     1.0000 0.82084  0.58816  0.70581  Biso   1.000  C
  N97      1.0000 0.81825  0.57232  0.74829  Biso   1.000  N
  C240     1.0000 0.84308  0.59125  0.77968  Biso   1.000  C
  N98      1.0000 0.87125  0.62418  0.77592  Biso   1.000  N
  C241     1.0000 0.87406  0.64019  0.73312  Biso   1.000  C
  N99      1.0000 0.90095  0.67245  0.72545  Biso   1.000  N
  C242     1.0000 0.84855  0.62229  0.69842  Biso   1.000  C
  Zn12     1.0000 0.68777  0.17383  0.97357  Biso   1.000  Zn
  I12      1.0000 0.66136  0.21262  0.97453  Biso   1.000  I
  N100     1.0000 0.65078  0.12294  0.98777  Biso   1.000  N
  C243     1.0000 0.62030  0.10785  0.96270  Biso   1.000  C
  H133     1.0000 0.61753  0.12137  0.93867  Biso   1.000  H
  C244     1.0000 0.59379  0.07475  0.97012  Biso   1.000  C
  H134     1.0000 0.57313  0.06497  0.95127  Biso   1.000  H
  C245     1.0000 0.59761  0.05538  0.00623  Biso   1.000  C
  C246     1.0000 0.62845  0.06979  0.03111  Biso   1.000  C
  H135     1.0000 0.63173  0.05687  0.05547  Biso   1.000  H
  C247     1.0000 0.65491  0.10379  0.02009  Biso   1.000  C
  H136     1.0000 0.67663  0.11337  0.03647  Biso   1.000  H
  N101     1.0000 0.39099  0.87129  0.85735  Biso   1.000  N
  C248     1.0000 0.38821  0.85587  0.89960  Biso   1.000  C
  H137     1.0000 0.36873  0.83307  0.90487  Biso   1.000  H
  C249     1.0000 0.41211  0.87137  0.93521  Biso   1.000  C
  H138     1.0000 0.40903  0.85977  0.96467  Biso   1.000  H
  C250     1.0000 0.44100  0.90443  0.92771  Biso   1.000  C
  C251     1.0000 0.44311  0.92135  0.88499  Biso   1.000  C
  H139     1.0000 0.46173  0.94457  0.87947  Biso   1.000  H
  C252     1.0000 0.41826  0.90415  0.85142  Biso   1.000  C
  H140     1.0000 0.42013  0.91577  0.82237  Biso   1.000  H
  N102     1.0000 0.49813  0.87305  0.24556  Biso   1.000  N
  C253     1.0000 0.52643  0.90257  0.23497  Biso   1.000  C
  H141     1.0000 0.54483  0.91257  0.25757  Biso   1.000  H
  C254     1.0000 0.53096  0.92017  0.19301  Biso   1.000  C
  H142     1.0000 0.55203  0.94177  0.18767  Biso   1.000  H
  C255     1.0000 0.50624  0.90731  0.15983  Biso   1.000  C
  C256     1.0000 0.47553  0.87687  0.17037  Biso   1.000  C
  H143     1.0000 0.45663  0.86717  0.14857  Biso   1.000  H
  C257     1.0000 0.47283  0.86037  0.21417  Biso   1.000  C
  H144     1.0000 0.45183  0.83927  0.22127  Biso   1.000  H
  C258     1.0000 0.56777  0.01927  0.01612  Biso   1.000  C
  N103     1.0000 0.54439  0.00486  0.98024  Biso   1.000  N
  C259     1.0000 0.51775  0.97211  0.98816  Biso   1.000  C
  N104     1.0000 0.49337  0.95548  0.95403  Biso   1.000  N
  C260     1.0000 0.46853  0.92302  0.96520  Biso   1.000  C
  N105     1.0000 0.46337  0.90434  0.00501  Biso   1.000  N
  C261     1.0000 0.48750  0.92150  0.03915  Biso   1.000  C
  N106     1.0000 0.48491  0.90566  0.08163  Biso   1.000  N
  C262     1.0000 0.50974  0.92459  0.11302  Biso   1.000  C
  N107     1.0000 0.53791  0.95752  0.10926  Biso   1.000  N
  C263     1.0000 0.54072  0.97353  0.06646  Biso   1.000  C
  N108     1.0000 0.56761  0.00579  0.05879  Biso   1.000  N
  C264     1.0000 0.51521  0.95563  0.03176  Biso   1.000  C
  Zn13     1.0000 0.15273  0.64556  0.30690  Biso   1.000  Zn
  I13      1.0000 0.21793  0.67197  0.30786  Biso   1.000  I
  N109     1.0000 0.13882  0.68255  0.32110  Biso   1.000  N
  C265     1.0000 0.15421  0.71303  0.29603  Biso   1.000  C
  H145     1.0000 0.17050  0.71580  0.27200  Biso   1.000  H
  C266     1.0000 0.14762  0.73954  0.30345  Biso   1.000  C
  H146     1.0000 0.15850  0.76020  0.28460  Biso   1.000  H
  C267     1.0000 0.12443  0.73572  0.33956  Biso   1.000  C
  C268     1.0000 0.10800  0.70488  0.36444  Biso   1.000  C
  H147     1.0000 0.09180  0.70160  0.38880  Biso   1.000  H
  C269     1.0000 0.11554  0.67842  0.35342  Biso   1.000  C
  H148     1.0000 0.10340  0.65670  0.36980  Biso   1.000  H
  N110     1.0000 0.14696  0.94234  0.19068  Biso   1.000  N
  C270     1.0000 0.13432  0.94512  0.23293  Biso   1.000  C
  H149     1.0000 0.13100  0.96460  0.23820  Biso   1.000  H
  C271     1.0000 0.12592  0.92122  0.26854  Biso   1.000  C
  H150     1.0000 0.11740  0.92430  0.29800  Biso   1.000  H
  C272     1.0000 0.13009  0.89233  0.26104  Biso   1.000  C
  C273     1.0000 0.14490  0.89022  0.21832  Biso   1.000  C
  H151     1.0000 0.14950  0.87160  0.21280  Biso   1.000  H
  C274     1.0000 0.15255  0.91507  0.18475  Biso   1.000  C
  H152     1.0000 0.16230  0.91320  0.15570  Biso   1.000  H
  N111     1.0000 0.04158  0.83520  0.57889  Biso   1.000  N
  C275     1.0000 0.04280  0.80690  0.56830  Biso   1.000  C
  H153     1.0000 0.03440  0.78850  0.59090  Biso   1.000  H
  C276     1.0000 0.05587  0.80237  0.52634  Biso   1.000  C
  H154     1.0000 0.05640  0.78130  0.52100  Biso   1.000  H
  C277     1.0000 0.06773  0.82709  0.49316  Biso   1.000  C
  C278     1.0000 0.06800  0.85780  0.50370  Biso   1.000  C
  H155     1.0000 0.07720  0.87670  0.48190  Biso   1.000  H
  C279     1.0000 0.05420  0.86050  0.54750  Biso   1.000  C
  H156     1.0000 0.05410  0.88150  0.55460  Biso   1.000  H
  C280     1.0000 0.11816  0.76556  0.34945  Biso   1.000  C
  N112     1.0000 0.12713  0.78894  0.31357  Biso   1.000  N
  C281     1.0000 0.12102  0.81558  0.32149  Biso   1.000  C
  N113     1.0000 0.12877  0.83996  0.28736  Biso   1.000  N
  C282     1.0000 0.12115  0.86480  0.29853  Biso   1.000  C
  N114     1.0000 0.10763  0.86996  0.33834  Biso   1.000  N
  C283     1.0000 0.10066  0.84583  0.37248  Biso   1.000  C
  N115     1.0000 0.08741  0.84842  0.41496  Biso   1.000  N
  C284     1.0000 0.08151  0.82359  0.44635  Biso   1.000  C
  N116     1.0000 0.08627  0.79542  0.44259  Biso   1.000  N
  C285     1.0000 0.09947  0.79261  0.39979  Biso   1.000  C
  N117     1.0000 0.10484  0.76572  0.39212  Biso   1.000  N
  C286     1.0000 0.10708  0.81812  0.36509  Biso   1.000  C
  Zn14     1.0000 0.81939  0.97890  0.64023  Biso   1.000  Zn
  I14      1.0000 0.88459  0.00531  0.64119  Biso   1.000  I
  N118     1.0000 0.80549  0.01588  0.65443  Biso   1.000  N
  C287     1.0000 0.82088  0.04636  0.62936  Biso   1.000  C
  H157     1.0000 0.83717  0.04913  0.60533  Biso   1.000  H
  C288     1.0000 0.81429  0.07287  0.63678  Biso   1.000  C
  H158     1.0000 0.82517  0.09353  0.61793  Biso   1.000  H
  C289     1.0000 0.79110  0.06905  0.67289  Biso   1.000  C
  C290     1.0000 0.77467  0.03821  0.69777  Biso   1.000  C
  H159     1.0000 0.75847  0.03493  0.72213  Biso   1.000  H
  C291     1.0000 0.78221  0.01175  0.68675  Biso   1.000  C
  H160     1.0000 0.77007  0.99003  0.70313  Biso   1.000  H
  N119     1.0000 0.81363  0.27567  0.52401  Biso   1.000  N
  C292     1.0000 0.80099  0.27845  0.56626  Biso   1.000  C
  H161     1.0000 0.79767  0.29793  0.57153  Biso   1.000  H
  C293     1.0000 0.79259  0.25455  0.60187  Biso   1.000  C
  H162     1.0000 0.78407  0.25763  0.63133  Biso   1.000  H
  C294     1.0000 0.79676  0.22566  0.59437  Biso   1.000  C
  C295     1.0000 0.81157  0.22355  0.55165  Biso   1.000  C
  H163     1.0000 0.81617  0.20493  0.54613  Biso   1.000  H
  C296     1.0000 0.81922  0.24840  0.51808  Biso   1.000  C
  H164     1.0000 0.82897  0.24653  0.48903  Biso   1.000  H
  N120     1.0000 0.70825  0.16853  0.91222  Biso   1.000  N
  C297     1.0000 0.70947  0.14023  0.90163  Biso   1.000  C
  H165     1.0000 0.70107  0.12183  0.92423  Biso   1.000  H
  C298     1.0000 0.72254  0.13570  0.85967  Biso   1.000  C
  H166     1.0000 0.72307  0.11463  0.85433  Biso   1.000  H
  C299     1.0000 0.73440  0.16042  0.82649  Biso   1.000  C
  C300     1.0000 0.73467  0.19113  0.83703  Biso   1.000  C
  H167     1.0000 0.74387  0.21003  0.81523  Biso   1.000  H
  C301     1.0000 0.72087  0.19383  0.88083  Biso   1.000  C
  H168     1.0000 0.72077  0.21483  0.88793  Biso   1.000  H
  C302     1.0000 0.78483  0.09889  0.68278  Biso   1.000  C
  N121     1.0000 0.79380  0.12227  0.64690  Biso   1.000  N
  C303     1.0000 0.78769  0.14891  0.65482  Biso   1.000  C
  N122     1.0000 0.79544  0.17329  0.62069  Biso   1.000  N
  C304     1.0000 0.78782  0.19813  0.63186  Biso   1.000  C
  N123     1.0000 0.77430  0.20329  0.67167  Biso   1.000  N
  C305     1.0000 0.76733  0.17916  0.70581  Biso   1.000  C
  N124     1.0000 0.75408  0.18175  0.74829  Biso   1.000  N
  C306     1.0000 0.74818  0.15692  0.77968  Biso   1.000  C
  N125     1.0000 0.75294  0.12875  0.77592  Biso   1.000  N
  C307     1.0000 0.76614  0.12594  0.73312  Biso   1.000  C
  N126     1.0000 0.77151  0.09905  0.72545  Biso   1.000  N
  C308     1.0000 0.77375  0.15145  0.69842  Biso   1.000  C
  Zn15     1.0000 0.48606  0.31223  0.97357  Biso   1.000  Zn
  I15      1.0000 0.55126  0.33864  0.97453  Biso   1.000  I
  N127     1.0000 0.47215  0.34922  0.98777  Biso   1.000  N
  C309     1.0000 0.48754  0.37970  0.96270  Biso   1.000  C
  H169     1.0000 0.50383  0.38247  0.93867  Biso   1.000  H
  C310     1.0000 0.48095  0.40621  0.97012  Biso   1.000  C
  H170     1.0000 0.49183  0.42687  0.95127  Biso   1.000  H
  C311     1.0000 0.45776  0.40239  0.00623  Biso   1.000  C
  C312     1.0000 0.44133  0.37155  0.03111  Biso   1.000  C
  H171     1.0000 0.42513  0.36827  0.05547  Biso   1.000  H
  C313     1.0000 0.44887  0.34509  0.02009  Biso   1.000  C
  H172     1.0000 0.43673  0.32337  0.03647  Biso   1.000  H
  N128     1.0000 0.48029  0.60901  0.85735  Biso   1.000  N
  C314     1.0000 0.46765  0.61179  0.89960  Biso   1.000  C
  H173     1.0000 0.46433  0.63127  0.90487  Biso   1.000  H
  C315     1.0000 0.45925  0.58789  0.93521  Biso   1.000  C
  H174     1.0000 0.45073  0.59097  0.96467  Biso   1.000  H
  C316     1.0000 0.46342  0.55900  0.92771  Biso   1.000  C
  C317     1.0000 0.47823  0.55689  0.88499  Biso   1.000  C
  H175     1.0000 0.48283  0.53827  0.87947  Biso   1.000  H
  C318     1.0000 0.48588  0.58174  0.85142  Biso   1.000  C
  H176     1.0000 0.49563  0.57987  0.82237  Biso   1.000  H
  N129     1.0000 0.37491  0.50187  0.24556  Biso   1.000  N
  C319     1.0000 0.37613  0.47357  0.23497  Biso   1.000  C
  H177     1.0000 0.36773  0.45517  0.25757  Biso   1.000  H
  C320     1.0000 0.38920  0.46904  0.19301  Biso   1.000  C
  H178     1.0000 0.38973  0.44797  0.18767  Biso   1.000  H
  C321     1.0000 0.40106  0.49376  0.15983  Biso   1.000  C
  C322     1.0000 0.40133  0.52447  0.17037  Biso   1.000  C
  H179     1.0000 0.41053  0.54337  0.14857  Biso   1.000  H
  C323     1.0000 0.38753  0.52717  0.21417  Biso   1.000  C
  H180     1.0000 0.38743  0.54817  0.22127  Biso   1.000  H
  C324     1.0000 0.45149  0.43223  0.01612  Biso   1.000  C
  N130     1.0000 0.46046  0.45561  0.98024  Biso   1.000  N
  C325     1.0000 0.45435  0.48225  0.98816  Biso   1.000  C
  N131     1.0000 0.46210  0.50663  0.95403  Biso   1.000  N
  C326     1.0000 0.45448  0.53147  0.96520  Biso   1.000  C
  N132     1.0000 0.44096  0.53663  0.00501  Biso   1.000  N
  C327     1.0000 0.43399  0.51250  0.03915  Biso   1.000  C
  N133     1.0000 0.42074  0.51509  0.08163  Biso   1.000  N
  C328     1.0000 0.41484  0.49026  0.11302  Biso   1.000  C
  N134     1.0000 0.41960  0.46209  0.10926  Biso   1.000  N
  C329     1.0000 0.43280  0.45928  0.06646  Biso   1.000  C
  N135     1.0000 0.43817  0.43239  0.05879  Biso   1.000  N
  C330     1.0000 0.44041  0.48479  0.03176  Biso   1.000  C
  Zn16     1.0000 0.49284  0.84727  0.30690  Biso   1.000  Zn
  I16      1.0000 0.45405  0.78207  0.30786  Biso   1.000  I
  N136     1.0000 0.54373  0.86118  0.32110  Biso   1.000  N
  C331     1.0000 0.55882  0.84579  0.29603  Biso   1.000  C
  H181     1.0000 0.54530  0.82950  0.27200  Biso   1.000  H
  C332     1.0000 0.59192  0.85238  0.30345  Biso   1.000  C
  H182     1.0000 0.60170  0.84150  0.28460  Biso   1.000  H
  C333     1.0000 0.61129  0.87557  0.33956  Biso   1.000  C
  C334     1.0000 0.59688  0.89200  0.36444  Biso   1.000  C
  H183     1.0000 0.60980  0.90820  0.38880  Biso   1.000  H
  C335     1.0000 0.56288  0.88446  0.35342  Biso   1.000  C
  H184     1.0000 0.55330  0.89660  0.36980  Biso   1.000  H
  N137     1.0000 0.79538  0.85304  0.19068  Biso   1.000  N
  C336     1.0000 0.81080  0.86568  0.23293  Biso   1.000  C
  H185     1.0000 0.83360  0.86900  0.23820  Biso   1.000  H
  C337     1.0000 0.79530  0.87408  0.26854  Biso   1.000  C
  H186     1.0000 0.80690  0.88260  0.29800  Biso   1.000  H
  C338     1.0000 0.76224  0.86991  0.26104  Biso   1.000  C
  C339     1.0000 0.74532  0.85510  0.21832  Biso   1.000  C
  H187     1.0000 0.72210  0.85050  0.21280  Biso   1.000  H
  C340     1.0000 0.76252  0.84745  0.18475  Biso   1.000  C
  H188     1.0000 0.75090  0.83770  0.15570  Biso   1.000  H
  N138     1.0000 0.79362  0.95842  0.57889  Biso   1.000  N
  C341     1.0000 0.76410  0.95720  0.56830  Biso   1.000  C
  H189     1.0000 0.75410  0.96560  0.59090  Biso   1.000  H
  C342     1.0000 0.74650  0.94413  0.52634  Biso   1.000  C
  H190     1.0000 0.72490  0.94360  0.52100  Biso   1.000  H
  C343     1.0000 0.75936  0.93227  0.49316  Biso   1.000  C
  C344     1.0000 0.78980  0.93200  0.50370  Biso   1.000  C
  H191     1.0000 0.79950  0.92280  0.48190  Biso   1.000  H
  C345     1.0000 0.80630  0.94580  0.54750  Biso   1.000  C
  H192     1.0000 0.82740  0.94590  0.55460  Biso   1.000  H
  C346     1.0000 0.64740  0.88184  0.34945  Biso   1.000  C
  N139     1.0000 0.66181  0.87287  0.31357  Biso   1.000  N
  C347     1.0000 0.69456  0.87898  0.32149  Biso   1.000  C
  N140     1.0000 0.71119  0.87123  0.28736  Biso   1.000  N
  C348     1.0000 0.74365  0.87885  0.29853  Biso   1.000  C
  N141     1.0000 0.76233  0.89237  0.33834  Biso   1.000  N
  C349     1.0000 0.74517  0.89934  0.37248  Biso   1.000  C
  N142     1.0000 0.76101  0.91259  0.41496  Biso   1.000  N
  C350     1.0000 0.74208  0.91849  0.44635  Biso   1.000  C
  N143     1.0000 0.70915  0.91373  0.44259  Biso   1.000  N
  C351     1.0000 0.69314  0.90053  0.39979  Biso   1.000  C
  N144     1.0000 0.66088  0.89516  0.39212  Biso   1.000  N
  C352     1.0000 0.71104  0.89292  0.36509  Biso   1.000  C
  Zn17     1.0000 0.15950  0.18061  0.64023  Biso   1.000  Zn
  I17      1.0000 0.12071  0.11541  0.64119  Biso   1.000  I
  N145     1.0000 0.21040  0.19451  0.65443  Biso   1.000  N
  C353     1.0000 0.22549  0.17912  0.62936  Biso   1.000  C
  H193     1.0000 0.21197  0.16283  0.60533  Biso   1.000  H
  C354     1.0000 0.25859  0.18571  0.63678  Biso   1.000  C
  H194     1.0000 0.26837  0.17483  0.61793  Biso   1.000  H
  C355     1.0000 0.27796  0.20890  0.67289  Biso   1.000  C
  C356     1.0000 0.26355  0.22533  0.69777  Biso   1.000  C
  H195     1.0000 0.27647  0.24153  0.72213  Biso   1.000  H
  C357     1.0000 0.22955  0.21779  0.68675  Biso   1.000  C
  H196     1.0000 0.21997  0.22993  0.70313  Biso   1.000  H
  N146     1.0000 0.46205  0.18637  0.52401  Biso   1.000  N
  C358     1.0000 0.47747  0.19901  0.56626  Biso   1.000  C
  H197     1.0000 0.50027  0.20233  0.57153  Biso   1.000  H
  C359     1.0000 0.46197  0.20741  0.60187  Biso   1.000  C
  H198     1.0000 0.47357  0.21593  0.63133  Biso   1.000  H
  C360     1.0000 0.42891  0.20324  0.59437  Biso   1.000  C
  C361     1.0000 0.41199  0.18843  0.55165  Biso   1.000  C
  H199     1.0000 0.38877  0.18383  0.54613  Biso   1.000  H
  C362     1.0000 0.42919  0.18078  0.51808  Biso   1.000  C
  H200     1.0000 0.41757  0.17103  0.48903  Biso   1.000  H
  N147     1.0000 0.46029  0.29175  0.91222  Biso   1.000  N
  C363     1.0000 0.43077  0.29053  0.90163  Biso   1.000  C
  H201     1.0000 0.42077  0.29893  0.92423  Biso   1.000  H
  C364     1.0000 0.41317  0.27746  0.85967  Biso   1.000  C
  H202     1.0000 0.39157  0.27693  0.85433  Biso   1.000  H
  C365     1.0000 0.42603  0.26560  0.82649  Biso   1.000  C
  C366     1.0000 0.45647  0.26533  0.83703  Biso   1.000  C
  H203     1.0000 0.46617  0.25613  0.81523  Biso   1.000  H
  C367     1.0000 0.47297  0.27913  0.88083  Biso   1.000  C
  H204     1.0000 0.49407  0.27923  0.88793  Biso   1.000  H
  C368     1.0000 0.31407  0.21517  0.68278  Biso   1.000  C
  N148     1.0000 0.32848  0.20620  0.64690  Biso   1.000  N
  C369     1.0000 0.36123  0.21231  0.65482  Biso   1.000  C
  N149     1.0000 0.37786  0.20456  0.62069  Biso   1.000  N
  C370     1.0000 0.41032  0.21218  0.63186  Biso   1.000  C
  N150     1.0000 0.42900  0.22570  0.67167  Biso   1.000  N
  C371     1.0000 0.41184  0.23267  0.70581  Biso   1.000  C
  N151     1.0000 0.42768  0.24592  0.74829  Biso   1.000  N
  C372     1.0000 0.40875  0.25182  0.77968  Biso   1.000  C
  N152     1.0000 0.37582  0.24706  0.77592  Biso   1.000  N
  C373     1.0000 0.35981  0.23386  0.73312  Biso   1.000  C
  N153     1.0000 0.32755  0.22849  0.72545  Biso   1.000  N
  C374     1.0000 0.37771  0.22625  0.69842  Biso   1.000  C
  Zn18     1.0000 0.82617  0.51394  0.97357  Biso   1.000  Zn
  I18      1.0000 0.78738  0.44874  0.97453  Biso   1.000  I
  N154     1.0000 0.87706  0.52785  0.98777  Biso   1.000  N
  C375     1.0000 0.89215  0.51246  0.96270  Biso   1.000  C
  H205     1.0000 0.87863  0.49617  0.93867  Biso   1.000  H
  C376     1.0000 0.92525  0.51905  0.97012  Biso   1.000  C
  H206     1.0000 0.93503  0.50817  0.95127  Biso   1.000  H
  C377     1.0000 0.94462  0.54224  0.00623  Biso   1.000  C
  C378     1.0000 0.93021  0.55867  0.03111  Biso   1.000  C
  H207     1.0000 0.94313  0.57487  0.05547  Biso   1.000  H
  C379     1.0000 0.89621  0.55113  0.02009  Biso   1.000  C
  H208     1.0000 0.88663  0.56327  0.03647  Biso   1.000  H
  N155     1.0000 0.12871  0.51971  0.85735  Biso   1.000  N
  C380     1.0000 0.14413  0.53235  0.89960  Biso   1.000  C
  H209     1.0000 0.16693  0.53567  0.90487  Biso   1.000  H
  C381     1.0000 0.12863  0.54075  0.93521  Biso   1.000  C
  H210     1.0000 0.14023  0.54927  0.96467  Biso   1.000  H
  C382     1.0000 0.09557  0.53658  0.92771  Biso   1.000  C
  C383     1.0000 0.07865  0.52177  0.88499  Biso   1.000  C
  H211     1.0000 0.05543  0.51717  0.87947  Biso   1.000  H
  C384     1.0000 0.09585  0.51412  0.85142  Biso   1.000  C
  H212     1.0000 0.08423  0.50437  0.82237  Biso   1.000  H
  N156     1.0000 0.12695  0.62509  0.24556  Biso   1.000  N
  C385     1.0000 0.09743  0.62387  0.23497  Biso   1.000  C
  H213     1.0000 0.08743  0.63227  0.25757  Biso   1.000  H
  C386     1.0000 0.07983  0.61080  0.19301  Biso   1.000  C
  H214     1.0000 0.05823  0.61027  0.18767  Biso   1.000  H
  C387     1.0000 0.09269  0.59894  0.15983  Biso   1.000  C
  C388     1.0000 0.12313  0.59867  0.17037  Biso   1.000  C
  H215     1.0000 0.13283  0.58947  0.14857  Biso   1.000  H
  C389     1.0000 0.13963  0.61247  0.21417  Biso   1.000  C
  H216     1.0000 0.16073  0.61257  0.22127  Biso   1.000  H
  C390     1.0000 0.98073  0.54851  0.01612  Biso   1.000  C
  N157     1.0000 0.99514  0.53954  0.98024  Biso   1.000  N
  C391     1.0000 0.02789  0.54565  0.98816  Biso   1.000  C
  N158     1.0000 0.04452  0.53790  0.95403  Biso   1.000  N
  C392     1.0000 0.07698  0.54552  0.96520  Biso   1.000  C
  N159     1.0000 0.09566  0.55904  0.00501  Biso   1.000  N
  C393     1.0000 0.07850  0.56601  0.03915  Biso   1.000  C
  N160     1.0000 0.09434  0.57926  0.08163  Biso   1.000  N
  C394     1.0000 0.07541  0.58516  0.11302  Biso   1.000  C
  N161     1.0000 0.04248  0.58040  0.10926  Biso   1.000  N
  C395     1.0000 0.02647  0.56720  0.06646  Biso   1.000  C
  N162     1.0000 0.99421  0.56183  0.05879  Biso   1.000  N
  C396     1.0000 0.04437  0.55959  0.03176  Biso   1.000  C
  Zn19     1.0000 0.64556  0.49284  0.69310  Biso   1.000  Zn
  I19      1.0000 0.67197  0.45405  0.69214  Biso   1.000  I
  N163     1.0000 0.68255  0.54373  0.67890  Biso   1.000  N
  C397     1.0000 0.71303  0.55882  0.70397  Biso   1.000  C
  H217     1.0000 0.71580  0.54530  0.72800  Biso   1.000  H
  C398     1.0000 0.73954  0.59192  0.69655  Biso   1.000  C
  H218     1.0000 0.76020  0.60170  0.71540  Biso   1.000  H
  C399     1.0000 0.73572  0.61129  0.66044  Biso   1.000  C
  C400     1.0000 0.70488  0.59688  0.63556  Biso   1.000  C
  H219     1.0000 0.70160  0.60980  0.61120  Biso   1.000  H
  C401     1.0000 0.67842  0.56288  0.64658  Biso   1.000  C
  H220     1.0000 0.65670  0.55330  0.63020  Biso   1.000  H
  N164     1.0000 0.94234  0.79538  0.80932  Biso   1.000  N
  C402     1.0000 0.94512  0.81080  0.76707  Biso   1.000  C
  H221     1.0000 0.96460  0.83360  0.76180  Biso   1.000  H
  C403     1.0000 0.92122  0.79530  0.73146  Biso   1.000  C
  H222     1.0000 0.92430  0.80690  0.70200  Biso   1.000  H
  C404     1.0000 0.89233  0.76224  0.73896  Biso   1.000  C
  C405     1.0000 0.89022  0.74532  0.78168  Biso   1.000  C
  H223     1.0000 0.87160  0.72210  0.78720  Biso   1.000  H
  C406     1.0000 0.91507  0.76252  0.81525  Biso   1.000  C
  H224     1.0000 0.91320  0.75090  0.84430  Biso   1.000  H
  N165     1.0000 0.83520  0.79362  0.42111  Biso   1.000  N
  C407     1.0000 0.80690  0.76410  0.43170  Biso   1.000  C
  H225     1.0000 0.78850  0.75410  0.40910  Biso   1.000  H
  C408     1.0000 0.80237  0.74650  0.47366  Biso   1.000  C
  H226     1.0000 0.78130  0.72490  0.47900  Biso   1.000  H
  C409     1.0000 0.82709  0.75936  0.50684  Biso   1.000  C
  C410     1.0000 0.85780  0.78980  0.49630  Biso   1.000  C
  H227     1.0000 0.87670  0.79950  0.51810  Biso   1.000  H
  C411     1.0000 0.86050  0.80630  0.45250  Biso   1.000  C
  H228     1.0000 0.88150  0.82740  0.44540  Biso   1.000  H
  C412     1.0000 0.76556  0.64740  0.65055  Biso   1.000  C
  N166     1.0000 0.78894  0.66181  0.68643  Biso   1.000  N
  C413     1.0000 0.81558  0.69456  0.67851  Biso   1.000  C
  N167     1.0000 0.83996  0.71119  0.71264  Biso   1.000  N
  C414     1.0000 0.86480  0.74365  0.70147  Biso   1.000  C
  N168     1.0000 0.86996  0.76233  0.66166  Biso   1.000  N
  C415     1.0000 0.84583  0.74517  0.62752  Biso   1.000  C
  N169     1.0000 0.84842  0.76101  0.58504  Biso   1.000  N
  C416     1.0000 0.82359  0.74208  0.55365  Biso   1.000  C
  N170     1.0000 0.79542  0.70915  0.55741  Biso   1.000  N
  C417     1.0000 0.79261  0.69314  0.60021  Biso   1.000  C
  N171     1.0000 0.76572  0.66088  0.60788  Biso   1.000  N
  C418     1.0000 0.81812  0.71104  0.63491  Biso   1.000  C
  Zn20     1.0000 0.31223  0.82617  0.02643  Biso   1.000  Zn
  I20      1.0000 0.33864  0.78738  0.02547  Biso   1.000  I
  N172     1.0000 0.34922  0.87706  0.01223  Biso   1.000  N
  C419     1.0000 0.37970  0.89215  0.03730  Biso   1.000  C
  H229     1.0000 0.38247  0.87863  0.06133  Biso   1.000  H
  C420     1.0000 0.40621  0.92525  0.02988  Biso   1.000  C
  H230     1.0000 0.42687  0.93503  0.04873  Biso   1.000  H
  C421     1.0000 0.40239  0.94462  0.99377  Biso   1.000  C
  C422     1.0000 0.37155  0.93021  0.96889  Biso   1.000  C
  H231     1.0000 0.36827  0.94313  0.94453  Biso   1.000  H
  C423     1.0000 0.34509  0.89621  0.97991  Biso   1.000  C
  H232     1.0000 0.32337  0.88663  0.96353  Biso   1.000  H
  N173     1.0000 0.60901  0.12871  0.14265  Biso   1.000  N
  C424     1.0000 0.61179  0.14413  0.10040  Biso   1.000  C
  H233     1.0000 0.63127  0.16693  0.09513  Biso   1.000  H
  C425     1.0000 0.58789  0.12863  0.06479  Biso   1.000  C
  H234     1.0000 0.59097  0.14023  0.03533  Biso   1.000  H
  C426     1.0000 0.55900  0.09557  0.07229  Biso   1.000  C
  C427     1.0000 0.55689  0.07865  0.11501  Biso   1.000  C
  H235     1.0000 0.53827  0.05543  0.12053  Biso   1.000  H
  C428     1.0000 0.58174  0.09585  0.14858  Biso   1.000  C
  H236     1.0000 0.57987  0.08423  0.17763  Biso   1.000  H
  N174     1.0000 0.50187  0.12695  0.75444  Biso   1.000  N
  C429     1.0000 0.47357  0.09743  0.76503  Biso   1.000  C
  H237     1.0000 0.45517  0.08743  0.74243  Biso   1.000  H
  C430     1.0000 0.46904  0.07983  0.80699  Biso   1.000  C
  H238     1.0000 0.44797  0.05823  0.81233  Biso   1.000  H
  C431     1.0000 0.49376  0.09269  0.84017  Biso   1.000  C
  C432     1.0000 0.52447  0.12313  0.82963  Biso   1.000  C
  H239     1.0000 0.54337  0.13283  0.85143  Biso   1.000  H
  C433     1.0000 0.52717  0.13963  0.78583  Biso   1.000  C
  H240     1.0000 0.54817  0.16073  0.77873  Biso   1.000  H
  C434     1.0000 0.43223  0.98073  0.98388  Biso   1.000  C
  N175     1.0000 0.45561  0.99514  0.01976  Biso   1.000  N
  C435     1.0000 0.48225  0.02789  0.01184  Biso   1.000  C
  N176     1.0000 0.50663  0.04452  0.04597  Biso   1.000  N
  C436     1.0000 0.53147  0.07698  0.03480  Biso   1.000  C
  N177     1.0000 0.53663  0.09566  0.99499  Biso   1.000  N
  C437     1.0000 0.51250  0.07850  0.96085  Biso   1.000  C
  N178     1.0000 0.51509  0.09434  0.91837  Biso   1.000  N
  C438     1.0000 0.49026  0.07541  0.88698  Biso   1.000  C
  N179     1.0000 0.46209  0.04248  0.89074  Biso   1.000  N
  C439     1.0000 0.45928  0.02647  0.93354  Biso   1.000  C
  N180     1.0000 0.43239  0.99421  0.94121  Biso   1.000  N
  C440     1.0000 0.48479  0.04437  0.96824  Biso   1.000  C
  Zn21     1.0000 0.97890  0.15950  0.35977  Biso   1.000  Zn
  I21      1.0000 0.00531  0.12071  0.35881  Biso   1.000  I
  N181     1.0000 0.01588  0.21040  0.34557  Biso   1.000  N
  C441     1.0000 0.04636  0.22549  0.37064  Biso   1.000  C
  H241     1.0000 0.04913  0.21197  0.39467  Biso   1.000  H
  C442     1.0000 0.07287  0.25859  0.36322  Biso   1.000  C
  H242     1.0000 0.09353  0.26837  0.38207  Biso   1.000  H
  C443     1.0000 0.06905  0.27796  0.32711  Biso   1.000  C
  C444     1.0000 0.03821  0.26355  0.30223  Biso   1.000  C
  H243     1.0000 0.03493  0.27647  0.27787  Biso   1.000  H
  C445     1.0000 0.01175  0.22955  0.31325  Biso   1.000  C
  H244     1.0000 0.99003  0.21997  0.29687  Biso   1.000  H
  N182     1.0000 0.27567  0.46205  0.47599  Biso   1.000  N
  C446     1.0000 0.27845  0.47747  0.43374  Biso   1.000  C
  H245     1.0000 0.29793  0.50027  0.42847  Biso   1.000  H
  C447     1.0000 0.25455  0.46197  0.39813  Biso   1.000  C
  H246     1.0000 0.25763  0.47357  0.36867  Biso   1.000  H
  C448     1.0000 0.22566  0.42891  0.40563  Biso   1.000  C
  C449     1.0000 0.22355  0.41199  0.44835  Biso   1.000  C
  H247     1.0000 0.20493  0.38877  0.45387  Biso   1.000  H
  C450     1.0000 0.24840  0.42919  0.48192  Biso   1.000  C
  H248     1.0000 0.24653  0.41757  0.51097  Biso   1.000  H
  N183     1.0000 0.16853  0.46029  0.08778  Biso   1.000  N
  C451     1.0000 0.14023  0.43077  0.09837  Biso   1.000  C
  H249     1.0000 0.12183  0.42077  0.07577  Biso   1.000  H
  C452     1.0000 0.13570  0.41317  0.14033  Biso   1.000  C
  H250     1.0000 0.11463  0.39157  0.14567  Biso   1.000  H
  C453     1.0000 0.16042  0.42603  0.17351  Biso   1.000  C
  C454     1.0000 0.19113  0.45647  0.16297  Biso   1.000  C
  H251     1.0000 0.21003  0.46617  0.18477  Biso   1.000  H
  C455     1.0000 0.19383  0.47297  0.11917  Biso   1.000  C
  H252     1.0000 0.21483  0.49407  0.11207  Biso   1.000  H
  C456     1.0000 0.09889  0.31407  0.31722  Biso   1.000  C
  N184     1.0000 0.12227  0.32848  0.35310  Biso   1.000  N
  C457     1.0000 0.14891  0.36123  0.34518  Biso   1.000  C
  N185     1.0000 0.17329  0.37786  0.37931  Biso   1.000  N
  C458     1.0000 0.19813  0.41032  0.36814  Biso   1.000  C
  N186     1.0000 0.20329  0.42900  0.32833  Biso   1.000  N
  C459     1.0000 0.17916  0.41184  0.29419  Biso   1.000  C
  N187     1.0000 0.18175  0.42768  0.25171  Biso   1.000  N
  C460     1.0000 0.15692  0.40875  0.22032  Biso   1.000  C
  N188     1.0000 0.12875  0.37582  0.22408  Biso   1.000  N
  C461     1.0000 0.12594  0.35981  0.26688  Biso   1.000  C
  N189     1.0000 0.09905  0.32755  0.27455  Biso   1.000  N
  C462     1.0000 0.15145  0.37771  0.30158  Biso   1.000  C
  Zn22     1.0000 0.84727  0.35444  0.69310  Biso   1.000  Zn
  I22      1.0000 0.78207  0.32803  0.69214  Biso   1.000  I
  N190     1.0000 0.86118  0.31745  0.67890  Biso   1.000  N
  C463     1.0000 0.84579  0.28697  0.70397  Biso   1.000  C
  H253     1.0000 0.82950  0.28420  0.72800  Biso   1.000  H
  C464     1.0000 0.85238  0.26046  0.69655  Biso   1.000  C
  H254     1.0000 0.84150  0.23980  0.71540  Biso   1.000  H
  C465     1.0000 0.87557  0.26428  0.66044  Biso   1.000  C
  C466     1.0000 0.89200  0.29512  0.63556  Biso   1.000  C
  H255     1.0000 0.90820  0.29840  0.61120  Biso   1.000  H
  C467     1.0000 0.88446  0.32158  0.64658  Biso   1.000  C
  H256     1.0000 0.89660  0.34330  0.63020  Biso   1.000  H
  N191     1.0000 0.85304  0.05766  0.80932  Biso   1.000  N
  C468     1.0000 0.86568  0.05488  0.76707  Biso   1.000  C
  H257     1.0000 0.86900  0.03540  0.76180  Biso   1.000  H
  C469     1.0000 0.87408  0.07878  0.73146  Biso   1.000  C
  H258     1.0000 0.88260  0.07570  0.70200  Biso   1.000  H
  C470     1.0000 0.86991  0.10767  0.73896  Biso   1.000  C
  C471     1.0000 0.85510  0.10978  0.78168  Biso   1.000  C
  H259     1.0000 0.85050  0.12840  0.78720  Biso   1.000  H
  C472     1.0000 0.84745  0.08493  0.81525  Biso   1.000  C
  H260     1.0000 0.83770  0.08680  0.84430  Biso   1.000  H
  N192     1.0000 0.95842  0.16480  0.42111  Biso   1.000  N
  C473     1.0000 0.95720  0.19310  0.43170  Biso   1.000  C
  H261     1.0000 0.96560  0.21150  0.40910  Biso   1.000  H
  C474     1.0000 0.94413  0.19763  0.47366  Biso   1.000  C
  H262     1.0000 0.94360  0.21870  0.47900  Biso   1.000  H
  C475     1.0000 0.93227  0.17291  0.50684  Biso   1.000  C
  C476     1.0000 0.93200  0.14220  0.49630  Biso   1.000  C
  H263     1.0000 0.92280  0.12330  0.51810  Biso   1.000  H
  C477     1.0000 0.94580  0.13950  0.45250  Biso   1.000  C
  H264     1.0000 0.94590  0.11850  0.44540  Biso   1.000  H
  C478     1.0000 0.88184  0.23444  0.65055  Biso   1.000  C
  N193     1.0000 0.87287  0.21106  0.68643  Biso   1.000  N
  C479     1.0000 0.87898  0.18442  0.67851  Biso   1.000  C
  N194     1.0000 0.87123  0.16004  0.71264  Biso   1.000  N
  C480     1.0000 0.87885  0.13520  0.70147  Biso   1.000  C
  N195     1.0000 0.89237  0.13004  0.66166  Biso   1.000  N
  C481     1.0000 0.89934  0.15417  0.62752  Biso   1.000  C
  N196     1.0000 0.91259  0.15158  0.58504  Biso   1.000  N
  C482     1.0000 0.91849  0.17641  0.55365  Biso   1.000  C
  N197     1.0000 0.91373  0.20458  0.55741  Biso   1.000  N
  C483     1.0000 0.90053  0.20739  0.60021  Biso   1.000  C
  N198     1.0000 0.89516  0.23428  0.60788  Biso   1.000  N
  C484     1.0000 0.89292  0.18188  0.63491  Biso   1.000  C
  Zn23     1.0000 0.51394  0.68777  0.02643  Biso   1.000  Zn
  I23      1.0000 0.44874  0.66136  0.02547  Biso   1.000  I
  N199     1.0000 0.52785  0.65078  0.01223  Biso   1.000  N
  C485     1.0000 0.51246  0.62030  0.03730  Biso   1.000  C
  H265     1.0000 0.49617  0.61753  0.06133  Biso   1.000  H
  C486     1.0000 0.51905  0.59379  0.02988  Biso   1.000  C
  H266     1.0000 0.50817  0.57313  0.04873  Biso   1.000  H
  C487     1.0000 0.54224  0.59761  0.99377  Biso   1.000  C
  C488     1.0000 0.55867  0.62845  0.96889  Biso   1.000  C
  H267     1.0000 0.57487  0.63173  0.94453  Biso   1.000  H
  C489     1.0000 0.55113  0.65491  0.97991  Biso   1.000  C
  H268     1.0000 0.56327  0.67663  0.96353  Biso   1.000  H
  N200     1.0000 0.51971  0.39099  0.14265  Biso   1.000  N
  C490     1.0000 0.53235  0.38821  0.10040  Biso   1.000  C
  H269     1.0000 0.53567  0.36873  0.09513  Biso   1.000  H
  C491     1.0000 0.54075  0.41211  0.06479  Biso   1.000  C
  H270     1.0000 0.54927  0.40903  0.03533  Biso   1.000  H
  C492     1.0000 0.53658  0.44100  0.07229  Biso   1.000  C
  C493     1.0000 0.52177  0.44311  0.11501  Biso   1.000  C
  H271     1.0000 0.51717  0.46173  0.12053  Biso   1.000  H
  C494     1.0000 0.51412  0.41826  0.14858  Biso   1.000  C
  H272     1.0000 0.50437  0.42013  0.17763  Biso   1.000  H
  N201     1.0000 0.62509  0.49813  0.75444  Biso   1.000  N
  C495     1.0000 0.62387  0.52643  0.76503  Biso   1.000  C
  H273     1.0000 0.63227  0.54483  0.74243  Biso   1.000  H
  C496     1.0000 0.61080  0.53096  0.80699  Biso   1.000  C
  H274     1.0000 0.61027  0.55203  0.81233  Biso   1.000  H
  C497     1.0000 0.59894  0.50624  0.84017  Biso   1.000  C
  C498     1.0000 0.59867  0.47553  0.82963  Biso   1.000  C
  H275     1.0000 0.58947  0.45663  0.85143  Biso   1.000  H
  C499     1.0000 0.61247  0.47283  0.78583  Biso   1.000  C
  H276     1.0000 0.61257  0.45183  0.77873  Biso   1.000  H
  C500     1.0000 0.54851  0.56777  0.98388  Biso   1.000  C
  N202     1.0000 0.53954  0.54439  0.01976  Biso   1.000  N
  C501     1.0000 0.54565  0.51775  0.01184  Biso   1.000  C
  N203     1.0000 0.53790  0.49337  0.04597  Biso   1.000  N
  C502     1.0000 0.54552  0.46853  0.03480  Biso   1.000  C
  N204     1.0000 0.55904  0.46337  0.99499  Biso   1.000  N
  C503     1.0000 0.56601  0.48750  0.96085  Biso   1.000  C
  N205     1.0000 0.57926  0.48491  0.91837  Biso   1.000  N
  C504     1.0000 0.58516  0.50974  0.88698  Biso   1.000  C
  N206     1.0000 0.58040  0.53791  0.89074  Biso   1.000  N
  C505     1.0000 0.56720  0.54072  0.93354  Biso   1.000  C
  N207     1.0000 0.56183  0.56761  0.94121  Biso   1.000  N
  C506     1.0000 0.55959  0.51521  0.96824  Biso   1.000  C
  Zn24     1.0000 0.18061  0.02110  0.35977  Biso   1.000  Zn
  I24      1.0000 0.11541  0.99469  0.35881  Biso   1.000  I
  N208     1.0000 0.19451  0.98412  0.34557  Biso   1.000  N
  C507     1.0000 0.17912  0.95364  0.37064  Biso   1.000  C
  H277     1.0000 0.16283  0.95087  0.39467  Biso   1.000  H
  C508     1.0000 0.18571  0.92713  0.36322  Biso   1.000  C
  H278     1.0000 0.17483  0.90647  0.38207  Biso   1.000  H
  C509     1.0000 0.20890  0.93095  0.32711  Biso   1.000  C
  C510     1.0000 0.22533  0.96179  0.30223  Biso   1.000  C
  H279     1.0000 0.24153  0.96507  0.27787  Biso   1.000  H
  C511     1.0000 0.21779  0.98825  0.31325  Biso   1.000  C
  H280     1.0000 0.22993  0.00997  0.29687  Biso   1.000  H
  N209     1.0000 0.18637  0.72433  0.47599  Biso   1.000  N
  C512     1.0000 0.19901  0.72155  0.43374  Biso   1.000  C
  H281     1.0000 0.20233  0.70207  0.42847  Biso   1.000  H
  C513     1.0000 0.20741  0.74545  0.39813  Biso   1.000  C
  H282     1.0000 0.21593  0.74237  0.36867  Biso   1.000  H
  C514     1.0000 0.20324  0.77434  0.40563  Biso   1.000  C
  C515     1.0000 0.18843  0.77645  0.44835  Biso   1.000  C
  H283     1.0000 0.18383  0.79507  0.45387  Biso   1.000  H
  C516     1.0000 0.18078  0.75160  0.48192  Biso   1.000  C
  H284     1.0000 0.17103  0.75347  0.51097  Biso   1.000  H
  N210     1.0000 0.29175  0.83147  0.08778  Biso   1.000  N
  C517     1.0000 0.29053  0.85977  0.09837  Biso   1.000  C
  H285     1.0000 0.29893  0.87817  0.07577  Biso   1.000  H
  C518     1.0000 0.27746  0.86430  0.14033  Biso   1.000  C
  H286     1.0000 0.27693  0.88537  0.14567  Biso   1.000  H
  C519     1.0000 0.26560  0.83958  0.17351  Biso   1.000  C
  C520     1.0000 0.26533  0.80887  0.16297  Biso   1.000  C
  H287     1.0000 0.25613  0.78997  0.18477  Biso   1.000  H
  C521     1.0000 0.27913  0.80617  0.11917  Biso   1.000  C
  H288     1.0000 0.27923  0.78517  0.11207  Biso   1.000  H
  C522     1.0000 0.21517  0.90111  0.31722  Biso   1.000  C
  N211     1.0000 0.20620  0.87773  0.35310  Biso   1.000  N
  C523     1.0000 0.21231  0.85109  0.34518  Biso   1.000  C
  N212     1.0000 0.20456  0.82671  0.37931  Biso   1.000  N
  C524     1.0000 0.21218  0.80187  0.36814  Biso   1.000  C
  N213     1.0000 0.22570  0.79671  0.32833  Biso   1.000  N
  C525     1.0000 0.23267  0.82084  0.29419  Biso   1.000  C
  N214     1.0000 0.24592  0.81825  0.25171  Biso   1.000  N
  C526     1.0000 0.25182  0.84308  0.22032  Biso   1.000  C
  N215     1.0000 0.24706  0.87125  0.22408  Biso   1.000  N
  C527     1.0000 0.23386  0.87406  0.26688  Biso   1.000  C
  N216     1.0000 0.22849  0.90095  0.27455  Biso   1.000  N
  C528     1.0000 0.22625  0.84855  0.30158  Biso   1.000  C
  Zn25     1.0000 0.50716  0.15273  0.69310  Biso   1.000  Zn
  I25      1.0000 0.54595  0.21793  0.69214  Biso   1.000  I
  N217     1.0000 0.45627  0.13882  0.67890  Biso   1.000  N
  C529     1.0000 0.44118  0.15421  0.70397  Biso   1.000  C
  H289     1.0000 0.45470  0.17050  0.72800  Biso   1.000  H
  C530     1.0000 0.40808  0.14762  0.69655  Biso   1.000  C
  H290     1.0000 0.39830  0.15850  0.71540  Biso   1.000  H
  C531     1.0000 0.38871  0.12443  0.66044  Biso   1.000  C
  C532     1.0000 0.40312  0.10800  0.63556  Biso   1.000  C
  H291     1.0000 0.39020  0.09180  0.61120  Biso   1.000  H
  C533     1.0000 0.43712  0.11554  0.64658  Biso   1.000  C
  H292     1.0000 0.44670  0.10340  0.63020  Biso   1.000  H
  N218     1.0000 0.20462  0.14696  0.80932  Biso   1.000  N
  C534     1.0000 0.18920  0.13432  0.76707  Biso   1.000  C
  H293     1.0000 0.16640  0.13100  0.76180  Biso   1.000  H
  C535     1.0000 0.20470  0.12592  0.73146  Biso   1.000  C
  H294     1.0000 0.19310  0.11740  0.70200  Biso   1.000  H
  C536     1.0000 0.23776  0.13009  0.73896  Biso   1.000  C
  C537     1.0000 0.25468  0.14490  0.78168  Biso   1.000  C
  H295     1.0000 0.27790  0.14950  0.78720  Biso   1.000  H
  C538     1.0000 0.23748  0.15255  0.81525  Biso   1.000  C
  H296     1.0000 0.24910  0.16230  0.84430  Biso   1.000  H
  N219     1.0000 0.20638  0.04158  0.42111  Biso   1.000  N
  C539     1.0000 0.23590  0.04280  0.43170  Biso   1.000  C
  H297     1.0000 0.24590  0.03440  0.40910  Biso   1.000  H
  C540     1.0000 0.25350  0.05587  0.47366  Biso   1.000  C
  H298     1.0000 0.27510  0.05640  0.47900  Biso   1.000  H
  C541     1.0000 0.24064  0.06773  0.50684  Biso   1.000  C
  C542     1.0000 0.21020  0.06800  0.49630  Biso   1.000  C
  H299     1.0000 0.20050  0.07720  0.51810  Biso   1.000  H
  C543     1.0000 0.19370  0.05420  0.45250  Biso   1.000  C
  H300     1.0000 0.17260  0.05410  0.44540  Biso   1.000  H
  C544     1.0000 0.35260  0.11816  0.65055  Biso   1.000  C
  N220     1.0000 0.33819  0.12713  0.68643  Biso   1.000  N
  C545     1.0000 0.30544  0.12102  0.67851  Biso   1.000  C
  N221     1.0000 0.28881  0.12877  0.71264  Biso   1.000  N
  C546     1.0000 0.25635  0.12115  0.70147  Biso   1.000  C
  N222     1.0000 0.23767  0.10763  0.66166  Biso   1.000  N
  C547     1.0000 0.25483  0.10066  0.62752  Biso   1.000  C
  N223     1.0000 0.23899  0.08741  0.58504  Biso   1.000  N
  C548     1.0000 0.25792  0.08151  0.55365  Biso   1.000  C
  N224     1.0000 0.29085  0.08627  0.55741  Biso   1.000  N
  C549     1.0000 0.30686  0.09947  0.60021  Biso   1.000  C
  N225     1.0000 0.33912  0.10484  0.60788  Biso   1.000  N
  C550     1.0000 0.28896  0.10708  0.63491  Biso   1.000  C
  Zn26     1.0000 0.17383  0.48606  0.02643  Biso   1.000  Zn
  I26      1.0000 0.21262  0.55126  0.02547  Biso   1.000  I
  N226     1.0000 0.12294  0.47215  0.01223  Biso   1.000  N
  C551     1.0000 0.10785  0.48754  0.03730  Biso   1.000  C
  H301     1.0000 0.12137  0.50383  0.06133  Biso   1.000  H
  C552     1.0000 0.07475  0.48095  0.02988  Biso   1.000  C
  H302     1.0000 0.06497  0.49183  0.04873  Biso   1.000  H
  C553     1.0000 0.05538  0.45776  0.99377  Biso   1.000  C
  C554     1.0000 0.06979  0.44133  0.96889  Biso   1.000  C
  H303     1.0000 0.05687  0.42513  0.94453  Biso   1.000  H
  C555     1.0000 0.10379  0.44887  0.97991  Biso   1.000  C
  H304     1.0000 0.11337  0.43673  0.96353  Biso   1.000  H
  N227     1.0000 0.87129  0.48029  0.14265  Biso   1.000  N
  C556     1.0000 0.85587  0.46765  0.10040  Biso   1.000  C
  H305     1.0000 0.83307  0.46433  0.09513  Biso   1.000  H
  C557     1.0000 0.87137  0.45925  0.06479  Biso   1.000  C
  H306     1.0000 0.85977  0.45073  0.03533  Biso   1.000  H
  C558     1.0000 0.90443  0.46342  0.07229  Biso   1.000  C
  C559     1.0000 0.92135  0.47823  0.11501  Biso   1.000  C
  H307     1.0000 0.94457  0.48283  0.12053  Biso   1.000  H
  C560     1.0000 0.90415  0.48588  0.14858  Biso   1.000  C
  H308     1.0000 0.91577  0.49563  0.17763  Biso   1.000  H
  N228     1.0000 0.87305  0.37491  0.75444  Biso   1.000  N
  C561     1.0000 0.90257  0.37613  0.76503  Biso   1.000  C
  H309     1.0000 0.91257  0.36773  0.74243  Biso   1.000  H
  C562     1.0000 0.92017  0.38920  0.80699  Biso   1.000  C
  H310     1.0000 0.94177  0.38973  0.81233  Biso   1.000  H
  C563     1.0000 0.90731  0.40106  0.84017  Biso   1.000  C
  C564     1.0000 0.87687  0.40133  0.82963  Biso   1.000  C
  H311     1.0000 0.86717  0.41053  0.85143  Biso   1.000  H
  C565     1.0000 0.86037  0.38753  0.78583  Biso   1.000  C
  H312     1.0000 0.83927  0.38743  0.77873  Biso   1.000  H
  C566     1.0000 0.01927  0.45149  0.98388  Biso   1.000  C
  N229     1.0000 0.00486  0.46046  0.01976  Biso   1.000  N
  C567     1.0000 0.97211  0.45435  0.01184  Biso   1.000  C
  N230     1.0000 0.95548  0.46210  0.04597  Biso   1.000  N
  C568     1.0000 0.92302  0.45448  0.03480  Biso   1.000  C
  N231     1.0000 0.90434  0.44096  0.99499  Biso   1.000  N
  C569     1.0000 0.92150  0.43399  0.96085  Biso   1.000  C
  N232     1.0000 0.90566  0.42074  0.91837  Biso   1.000  N
  C570     1.0000 0.92459  0.41484  0.88698  Biso   1.000  C
  N233     1.0000 0.95752  0.41960  0.89074  Biso   1.000  N
  C571     1.0000 0.97353  0.43280  0.93354  Biso   1.000  C
  N234     1.0000 0.00579  0.43817  0.94121  Biso   1.000  N
  C572     1.0000 0.95563  0.44041  0.96824  Biso   1.000  C
  Zn27     1.0000 0.84050  0.81939  0.35977  Biso   1.000  Zn
  I27      1.0000 0.87929  0.88459  0.35881  Biso   1.000  I
  N235     1.0000 0.78960  0.80549  0.34557  Biso   1.000  N
  C573     1.0000 0.77451  0.82088  0.37064  Biso   1.000  C
  H313     1.0000 0.78803  0.83717  0.39467  Biso   1.000  H
  C574     1.0000 0.74141  0.81429  0.36322  Biso   1.000  C
  H314     1.0000 0.73163  0.82517  0.38207  Biso   1.000  H
  C575     1.0000 0.72204  0.79110  0.32711  Biso   1.000  C
  C576     1.0000 0.73645  0.77467  0.30223  Biso   1.000  C
  H315     1.0000 0.72353  0.75847  0.27787  Biso   1.000  H
  C577     1.0000 0.77045  0.78221  0.31325  Biso   1.000  C
  H316     1.0000 0.78003  0.77007  0.29687  Biso   1.000  H
  N236     1.0000 0.53795  0.81363  0.47599  Biso   1.000  N
  C578     1.0000 0.52253  0.80099  0.43374  Biso   1.000  C
  H317     1.0000 0.49973  0.79767  0.42847  Biso   1.000  H
  C579     1.0000 0.53803  0.79259  0.39813  Biso   1.000  C
  H318     1.0000 0.52643  0.78407  0.36867  Biso   1.000  H
  C580     1.0000 0.57109  0.79676  0.40563  Biso   1.000  C
  C581     1.0000 0.58801  0.81157  0.44835  Biso   1.000  C
  H319     1.0000 0.61123  0.81617  0.45387  Biso   1.000  H
  C582     1.0000 0.57081  0.81922  0.48192  Biso   1.000  C
  H320     1.0000 0.58243  0.82897  0.51097  Biso   1.000  H
  N237     1.0000 0.53971  0.70825  0.08778  Biso   1.000  N
  C583     1.0000 0.56923  0.70947  0.09837  Biso   1.000  C
  H321     1.0000 0.57923  0.70107  0.07577  Biso   1.000  H
  C584     1.0000 0.58683  0.72254  0.14033  Biso   1.000  C
  H322     1.0000 0.60843  0.72307  0.14567  Biso   1.000  H
  C585     1.0000 0.57397  0.73440  0.17351  Biso   1.000  C
  C586     1.0000 0.54353  0.73467  0.16297  Biso   1.000  C
  H323     1.0000 0.53383  0.74387  0.18477  Biso   1.000  H
  C587     1.0000 0.52703  0.72087  0.11917  Biso   1.000  C
  H324     1.0000 0.50593  0.72077  0.11207  Biso   1.000  H
  C588     1.0000 0.68593  0.78483  0.31722  Biso   1.000  C
  N238     1.0000 0.67152  0.79380  0.35310  Biso   1.000  N
  C589     1.0000 0.63877  0.78769  0.34518  Biso   1.000  C
  N239     1.0000 0.62214  0.79544  0.37931  Biso   1.000  N
  C590     1.0000 0.58968  0.78782  0.36814  Biso   1.000  C
  N240     1.0000 0.57100  0.77430  0.32833  Biso   1.000  N
  C591     1.0000 0.58816  0.76733  0.29419  Biso   1.000  C
  N241     1.0000 0.57232  0.75408  0.25171  Biso   1.000  N
  C592     1.0000 0.59125  0.74818  0.22032  Biso   1.000  C
  N242     1.0000 0.62418  0.75294  0.22408  Biso   1.000  N
  C593     1.0000 0.64019  0.76614  0.26688  Biso   1.000  C
  N243     1.0000 0.67245  0.77151  0.27455  Biso   1.000  N
  C594     1.0000 0.62229  0.77375  0.30158  Biso   1.000  C
  Zn28     1.0000 0.50716  0.35444  0.19310  Biso   1.000  Zn
  I28      1.0000 0.54595  0.32803  0.19214  Biso   1.000  I
  N244     1.0000 0.45627  0.31745  0.17890  Biso   1.000  N
  C595     1.0000 0.44118  0.28697  0.20397  Biso   1.000  C
  H325     1.0000 0.45470  0.28420  0.22800  Biso   1.000  H
  C596     1.0000 0.40808  0.26046  0.19655  Biso   1.000  C
  H326     1.0000 0.39830  0.23980  0.21540  Biso   1.000  H
  C597     1.0000 0.38871  0.26428  0.16044  Biso   1.000  C
  C598     1.0000 0.40312  0.29512  0.13556  Biso   1.000  C
  H327     1.0000 0.39020  0.29840  0.11120  Biso   1.000  H
  C599     1.0000 0.43712  0.32158  0.14658  Biso   1.000  C
  H328     1.0000 0.44670  0.34330  0.13020  Biso   1.000  H
  N245     1.0000 0.20462  0.05766  0.30932  Biso   1.000  N
  C600     1.0000 0.18920  0.05488  0.26707  Biso   1.000  C
  H329     1.0000 0.16640  0.03540  0.26180  Biso   1.000  H
  C601     1.0000 0.20470  0.07878  0.23146  Biso   1.000  C
  H330     1.0000 0.19310  0.07570  0.20200  Biso   1.000  H
  C602     1.0000 0.23776  0.10767  0.23896  Biso   1.000  C
  C603     1.0000 0.25468  0.10978  0.28168  Biso   1.000  C
  H331     1.0000 0.27790  0.12840  0.28720  Biso   1.000  H
  C604     1.0000 0.23748  0.08493  0.31525  Biso   1.000  C
  H332     1.0000 0.24910  0.08680  0.34430  Biso   1.000  H
  N246     1.0000 0.20638  0.16480  0.92111  Biso   1.000  N
  C605     1.0000 0.23590  0.19310  0.93170  Biso   1.000  C
  H333     1.0000 0.24590  0.21150  0.90910  Biso   1.000  H
  C606     1.0000 0.25350  0.19763  0.97366  Biso   1.000  C
  H334     1.0000 0.27510  0.21870  0.97900  Biso   1.000  H
  C607     1.0000 0.24064  0.17291  0.00684  Biso   1.000  C
  C608     1.0000 0.21020  0.14220  0.99630  Biso   1.000  C
  H335     1.0000 0.20050  0.12330  0.01810  Biso   1.000  H
  C609     1.0000 0.19370  0.13950  0.95250  Biso   1.000  C
  H336     1.0000 0.17260  0.11850  0.94540  Biso   1.000  H
  C610     1.0000 0.35260  0.23444  0.15055  Biso   1.000  C
  N247     1.0000 0.33819  0.21106  0.18643  Biso   1.000  N
  C611     1.0000 0.30544  0.18442  0.17851  Biso   1.000  C
  N248     1.0000 0.28881  0.16004  0.21264  Biso   1.000  N
  C612     1.0000 0.25635  0.13520  0.20147  Biso   1.000  C
  N249     1.0000 0.23767  0.13004  0.16166  Biso   1.000  N
  C613     1.0000 0.25483  0.15417  0.12752  Biso   1.000  C
  N250     1.0000 0.23899  0.15158  0.08504  Biso   1.000  N
  C614     1.0000 0.25792  0.17641  0.05365  Biso   1.000  C
  N251     1.0000 0.29085  0.20458  0.05741  Biso   1.000  N
  C615     1.0000 0.30686  0.20739  0.10021  Biso   1.000  C
  N252     1.0000 0.33912  0.23428  0.10788  Biso   1.000  N
  C616     1.0000 0.28896  0.18188  0.13491  Biso   1.000  C
  Zn29     1.0000 0.17383  0.68777  0.52643  Biso   1.000  Zn
  I29      1.0000 0.21262  0.66136  0.52547  Biso   1.000  I
  N253     1.0000 0.12294  0.65078  0.51223  Biso   1.000  N
  C617     1.0000 0.10785  0.62030  0.53730  Biso   1.000  C
  H337     1.0000 0.12137  0.61753  0.56133  Biso   1.000  H
  C618     1.0000 0.07475  0.59379  0.52988  Biso   1.000  C
  H338     1.0000 0.06497  0.57313  0.54873  Biso   1.000  H
  C619     1.0000 0.05538  0.59761  0.49377  Biso   1.000  C
  C620     1.0000 0.06979  0.62845  0.46889  Biso   1.000  C
  H339     1.0000 0.05687  0.63173  0.44453  Biso   1.000  H
  C621     1.0000 0.10379  0.65491  0.47991  Biso   1.000  C
  H340     1.0000 0.11337  0.67663  0.46353  Biso   1.000  H
  N254     1.0000 0.87129  0.39099  0.64265  Biso   1.000  N
  C622     1.0000 0.85587  0.38821  0.60040  Biso   1.000  C
  H341     1.0000 0.83307  0.36873  0.59513  Biso   1.000  H
  C623     1.0000 0.87137  0.41211  0.56479  Biso   1.000  C
  H342     1.0000 0.85977  0.40903  0.53533  Biso   1.000  H
  C624     1.0000 0.90443  0.44100  0.57229  Biso   1.000  C
  C625     1.0000 0.92135  0.44311  0.61501  Biso   1.000  C
  H343     1.0000 0.94457  0.46173  0.62053  Biso   1.000  H
  C626     1.0000 0.90415  0.41826  0.64858  Biso   1.000  C
  H344     1.0000 0.91577  0.42013  0.67763  Biso   1.000  H
  N255     1.0000 0.87305  0.49813  0.25444  Biso   1.000  N
  C627     1.0000 0.90257  0.52643  0.26503  Biso   1.000  C
  H345     1.0000 0.91257  0.54483  0.24243  Biso   1.000  H
  C628     1.0000 0.92017  0.53096  0.30699  Biso   1.000  C
  H346     1.0000 0.94177  0.55203  0.31233  Biso   1.000  H
  C629     1.0000 0.90731  0.50624  0.34017  Biso   1.000  C
  C630     1.0000 0.87687  0.47553  0.32963  Biso   1.000  C
  H347     1.0000 0.86717  0.45663  0.35143  Biso   1.000  H
  C631     1.0000 0.86037  0.47283  0.28583  Biso   1.000  C
  H348     1.0000 0.83927  0.45183  0.27873  Biso   1.000  H
  C632     1.0000 0.01927  0.56777  0.48388  Biso   1.000  C
  N256     1.0000 0.00486  0.54439  0.51976  Biso   1.000  N
  C633     1.0000 0.97211  0.51775  0.51184  Biso   1.000  C
  N257     1.0000 0.95548  0.49337  0.54597  Biso   1.000  N
  C634     1.0000 0.92302  0.46853  0.53480  Biso   1.000  C
  N258     1.0000 0.90434  0.46337  0.49499  Biso   1.000  N
  C635     1.0000 0.92150  0.48750  0.46085  Biso   1.000  C
  N259     1.0000 0.90566  0.48491  0.41837  Biso   1.000  N
  C636     1.0000 0.92459  0.50974  0.38698  Biso   1.000  C
  N260     1.0000 0.95752  0.53791  0.39074  Biso   1.000  N
  C637     1.0000 0.97353  0.54072  0.43354  Biso   1.000  C
  N261     1.0000 0.00579  0.56761  0.44121  Biso   1.000  N
  C638     1.0000 0.95563  0.51521  0.46824  Biso   1.000  C
  Zn30     1.0000 0.84050  0.02110  0.85977  Biso   1.000  Zn
  I30      1.0000 0.87929  0.99469  0.85881  Biso   1.000  I
  N262     1.0000 0.78960  0.98412  0.84557  Biso   1.000  N
  C639     1.0000 0.77451  0.95364  0.87064  Biso   1.000  C
  H349     1.0000 0.78803  0.95087  0.89467  Biso   1.000  H
  C640     1.0000 0.74141  0.92713  0.86322  Biso   1.000  C
  H350     1.0000 0.73163  0.90647  0.88207  Biso   1.000  H
  C641     1.0000 0.72204  0.93095  0.82711  Biso   1.000  C
  C642     1.0000 0.73645  0.96179  0.80223  Biso   1.000  C
  H351     1.0000 0.72353  0.96507  0.77787  Biso   1.000  H
  C643     1.0000 0.77045  0.98825  0.81325  Biso   1.000  C
  H352     1.0000 0.78003  0.00997  0.79687  Biso   1.000  H
  N263     1.0000 0.53795  0.72433  0.97599  Biso   1.000  N
  C644     1.0000 0.52253  0.72155  0.93374  Biso   1.000  C
  H353     1.0000 0.49973  0.70207  0.92847  Biso   1.000  H
  C645     1.0000 0.53803  0.74545  0.89813  Biso   1.000  C
  H354     1.0000 0.52643  0.74237  0.86867  Biso   1.000  H
  C646     1.0000 0.57109  0.77434  0.90563  Biso   1.000  C
  C647     1.0000 0.58801  0.77645  0.94835  Biso   1.000  C
  H355     1.0000 0.61123  0.79507  0.95387  Biso   1.000  H
  C648     1.0000 0.57081  0.75160  0.98192  Biso   1.000  C
  H356     1.0000 0.58243  0.75347  0.01097  Biso   1.000  H
  N264     1.0000 0.53971  0.83147  0.58778  Biso   1.000  N
  C649     1.0000 0.56923  0.85977  0.59837  Biso   1.000  C
  H357     1.0000 0.57923  0.87817  0.57577  Biso   1.000  H
  C650     1.0000 0.58683  0.86430  0.64033  Biso   1.000  C
  H358     1.0000 0.60843  0.88537  0.64567  Biso   1.000  H
  C651     1.0000 0.57397  0.83958  0.67351  Biso   1.000  C
  C652     1.0000 0.54353  0.80887  0.66297  Biso   1.000  C
  H359     1.0000 0.53383  0.78997  0.68477  Biso   1.000  H
  C653     1.0000 0.52703  0.80617  0.61917  Biso   1.000  C
  H360     1.0000 0.50593  0.78517  0.61207  Biso   1.000  H
  C654     1.0000 0.68593  0.90111  0.81722  Biso   1.000  C
  N265     1.0000 0.67152  0.87773  0.85310  Biso   1.000  N
  C655     1.0000 0.63877  0.85109  0.84518  Biso   1.000  C
  N266     1.0000 0.62214  0.82671  0.87931  Biso   1.000  N
  C656     1.0000 0.58968  0.80187  0.86814  Biso   1.000  C
  N267     1.0000 0.57100  0.79671  0.82833  Biso   1.000  N
  C657     1.0000 0.58816  0.82084  0.79419  Biso   1.000  C
  N268     1.0000 0.57232  0.81825  0.75171  Biso   1.000  N
  C658     1.0000 0.59125  0.84308  0.72032  Biso   1.000  C
  N269     1.0000 0.62418  0.87125  0.72408  Biso   1.000  N
  C659     1.0000 0.64019  0.87406  0.76688  Biso   1.000  C
  N270     1.0000 0.67245  0.90095  0.77455  Biso   1.000  N
  C660     1.0000 0.62229  0.84855  0.80158  Biso   1.000  C
  Zn31     1.0000 0.64556  0.15273  0.19310  Biso   1.000  Zn
  I31      1.0000 0.67197  0.21793  0.19214  Biso   1.000  I
  N271     1.0000 0.68255  0.13882  0.17890  Biso   1.000  N
  C661     1.0000 0.71303  0.15421  0.20397  Biso   1.000  C
  H361     1.0000 0.71580  0.17050  0.22800  Biso   1.000  H
  C662     1.0000 0.73954  0.14762  0.19655  Biso   1.000  C
  H362     1.0000 0.76020  0.15850  0.21540  Biso   1.000  H
  C663     1.0000 0.73572  0.12443  0.16044  Biso   1.000  C
  C664     1.0000 0.70488  0.10800  0.13556  Biso   1.000  C
  H363     1.0000 0.70160  0.09180  0.11120  Biso   1.000  H
  C665     1.0000 0.67842  0.11554  0.14658  Biso   1.000  C
  H364     1.0000 0.65670  0.10340  0.13020  Biso   1.000  H
  N272     1.0000 0.94234  0.14696  0.30932  Biso   1.000  N
  C666     1.0000 0.94512  0.13432  0.26707  Biso   1.000  C
  H365     1.0000 0.96460  0.13100  0.26180  Biso   1.000  H
  C667     1.0000 0.92122  0.12592  0.23146  Biso   1.000  C
  H366     1.0000 0.92430  0.11740  0.20200  Biso   1.000  H
  C668     1.0000 0.89233  0.13009  0.23896  Biso   1.000  C
  C669     1.0000 0.89022  0.14490  0.28168  Biso   1.000  C
  H367     1.0000 0.87160  0.14950  0.28720  Biso   1.000  H
  C670     1.0000 0.91507  0.15255  0.31525  Biso   1.000  C
  H368     1.0000 0.91320  0.16230  0.34430  Biso   1.000  H
  N273     1.0000 0.83520  0.04158  0.92111  Biso   1.000  N
  C671     1.0000 0.80690  0.04280  0.93170  Biso   1.000  C
  H369     1.0000 0.78850  0.03440  0.90910  Biso   1.000  H
  C672     1.0000 0.80237  0.05587  0.97366  Biso   1.000  C
  H370     1.0000 0.78130  0.05640  0.97900  Biso   1.000  H
  C673     1.0000 0.82709  0.06773  0.00684  Biso   1.000  C
  C674     1.0000 0.85780  0.06800  0.99630  Biso   1.000  C
  H371     1.0000 0.87670  0.07720  0.01810  Biso   1.000  H
  C675     1.0000 0.86050  0.05420  0.95250  Biso   1.000  C
  H372     1.0000 0.88150  0.05410  0.94540  Biso   1.000  H
  C676     1.0000 0.76556  0.11816  0.15055  Biso   1.000  C
  N274     1.0000 0.78894  0.12713  0.18643  Biso   1.000  N
  C677     1.0000 0.81558  0.12102  0.17851  Biso   1.000  C
  N275     1.0000 0.83996  0.12877  0.21264  Biso   1.000  N
  C678     1.0000 0.86480  0.12115  0.20147  Biso   1.000  C
  N276     1.0000 0.86996  0.10763  0.16166  Biso   1.000  N
  C679     1.0000 0.84583  0.10066  0.12752  Biso   1.000  C
  N277     1.0000 0.84842  0.08741  0.08504  Biso   1.000  N
  C680     1.0000 0.82359  0.08151  0.05365  Biso   1.000  C
  N278     1.0000 0.79542  0.08627  0.05741  Biso   1.000  N
  C681     1.0000 0.79261  0.09947  0.10021  Biso   1.000  C
  N279     1.0000 0.76572  0.10484  0.10788  Biso   1.000  N
  C682     1.0000 0.81812  0.10708  0.13491  Biso   1.000  C
  Zn32     1.0000 0.31223  0.48606  0.52643  Biso   1.000  Zn
  I32      1.0000 0.33864  0.55126  0.52547  Biso   1.000  I
  N280     1.0000 0.34922  0.47215  0.51223  Biso   1.000  N
  C683     1.0000 0.37970  0.48754  0.53730  Biso   1.000  C
  H373     1.0000 0.38247  0.50383  0.56133  Biso   1.000  H
  C684     1.0000 0.40621  0.48095  0.52988  Biso   1.000  C
  H374     1.0000 0.42687  0.49183  0.54873  Biso   1.000  H
  C685     1.0000 0.40239  0.45776  0.49377  Biso   1.000  C
  C686     1.0000 0.37155  0.44133  0.46889  Biso   1.000  C
  H375     1.0000 0.36827  0.42513  0.44453  Biso   1.000  H
  C687     1.0000 0.34509  0.44887  0.47991  Biso   1.000  C
  H376     1.0000 0.32337  0.43673  0.46353  Biso   1.000  H
  N281     1.0000 0.60901  0.48029  0.64265  Biso   1.000  N
  C688     1.0000 0.61179  0.46765  0.60040  Biso   1.000  C
  H377     1.0000 0.63127  0.46433  0.59513  Biso   1.000  H
  C689     1.0000 0.58789  0.45925  0.56479  Biso   1.000  C
  H378     1.0000 0.59097  0.45073  0.53533  Biso   1.000  H
  C690     1.0000 0.55900  0.46342  0.57229  Biso   1.000  C
  C691     1.0000 0.55689  0.47823  0.61501  Biso   1.000  C
  H379     1.0000 0.53827  0.48283  0.62053  Biso   1.000  H
  C692     1.0000 0.58174  0.48588  0.64858  Biso   1.000  C
  H380     1.0000 0.57987  0.49563  0.67763  Biso   1.000  H
  N282     1.0000 0.50187  0.37491  0.25444  Biso   1.000  N
  C693     1.0000 0.47357  0.37613  0.26503  Biso   1.000  C
  H381     1.0000 0.45517  0.36773  0.24243  Biso   1.000  H
  C694     1.0000 0.46904  0.38920  0.30699  Biso   1.000  C
  H382     1.0000 0.44797  0.38973  0.31233  Biso   1.000  H
  C695     1.0000 0.49376  0.40106  0.34017  Biso   1.000  C
  C696     1.0000 0.52447  0.40133  0.32963  Biso   1.000  C
  H383     1.0000 0.54337  0.41053  0.35143  Biso   1.000  H
  C697     1.0000 0.52717  0.38753  0.28583  Biso   1.000  C
  H384     1.0000 0.54817  0.38743  0.27873  Biso   1.000  H
  C698     1.0000 0.43223  0.45149  0.48388  Biso   1.000  C
  N283     1.0000 0.45561  0.46046  0.51976  Biso   1.000  N
  C699     1.0000 0.48225  0.45435  0.51184  Biso   1.000  C
  N284     1.0000 0.50663  0.46210  0.54597  Biso   1.000  N
  C700     1.0000 0.53147  0.45448  0.53480  Biso   1.000  C
  N285     1.0000 0.53663  0.44096  0.49499  Biso   1.000  N
  C701     1.0000 0.51250  0.43399  0.46085  Biso   1.000  C
  N286     1.0000 0.51509  0.42074  0.41837  Biso   1.000  N
  C702     1.0000 0.49026  0.41484  0.38698  Biso   1.000  C
  N287     1.0000 0.46209  0.41960  0.39074  Biso   1.000  N
  C703     1.0000 0.45928  0.43280  0.43354  Biso   1.000  C
  N288     1.0000 0.43239  0.43817  0.44121  Biso   1.000  N
  C704     1.0000 0.48479  0.44041  0.46824  Biso   1.000  C
  Zn33     1.0000 0.97890  0.81939  0.85977  Biso   1.000  Zn
  I33      1.0000 0.00531  0.88459  0.85881  Biso   1.000  I
  N289     1.0000 0.01588  0.80549  0.84557  Biso   1.000  N
  C705     1.0000 0.04636  0.82088  0.87064  Biso   1.000  C
  H385     1.0000 0.04913  0.83717  0.89467  Biso   1.000  H
  C706     1.0000 0.07287  0.81429  0.86322  Biso   1.000  C
  H386     1.0000 0.09353  0.82517  0.88207  Biso   1.000  H
  C707     1.0000 0.06905  0.79110  0.82711  Biso   1.000  C
  C708     1.0000 0.03821  0.77467  0.80223  Biso   1.000  C
  H387     1.0000 0.03493  0.75847  0.77787  Biso   1.000  H
  C709     1.0000 0.01175  0.78221  0.81325  Biso   1.000  C
  H388     1.0000 0.99003  0.77007  0.79687  Biso   1.000  H
  N290     1.0000 0.27567  0.81363  0.97599  Biso   1.000  N
  C710     1.0000 0.27845  0.80099  0.93374  Biso   1.000  C
  H389     1.0000 0.29793  0.79767  0.92847  Biso   1.000  H
  C711     1.0000 0.25455  0.79259  0.89813  Biso   1.000  C
  H390     1.0000 0.25763  0.78407  0.86867  Biso   1.000  H
  C712     1.0000 0.22566  0.79676  0.90563  Biso   1.000  C
  C713     1.0000 0.22355  0.81157  0.94835  Biso   1.000  C
  H391     1.0000 0.20493  0.81617  0.95387  Biso   1.000  H
  C714     1.0000 0.24840  0.81922  0.98192  Biso   1.000  C
  H392     1.0000 0.24653  0.82897  0.01097  Biso   1.000  H
  N291     1.0000 0.16853  0.70825  0.58778  Biso   1.000  N
  C715     1.0000 0.14023  0.70947  0.59837  Biso   1.000  C
  H393     1.0000 0.12183  0.70107  0.57577  Biso   1.000  H
  C716     1.0000 0.13570  0.72254  0.64033  Biso   1.000  C
  H394     1.0000 0.11463  0.72307  0.64567  Biso   1.000  H
  C717     1.0000 0.16042  0.73440  0.67351  Biso   1.000  C
  C718     1.0000 0.19113  0.73467  0.66297  Biso   1.000  C
  H395     1.0000 0.21003  0.74387  0.68477  Biso   1.000  H
  C719     1.0000 0.19383  0.72087  0.61917  Biso   1.000  C
  H396     1.0000 0.21483  0.72077  0.61207  Biso   1.000  H
  C720     1.0000 0.09889  0.78483  0.81722  Biso   1.000  C
  N292     1.0000 0.12227  0.79380  0.85310  Biso   1.000  N
  C721     1.0000 0.14891  0.78769  0.84518  Biso   1.000  C
  N293     1.0000 0.17329  0.79544  0.87931  Biso   1.000  N
  C722     1.0000 0.19813  0.78782  0.86814  Biso   1.000  C
  N294     1.0000 0.20329  0.77430  0.82833  Biso   1.000  N
  C723     1.0000 0.17916  0.76733  0.79419  Biso   1.000  C
  N295     1.0000 0.18175  0.75408  0.75171  Biso   1.000  N
  C724     1.0000 0.15692  0.74818  0.72032  Biso   1.000  C
  N296     1.0000 0.12875  0.75294  0.72408  Biso   1.000  N
  C725     1.0000 0.12594  0.76614  0.76688  Biso   1.000  C
  N297     1.0000 0.09905  0.77151  0.77455  Biso   1.000  N
  C726     1.0000 0.15145  0.77375  0.80158  Biso   1.000  C
  Zn34     1.0000 0.84727  0.49284  0.19310  Biso   1.000  Zn
  I34      1.0000 0.78207  0.45405  0.19214  Biso   1.000  I
  N298     1.0000 0.86118  0.54373  0.17890  Biso   1.000  N
  C727     1.0000 0.84579  0.55882  0.20397  Biso   1.000  C
  H397     1.0000 0.82950  0.54530  0.22800  Biso   1.000  H
  C728     1.0000 0.85238  0.59192  0.19655  Biso   1.000  C
  H398     1.0000 0.84150  0.60170  0.21540  Biso   1.000  H
  C729     1.0000 0.87557  0.61129  0.16044  Biso   1.000  C
  C730     1.0000 0.89200  0.59688  0.13556  Biso   1.000  C
  H399     1.0000 0.90820  0.60980  0.11120  Biso   1.000  H
  C731     1.0000 0.88446  0.56288  0.14658  Biso   1.000  C
  H400     1.0000 0.89660  0.55330  0.13020  Biso   1.000  H
  N299     1.0000 0.85304  0.79538  0.30932  Biso   1.000  N
  C732     1.0000 0.86568  0.81080  0.26707  Biso   1.000  C
  H401     1.0000 0.86900  0.83360  0.26180  Biso   1.000  H
  C733     1.0000 0.87408  0.79530  0.23146  Biso   1.000  C
  H402     1.0000 0.88260  0.80690  0.20200  Biso   1.000  H
  C734     1.0000 0.86991  0.76224  0.23896  Biso   1.000  C
  C735     1.0000 0.85510  0.74532  0.28168  Biso   1.000  C
  H403     1.0000 0.85050  0.72210  0.28720  Biso   1.000  H
  C736     1.0000 0.84745  0.76252  0.31525  Biso   1.000  C
  H404     1.0000 0.83770  0.75090  0.34430  Biso   1.000  H
  N300     1.0000 0.95842  0.79362  0.92111  Biso   1.000  N
  C737     1.0000 0.95720  0.76410  0.93170  Biso   1.000  C
  H405     1.0000 0.96560  0.75410  0.90910  Biso   1.000  H
  C738     1.0000 0.94413  0.74650  0.97366  Biso   1.000  C
  H406     1.0000 0.94360  0.72490  0.97900  Biso   1.000  H
  C739     1.0000 0.93227  0.75936  0.00684  Biso   1.000  C
  C740     1.0000 0.93200  0.78980  0.99630  Biso   1.000  C
  H407     1.0000 0.92280  0.79950  0.01810  Biso   1.000  H
  C741     1.0000 0.94580  0.80630  0.95250  Biso   1.000  C
  H408     1.0000 0.94590  0.82740  0.94540  Biso   1.000  H
  C742     1.0000 0.88184  0.64740  0.15055  Biso   1.000  C
  N301     1.0000 0.87287  0.66181  0.18643  Biso   1.000  N
  C743     1.0000 0.87898  0.69456  0.17851  Biso   1.000  C
  N302     1.0000 0.87123  0.71119  0.21264  Biso   1.000  N
  C744     1.0000 0.87885  0.74365  0.20147  Biso   1.000  C
  N303     1.0000 0.89237  0.76233  0.16166  Biso   1.000  N
  C745     1.0000 0.89934  0.74517  0.12752  Biso   1.000  C
  N304     1.0000 0.91259  0.76101  0.08504  Biso   1.000  N
  C746     1.0000 0.91849  0.74208  0.05365  Biso   1.000  C
  N305     1.0000 0.91373  0.70915  0.05741  Biso   1.000  N
  C747     1.0000 0.90053  0.69314  0.10021  Biso   1.000  C
  N306     1.0000 0.89516  0.66088  0.10788  Biso   1.000  N
  C748     1.0000 0.89292  0.71104  0.13491  Biso   1.000  C
  Zn35     1.0000 0.51394  0.82617  0.52643  Biso   1.000  Zn
  I35      1.0000 0.44874  0.78738  0.52547  Biso   1.000  I
  N307     1.0000 0.52785  0.87706  0.51223  Biso   1.000  N
  C749     1.0000 0.51246  0.89215  0.53730  Biso   1.000  C
  H409     1.0000 0.49617  0.87863  0.56133  Biso   1.000  H
  C750     1.0000 0.51905  0.92525  0.52988  Biso   1.000  C
  H410     1.0000 0.50817  0.93503  0.54873  Biso   1.000  H
  C751     1.0000 0.54224  0.94462  0.49377  Biso   1.000  C
  C752     1.0000 0.55867  0.93021  0.46889  Biso   1.000  C
  H411     1.0000 0.57487  0.94313  0.44453  Biso   1.000  H
  C753     1.0000 0.55113  0.89621  0.47991  Biso   1.000  C
  H412     1.0000 0.56327  0.88663  0.46353  Biso   1.000  H
  N308     1.0000 0.51971  0.12871  0.64265  Biso   1.000  N
  C754     1.0000 0.53235  0.14413  0.60040  Biso   1.000  C
  H413     1.0000 0.53567  0.16693  0.59513  Biso   1.000  H
  C755     1.0000 0.54075  0.12863  0.56479  Biso   1.000  C
  H414     1.0000 0.54927  0.14023  0.53533  Biso   1.000  H
  C756     1.0000 0.53658  0.09557  0.57229  Biso   1.000  C
  C757     1.0000 0.52177  0.07865  0.61501  Biso   1.000  C
  H415     1.0000 0.51717  0.05543  0.62053  Biso   1.000  H
  C758     1.0000 0.51412  0.09585  0.64858  Biso   1.000  C
  H416     1.0000 0.50437  0.08423  0.67763  Biso   1.000  H
  N309     1.0000 0.62509  0.12695  0.25444  Biso   1.000  N
  C759     1.0000 0.62387  0.09743  0.26503  Biso   1.000  C
  H417     1.0000 0.63227  0.08743  0.24243  Biso   1.000  H
  C760     1.0000 0.61080  0.07983  0.30699  Biso   1.000  C
  H418     1.0000 0.61027  0.05823  0.31233  Biso   1.000  H
  C761     1.0000 0.59894  0.09269  0.34017  Biso   1.000  C
  C762     1.0000 0.59867  0.12313  0.32963  Biso   1.000  C
  H419     1.0000 0.58947  0.13283  0.35143  Biso   1.000  H
  C763     1.0000 0.61247  0.13963  0.28583  Biso   1.000  C
  H420     1.0000 0.61257  0.16073  0.27873  Biso   1.000  H
  C764     1.0000 0.54851  0.98073  0.48388  Biso   1.000  C
  N310     1.0000 0.53954  0.99514  0.51976  Biso   1.000  N
  C765     1.0000 0.54565  0.02789  0.51184  Biso   1.000  C
  N311     1.0000 0.53790  0.04452  0.54597  Biso   1.000  N
  C766     1.0000 0.54552  0.07698  0.53480  Biso   1.000  C
  N312     1.0000 0.55904  0.09566  0.49499  Biso   1.000  N
  C767     1.0000 0.56601  0.07850  0.46085  Biso   1.000  C
  N313     1.0000 0.57926  0.09434  0.41837  Biso   1.000  N
  C768     1.0000 0.58516  0.07541  0.38698  Biso   1.000  C
  N314     1.0000 0.58040  0.04248  0.39074  Biso   1.000  N
  C769     1.0000 0.56720  0.02647  0.43354  Biso   1.000  C
  N315     1.0000 0.56183  0.99421  0.44121  Biso   1.000  N
  C770     1.0000 0.55959  0.04437  0.46824  Biso   1.000  C
  Zn36     1.0000 0.18061  0.15950  0.85977  Biso   1.000  Zn
  I36      1.0000 0.11541  0.12071  0.85881  Biso   1.000  I
  N316     1.0000 0.19451  0.21040  0.84557  Biso   1.000  N
  C771     1.0000 0.17912  0.22549  0.87064  Biso   1.000  C
  H421     1.0000 0.16283  0.21197  0.89467  Biso   1.000  H
  C772     1.0000 0.18571  0.25859  0.86322  Biso   1.000  C
  H422     1.0000 0.17483  0.26837  0.88207  Biso   1.000  H
  C773     1.0000 0.20890  0.27796  0.82711  Biso   1.000  C
  C774     1.0000 0.22533  0.26355  0.80223  Biso   1.000  C
  H423     1.0000 0.24153  0.27647  0.77787  Biso   1.000  H
  C775     1.0000 0.21779  0.22955  0.81325  Biso   1.000  C
  H424     1.0000 0.22993  0.21997  0.79687  Biso   1.000  H
  N317     1.0000 0.18637  0.46205  0.97599  Biso   1.000  N
  C776     1.0000 0.19901  0.47747  0.93374  Biso   1.000  C
  H425     1.0000 0.20233  0.50027  0.92847  Biso   1.000  H
  C777     1.0000 0.20741  0.46197  0.89813  Biso   1.000  C
  H426     1.0000 0.21593  0.47357  0.86867  Biso   1.000  H
  C778     1.0000 0.20324  0.42891  0.90563  Biso   1.000  C
  C779     1.0000 0.18843  0.41199  0.94835  Biso   1.000  C
  H427     1.0000 0.18383  0.38877  0.95387  Biso   1.000  H
  C780     1.0000 0.18078  0.42919  0.98192  Biso   1.000  C
  H428     1.0000 0.17103  0.41757  0.01097  Biso   1.000  H
  N318     1.0000 0.29175  0.46029  0.58778  Biso   1.000  N
  C781     1.0000 0.29053  0.43077  0.59837  Biso   1.000  C
  H429     1.0000 0.29893  0.42077  0.57577  Biso   1.000  H
  C782     1.0000 0.27746  0.41317  0.64033  Biso   1.000  C
  H430     1.0000 0.27693  0.39157  0.64567  Biso   1.000  H
  C783     1.0000 0.26560  0.42603  0.67351  Biso   1.000  C
  C784     1.0000 0.26533  0.45647  0.66297  Biso   1.000  C
  H431     1.0000 0.25613  0.46617  0.68477  Biso   1.000  H
  C785     1.0000 0.27913  0.47297  0.61917  Biso   1.000  C
  H432     1.0000 0.27923  0.49407  0.61207  Biso   1.000  H
  C786     1.0000 0.21517  0.31407  0.81722  Biso   1.000  C
  N319     1.0000 0.20620  0.32848  0.85310  Biso   1.000  N
  C787     1.0000 0.21231  0.36123  0.84518  Biso   1.000  C
  N320     1.0000 0.20456  0.37786  0.87931  Biso   1.000  N
  C788     1.0000 0.21218  0.41032  0.86814  Biso   1.000  C
  N321     1.0000 0.22570  0.42900  0.82833  Biso   1.000  N
  C789     1.0000 0.23267  0.41184  0.79419  Biso   1.000  C
  N322     1.0000 0.24592  0.42768  0.75171  Biso   1.000  N
  C790     1.0000 0.25182  0.40875  0.72032  Biso   1.000  C
  N323     1.0000 0.24706  0.37582  0.72408  Biso   1.000  N
  C791     1.0000 0.23386  0.35981  0.76688  Biso   1.000  C
  N324     1.0000 0.22849  0.32755  0.77455  Biso   1.000  N
  C792     1.0000 0.22625  0.37771  0.80158  Biso   1.000  C
