data_image0
_cell_length_a       35.832
_cell_length_b       14.838
_cell_length_c       30.783
_cell_angle_alpha    90
_cell_angle_beta     102.066
_cell_angle_gamma    90

_symmetry_space_group_name_H-M    "P 1"
_symmetry_int_tables_number       1

loop_
  _symmetry_equiv_pos_as_xyz
  'x, y, z'

loop_
  _atom_site_label
  _atom_site_occupancy
  _atom_site_fract_x
  _atom_site_fract_y
  _atom_site_fract_z
  _atom_site_thermal_displace_type
  _atom_site_B_iso_or_equiv
  _atom_site_type_symbol
  I1       1.0000 0.64069  0.10819  0.99282  Biso   1.000  I
  I2       1.0000 0.60013  0.23298  0.10689  Biso   1.000  I
  I3       1.0000 0.26576  0.77190  0.19928  Biso   1.000  I
  I4       1.0000 0.36935  0.84132  0.30205  Biso   1.000  I
  I5       1.0000 0.39132  0.25287  0.94409  Biso   1.000  I
  I6       1.0000 0.47613  0.35607  0.86820  Biso   1.000  I
  Zn1      1.0000 0.62165  0.09905  0.06687  Biso   1.000  Zn
  Zn2      1.0000 0.41957  0.37608  0.90531  Biso   1.000  Zn
  Zn3      1.0000 0.32654  0.86217  0.22560  Biso   1.000  Zn
  N1       1.0000 0.81676  0.82760  0.25080  Biso   1.000  N
  N2       1.0000 0.77757  0.95520  0.22870  Biso   1.000  N
  N3       1.0000 0.76362  0.81630  0.19010  Biso   1.000  N
  N4       1.0000 0.87876  0.05800  0.35810  Biso   1.000  N
  N5       1.0000 0.66541  0.03590  0.11007  Biso   1.000  N
  N6       1.0000 0.81449  0.49870  0.21960  Biso   1.000  N
  C1       1.0000 0.80710  0.91380  0.25410  Biso   1.000  C
  C2       1.0000 0.83170  0.96520  0.29070  Biso   1.000  C
  C3       1.0000 0.86190  0.92340  0.31700  Biso   1.000  C
  H1       1.0000 0.86740  0.86200  0.31230  Biso   1.000  H
  C4       1.0000 0.88450  0.97190  0.35080  Biso   1.000  C
  H2       1.0000 0.90510  0.94200  0.36980  Biso   1.000  H
  C5       1.0000 0.84940  0.09920  0.33250  Biso   1.000  C
  H3       1.0000 0.84490  0.16100  0.33770  Biso   1.000  H
  C6       1.0000 0.82490  0.05420  0.29830  Biso   1.000  C
  H4       1.0000 0.80380  0.08460  0.28050  Biso   1.000  H
  C7       1.0000 0.75750  0.90400  0.19630  Biso   1.000  C
  C8       1.0000 0.72520  0.94930  0.16590  Biso   1.000  C
  C9       1.0000 0.71580  0.03720  0.17400  Biso   1.000  C
  H5       1.0000 0.72990  0.06910  0.19890  Biso   1.000  H
  C10      1.0000 0.68580  0.07810  0.14570  Biso   1.000  C
  H6       1.0000 0.67920  0.13820  0.15170  Biso   1.000  H
  C11      1.0000 0.67470  0.95140  0.10220  Biso   1.000  C
  H7       1.0000 0.66040  0.92160  0.07680  Biso   1.000  H
  C12      1.0000 0.70410  0.90490  0.12930  Biso   1.000  C
  H8       1.0000 0.70960  0.84430  0.12300  Biso   1.000  H
  C13      1.0000 0.79330  0.78170  0.21880  Biso   1.000  C
  C14      1.0000 0.80060  0.68320  0.21710  Biso   1.000  C
  C15      1.0000 0.77410  0.62400  0.19370  Biso   1.000  C
  H9       1.0000 0.75080  0.64580  0.17620  Biso   1.000  H
  C16      1.0000 0.78180  0.53300  0.19580  Biso   1.000  C
  H10      1.0000 0.76330  0.49290  0.17980  Biso   1.000  H
  C17      1.0000 0.84020  0.55600  0.24250  Biso   1.000  C
  H11      1.0000 0.86330  0.53240  0.25950  Biso   1.000  H
  C18      1.0000 0.83440  0.64790  0.24240  Biso   1.000  C
  H12      1.0000 0.85310  0.68670  0.25920  Biso   1.000  H
  N7       1.0000 0.42618  0.72080  0.06380  Biso   1.000  N
  N8       1.0000 0.47613  0.77000  0.02982  Biso   1.000  N
  N9       1.0000 0.46289  0.84960  0.09170  Biso   1.000  N
  N10      1.0000 0.43094  0.48270  0.94970  Biso   1.000  N
  N11      1.0000 0.57836  0.00670  0.06290  Biso   1.000  N
  N12      1.0000 0.36050  0.84170  0.18010  Biso   1.000  N
  C19      1.0000 0.44820  0.71310  0.03470  Biso   1.000  C
  C20      1.0000 0.44200  0.63320  0.00470  Biso   1.000  C
  C21      1.0000 0.40990  0.58140  0.00040  Biso   1.000  C
  H13      1.0000 0.39070  0.59670  0.01620  Biso   1.000  H
  C22      1.0000 0.40550  0.50640  0.97300  Biso   1.000  C
  H14      1.0000 0.38320  0.47060  0.97080  Biso   1.000  H
  C23      1.0000 0.46240  0.53450  0.95300  Biso   1.000  C
  H15      1.0000 0.48090  0.51860  0.93630  Biso   1.000  H
  C24      1.0000 0.46880  0.61010  0.98010  Biso   1.000  C
  H16      1.0000 0.49120  0.64540  0.98170  Biso   1.000  H
  C25      1.0000 0.48280  0.83460  0.06040  Biso   1.000  C
  C26      1.0000 0.51560  0.89460  0.06060  Biso   1.000  C
  C27      1.0000 0.52890  0.91310  0.02260  Biso   1.000  C
  H17      1.0000 0.51660  0.88720  0.99510  Biso   1.000  H
  C28      1.0000 0.56030  0.96970  0.02420  Biso   1.000  C
  H18      1.0000 0.56910  0.98220  0.99780  Biso   1.000  H
  C29      1.0000 0.56590  0.98630  0.10000  Biso   1.000  C
  H19      1.0000 0.57920  0.01090  0.12740  Biso   1.000  H
  C30      1.0000 0.53520  0.93220  0.10030  Biso   1.000  C
  H20      1.0000 0.52730  0.92020  0.12740  Biso   1.000  H
  C31      1.0000 0.43400  0.79180  0.09100  Biso   1.000  C
  C32      1.0000 0.40890  0.80800  0.12230  Biso   1.000  C
  C33      1.0000 0.41910  0.86740  0.15690  Biso   1.000  C
  H21      1.0000 0.44270  0.89870  0.16110  Biso   1.000  H
  C34      1.0000 0.39470  0.88110  0.18560  Biso   1.000  C
  H22      1.0000 0.40260  0.92020  0.21020  Biso   1.000  H
  C35      1.0000 0.35080  0.78400  0.14590  Biso   1.000  C
  H23      1.0000 0.32700  0.75370  0.14180  Biso   1.000  H
  C36      1.0000 0.37430  0.76710  0.11660  Biso   1.000  C
  H24      1.0000 0.36630  0.72690  0.09240  Biso   1.000  H
  I7       1.0000 0.14069  0.60819  0.99282  Biso   1.000  I
  I8       1.0000 0.10013  0.73298  0.10689  Biso   1.000  I
  I9       1.0000 0.76576  0.27190  0.19928  Biso   1.000  I
  I10      1.0000 0.86935  0.34132  0.30205  Biso   1.000  I
  I11      1.0000 0.89132  0.75287  0.94409  Biso   1.000  I
  I12      1.0000 0.97613  0.85607  0.86820  Biso   1.000  I
  Zn4      1.0000 0.12165  0.59905  0.06687  Biso   1.000  Zn
  Zn5      1.0000 0.91957  0.87608  0.90531  Biso   1.000  Zn
  Zn6      1.0000 0.82654  0.36217  0.22560  Biso   1.000  Zn
  N13      1.0000 0.31676  0.32760  0.25080  Biso   1.000  N
  N14      1.0000 0.27757  0.45520  0.22870  Biso   1.000  N
  N15      1.0000 0.26362  0.31630  0.19010  Biso   1.000  N
  N16      1.0000 0.37876  0.55800  0.35810  Biso   1.000  N
  N17      1.0000 0.16541  0.53590  0.11007  Biso   1.000  N
  N18      1.0000 0.31449  0.99870  0.21960  Biso   1.000  N
  C37      1.0000 0.30710  0.41380  0.25410  Biso   1.000  C
  C38      1.0000 0.33170  0.46520  0.29070  Biso   1.000  C
  C39      1.0000 0.36190  0.42340  0.31700  Biso   1.000  C
  H25      1.0000 0.36740  0.36200  0.31230  Biso   1.000  H
  C40      1.0000 0.38450  0.47190  0.35080  Biso   1.000  C
  H26      1.0000 0.40510  0.44200  0.36980  Biso   1.000  H
  C41      1.0000 0.34940  0.59920  0.33250  Biso   1.000  C
  H27      1.0000 0.34490  0.66100  0.33770  Biso   1.000  H
  C42      1.0000 0.32490  0.55420  0.29830  Biso   1.000  C
  H28      1.0000 0.30380  0.58460  0.28050  Biso   1.000  H
  C43      1.0000 0.25750  0.40400  0.19630  Biso   1.000  C
  C44      1.0000 0.22520  0.44930  0.16590  Biso   1.000  C
  C45      1.0000 0.21580  0.53720  0.17400  Biso   1.000  C
  H29      1.0000 0.22990  0.56910  0.19890  Biso   1.000  H
  C46      1.0000 0.18580  0.57810  0.14570  Biso   1.000  C
  H30      1.0000 0.17920  0.63820  0.15170  Biso   1.000  H
  C47      1.0000 0.17470  0.45140  0.10220  Biso   1.000  C
  H31      1.0000 0.16040  0.42160  0.07680  Biso   1.000  H
  C48      1.0000 0.20410  0.40490  0.12930  Biso   1.000  C
  H32      1.0000 0.20960  0.34430  0.12300  Biso   1.000  H
  C49      1.0000 0.29330  0.28170  0.21880  Biso   1.000  C
  C50      1.0000 0.30060  0.18320  0.21710  Biso   1.000  C
  C51      1.0000 0.27410  0.12400  0.19370  Biso   1.000  C
  H33      1.0000 0.25080  0.14580  0.17620  Biso   1.000  H
  C52      1.0000 0.28180  0.03300  0.19580  Biso   1.000  C
  H34      1.0000 0.26330  0.99290  0.17980  Biso   1.000  H
  C53      1.0000 0.34020  0.05600  0.24250  Biso   1.000  C
  H35      1.0000 0.36330  0.03240  0.25950  Biso   1.000  H
  C54      1.0000 0.33440  0.14790  0.24240  Biso   1.000  C
  H36      1.0000 0.35310  0.18670  0.25920  Biso   1.000  H
  N19      1.0000 0.92618  0.22080  0.06380  Biso   1.000  N
  N20      1.0000 0.97613  0.27000  0.02982  Biso   1.000  N
  N21      1.0000 0.96289  0.34960  0.09170  Biso   1.000  N
  N22      1.0000 0.93094  0.98270  0.94970  Biso   1.000  N
  N23      1.0000 0.07836  0.50670  0.06290  Biso   1.000  N
  N24      1.0000 0.86050  0.34170  0.18010  Biso   1.000  N
  C55      1.0000 0.94820  0.21310  0.03470  Biso   1.000  C
  C56      1.0000 0.94200  0.13320  0.00470  Biso   1.000  C
  C57      1.0000 0.90990  0.08140  0.00040  Biso   1.000  C
  H37      1.0000 0.89070  0.09670  0.01620  Biso   1.000  H
  C58      1.0000 0.90550  0.00640  0.97300  Biso   1.000  C
  H38      1.0000 0.88320  0.97060  0.97080  Biso   1.000  H
  C59      1.0000 0.96240  0.03450  0.95300  Biso   1.000  C
  H39      1.0000 0.98090  0.01860  0.93630  Biso   1.000  H
  C60      1.0000 0.96880  0.11010  0.98010  Biso   1.000  C
  H40      1.0000 0.99120  0.14540  0.98170  Biso   1.000  H
  C61      1.0000 0.98280  0.33460  0.06040  Biso   1.000  C
  C62      1.0000 0.01560  0.39460  0.06060  Biso   1.000  C
  C63      1.0000 0.02890  0.41310  0.02260  Biso   1.000  C
  H41      1.0000 0.01660  0.38720  0.99510  Biso   1.000  H
  C64      1.0000 0.06030  0.46970  0.02420  Biso   1.000  C
  H42      1.0000 0.06910  0.48220  0.99780  Biso   1.000  H
  C65      1.0000 0.06590  0.48630  0.10000  Biso   1.000  C
  H43      1.0000 0.07920  0.51090  0.12740  Biso   1.000  H
  C66      1.0000 0.03520  0.43220  0.10030  Biso   1.000  C
  H44      1.0000 0.02730  0.42020  0.12740  Biso   1.000  H
  C67      1.0000 0.93400  0.29180  0.09100  Biso   1.000  C
  C68      1.0000 0.90890  0.30800  0.12230  Biso   1.000  C
  C69      1.0000 0.91910  0.36740  0.15690  Biso   1.000  C
  H45      1.0000 0.94270  0.39870  0.16110  Biso   1.000  H
  C70      1.0000 0.89470  0.38110  0.18560  Biso   1.000  C
  H46      1.0000 0.90260  0.42020  0.21020  Biso   1.000  H
  C71      1.0000 0.85080  0.28400  0.14590  Biso   1.000  C
  H47      1.0000 0.82700  0.25370  0.14180  Biso   1.000  H
  C72      1.0000 0.87430  0.26710  0.11660  Biso   1.000  C
  H48      1.0000 0.86630  0.22690  0.09240  Biso   1.000  H
  I13      1.0000 0.64069  0.89181  0.49282  Biso   1.000  I
  I14      1.0000 0.60013  0.76702  0.60689  Biso   1.000  I
  I15      1.0000 0.26576  0.22810  0.69928  Biso   1.000  I
  I16      1.0000 0.36935  0.15868  0.80205  Biso   1.000  I
  I17      1.0000 0.39132  0.74713  0.44409  Biso   1.000  I
  I18      1.0000 0.47613  0.64393  0.36820  Biso   1.000  I
  Zn7      1.0000 0.62165  0.90095  0.56687  Biso   1.000  Zn
  Zn8      1.0000 0.41957  0.62392  0.40531  Biso   1.000  Zn
  Zn9      1.0000 0.32654  0.13783  0.72560  Biso   1.000  Zn
  N25      1.0000 0.81676  0.17240  0.75080  Biso   1.000  N
  N26      1.0000 0.77757  0.04480  0.72870  Biso   1.000  N
  N27      1.0000 0.76362  0.18370  0.69010  Biso   1.000  N
  N28      1.0000 0.87876  0.94200  0.85810  Biso   1.000  N
  N29      1.0000 0.66541  0.96410  0.61007  Biso   1.000  N
  N30      1.0000 0.81449  0.50130  0.71960  Biso   1.000  N
  C73      1.0000 0.80710  0.08620  0.75410  Biso   1.000  C
  C74      1.0000 0.83170  0.03480  0.79070  Biso   1.000  C
  C75      1.0000 0.86190  0.07660  0.81700  Biso   1.000  C
  H49      1.0000 0.86740  0.13800  0.81230  Biso   1.000  H
  C76      1.0000 0.88450  0.02810  0.85080  Biso   1.000  C
  H50      1.0000 0.90510  0.05800  0.86980  Biso   1.000  H
  C77      1.0000 0.84940  0.90080  0.83250  Biso   1.000  C
  H51      1.0000 0.84490  0.83900  0.83770  Biso   1.000  H
  C78      1.0000 0.82490  0.94580  0.79830  Biso   1.000  C
  H52      1.0000 0.80380  0.91540  0.78050  Biso   1.000  H
  C79      1.0000 0.75750  0.09600  0.69630  Biso   1.000  C
  C80      1.0000 0.72520  0.05070  0.66590  Biso   1.000  C
  C81      1.0000 0.71580  0.96280  0.67400  Biso   1.000  C
  H53      1.0000 0.72990  0.93090  0.69890  Biso   1.000  H
  C82      1.0000 0.68580  0.92190  0.64570  Biso   1.000  C
  H54      1.0000 0.67920  0.86180  0.65170  Biso   1.000  H
  C83      1.0000 0.67470  0.04860  0.60220  Biso   1.000  C
  H55      1.0000 0.66040  0.07840  0.57680  Biso   1.000  H
  C84      1.0000 0.70410  0.09510  0.62930  Biso   1.000  C
  H56      1.0000 0.70960  0.15570  0.62300  Biso   1.000  H
  C85      1.0000 0.79330  0.21830  0.71880  Biso   1.000  C
  C86      1.0000 0.80060  0.31680  0.71710  Biso   1.000  C
  C87      1.0000 0.77410  0.37600  0.69370  Biso   1.000  C
  H57      1.0000 0.75080  0.35420  0.67620  Biso   1.000  H
  C88      1.0000 0.78180  0.46700  0.69580  Biso   1.000  C
  H58      1.0000 0.76330  0.50710  0.67980  Biso   1.000  H
  C89      1.0000 0.84020  0.44400  0.74250  Biso   1.000  C
  H59      1.0000 0.86330  0.46760  0.75950  Biso   1.000  H
  C90      1.0000 0.83440  0.35210  0.74240  Biso   1.000  C
  H60      1.0000 0.85310  0.31330  0.75920  Biso   1.000  H
  N31      1.0000 0.42618  0.27920  0.56380  Biso   1.000  N
  N32      1.0000 0.47613  0.23000  0.52982  Biso   1.000  N
  N33      1.0000 0.46289  0.15040  0.59170  Biso   1.000  N
  N34      1.0000 0.43094  0.51730  0.44970  Biso   1.000  N
  N35      1.0000 0.57836  0.99330  0.56290  Biso   1.000  N
  N36      1.0000 0.36050  0.15830  0.68010  Biso   1.000  N
  C91      1.0000 0.44820  0.28690  0.53470  Biso   1.000  C
  C92      1.0000 0.44200  0.36680  0.50470  Biso   1.000  C
  C93      1.0000 0.40990  0.41860  0.50040  Biso   1.000  C
  H61      1.0000 0.39070  0.40330  0.51620  Biso   1.000  H
  C94      1.0000 0.40550  0.49360  0.47300  Biso   1.000  C
  H62      1.0000 0.38320  0.52940  0.47080  Biso   1.000  H
  C95      1.0000 0.46240  0.46550  0.45300  Biso   1.000  C
  H63      1.0000 0.48090  0.48140  0.43630  Biso   1.000  H
  C96      1.0000 0.46880  0.38990  0.48010  Biso   1.000  C
  H64      1.0000 0.49120  0.35460  0.48170  Biso   1.000  H
  C97      1.0000 0.48280  0.16540  0.56040  Biso   1.000  C
  C98      1.0000 0.51560  0.10540  0.56060  Biso   1.000  C
  C99      1.0000 0.52890  0.08690  0.52260  Biso   1.000  C
  H65      1.0000 0.51660  0.11280  0.49510  Biso   1.000  H
  C100     1.0000 0.56030  0.03030  0.52420  Biso   1.000  C
  H66      1.0000 0.56910  0.01780  0.49780  Biso   1.000  H
  C101     1.0000 0.56590  0.01370  0.60000  Biso   1.000  C
  H67      1.0000 0.57920  0.98910  0.62740  Biso   1.000  H
  C102     1.0000 0.53520  0.06780  0.60030  Biso   1.000  C
  H68      1.0000 0.52730  0.07980  0.62740  Biso   1.000  H
  C103     1.0000 0.43400  0.20820  0.59100  Biso   1.000  C
  C104     1.0000 0.40890  0.19200  0.62230  Biso   1.000  C
  C105     1.0000 0.41910  0.13260  0.65690  Biso   1.000  C
  H69      1.0000 0.44270  0.10130  0.66110  Biso   1.000  H
  C106     1.0000 0.39470  0.11890  0.68560  Biso   1.000  C
  H70      1.0000 0.40260  0.07980  0.71020  Biso   1.000  H
  C107     1.0000 0.35080  0.21600  0.64590  Biso   1.000  C
  H71      1.0000 0.32700  0.24630  0.64180  Biso   1.000  H
  C108     1.0000 0.37430  0.23290  0.61660  Biso   1.000  C
  H72      1.0000 0.36630  0.27310  0.59240  Biso   1.000  H
  I19      1.0000 0.14069  0.39181  0.49282  Biso   1.000  I
  I20      1.0000 0.10013  0.26702  0.60689  Biso   1.000  I
  I21      1.0000 0.76576  0.72810  0.69928  Biso   1.000  I
  I22      1.0000 0.86935  0.65868  0.80205  Biso   1.000  I
  I23      1.0000 0.89132  0.24713  0.44409  Biso   1.000  I
  I24      1.0000 0.97613  0.14393  0.36820  Biso   1.000  I
  Zn10     1.0000 0.12165  0.40095  0.56687  Biso   1.000  Zn
  Zn11     1.0000 0.91957  0.12392  0.40531  Biso   1.000  Zn
  Zn12     1.0000 0.82654  0.63783  0.72560  Biso   1.000  Zn
  N37      1.0000 0.31676  0.67240  0.75080  Biso   1.000  N
  N38      1.0000 0.27757  0.54480  0.72870  Biso   1.000  N
  N39      1.0000 0.26362  0.68370  0.69010  Biso   1.000  N
  N40      1.0000 0.37876  0.44200  0.85810  Biso   1.000  N
  N41      1.0000 0.16541  0.46410  0.61007  Biso   1.000  N
  N42      1.0000 0.31449  0.00130  0.71960  Biso   1.000  N
  C109     1.0000 0.30710  0.58620  0.75410  Biso   1.000  C
  C110     1.0000 0.33170  0.53480  0.79070  Biso   1.000  C
  C111     1.0000 0.36190  0.57660  0.81700  Biso   1.000  C
  H73      1.0000 0.36740  0.63800  0.81230  Biso   1.000  H
  C112     1.0000 0.38450  0.52810  0.85080  Biso   1.000  C
  H74      1.0000 0.40510  0.55800  0.86980  Biso   1.000  H
  C113     1.0000 0.34940  0.40080  0.83250  Biso   1.000  C
  H75      1.0000 0.34490  0.33900  0.83770  Biso   1.000  H
  C114     1.0000 0.32490  0.44580  0.79830  Biso   1.000  C
  H76      1.0000 0.30380  0.41540  0.78050  Biso   1.000  H
  C115     1.0000 0.25750  0.59600  0.69630  Biso   1.000  C
  C116     1.0000 0.22520  0.55070  0.66590  Biso   1.000  C
  C117     1.0000 0.21580  0.46280  0.67400  Biso   1.000  C
  H77      1.0000 0.22990  0.43090  0.69890  Biso   1.000  H
  C118     1.0000 0.18580  0.42190  0.64570  Biso   1.000  C
  H78      1.0000 0.17920  0.36180  0.65170  Biso   1.000  H
  C119     1.0000 0.17470  0.54860  0.60220  Biso   1.000  C
  H79      1.0000 0.16040  0.57840  0.57680  Biso   1.000  H
  C120     1.0000 0.20410  0.59510  0.62930  Biso   1.000  C
  H80      1.0000 0.20960  0.65570  0.62300  Biso   1.000  H
  C121     1.0000 0.29330  0.71830  0.71880  Biso   1.000  C
  C122     1.0000 0.30060  0.81680  0.71710  Biso   1.000  C
  C123     1.0000 0.27410  0.87600  0.69370  Biso   1.000  C
  H81      1.0000 0.25080  0.85420  0.67620  Biso   1.000  H
  C124     1.0000 0.28180  0.96700  0.69580  Biso   1.000  C
  H82      1.0000 0.26330  0.00710  0.67980  Biso   1.000  H
  C125     1.0000 0.34020  0.94400  0.74250  Biso   1.000  C
  H83      1.0000 0.36330  0.96760  0.75950  Biso   1.000  H
  C126     1.0000 0.33440  0.85210  0.74240  Biso   1.000  C
  H84      1.0000 0.35310  0.81330  0.75920  Biso   1.000  H
  N43      1.0000 0.92618  0.77920  0.56380  Biso   1.000  N
  N44      1.0000 0.97613  0.73000  0.52982  Biso   1.000  N
  N45      1.0000 0.96289  0.65040  0.59170  Biso   1.000  N
  N46      1.0000 0.93094  0.01730  0.44970  Biso   1.000  N
  N47      1.0000 0.07836  0.49330  0.56290  Biso   1.000  N
  N48      1.0000 0.86050  0.65830  0.68010  Biso   1.000  N
  C127     1.0000 0.94820  0.78690  0.53470  Biso   1.000  C
  C128     1.0000 0.94200  0.86680  0.50470  Biso   1.000  C
  C129     1.0000 0.90990  0.91860  0.50040  Biso   1.000  C
  H85      1.0000 0.89070  0.90330  0.51620  Biso   1.000  H
  C130     1.0000 0.90550  0.99360  0.47300  Biso   1.000  C
  H86      1.0000 0.88320  0.02940  0.47080  Biso   1.000  H
  C131     1.0000 0.96240  0.96550  0.45300  Biso   1.000  C
  H87      1.0000 0.98090  0.98140  0.43630  Biso   1.000  H
  C132     1.0000 0.96880  0.88990  0.48010  Biso   1.000  C
  H88      1.0000 0.99120  0.85460  0.48170  Biso   1.000  H
  C133     1.0000 0.98280  0.66540  0.56040  Biso   1.000  C
  C134     1.0000 0.01560  0.60540  0.56060  Biso   1.000  C
  C135     1.0000 0.02890  0.58690  0.52260  Biso   1.000  C
  H89      1.0000 0.01660  0.61280  0.49510  Biso   1.000  H
  C136     1.0000 0.06030  0.53030  0.52420  Biso   1.000  C
  H90      1.0000 0.06910  0.51780  0.49780  Biso   1.000  H
  C137     1.0000 0.06590  0.51370  0.60000  Biso   1.000  C
  H91      1.0000 0.07920  0.48910  0.62740  Biso   1.000  H
  C138     1.0000 0.03520  0.56780  0.60030  Biso   1.000  C
  H92      1.0000 0.02730  0.57980  0.62740  Biso   1.000  H
  C139     1.0000 0.93400  0.70820  0.59100  Biso   1.000  C
  C140     1.0000 0.90890  0.69200  0.62230  Biso   1.000  C
  C141     1.0000 0.91910  0.63260  0.65690  Biso   1.000  C
  H93      1.0000 0.94270  0.60130  0.66110  Biso   1.000  H
  C142     1.0000 0.89470  0.61890  0.68560  Biso   1.000  C
  H94      1.0000 0.90260  0.57980  0.71020  Biso   1.000  H
  C143     1.0000 0.85080  0.71600  0.64590  Biso   1.000  C
  H95      1.0000 0.82700  0.74630  0.64180  Biso   1.000  H
  C144     1.0000 0.87430  0.73290  0.61660  Biso   1.000  C
  H96      1.0000 0.86630  0.77310  0.59240  Biso   1.000  H
  I25      1.0000 0.35931  0.10819  0.50718  Biso   1.000  I
  I26      1.0000 0.39987  0.23298  0.39311  Biso   1.000  I
  I27      1.0000 0.73424  0.77190  0.30072  Biso   1.000  I
  I28      1.0000 0.63065  0.84132  0.19795  Biso   1.000  I
  I29      1.0000 0.60868  0.25287  0.55591  Biso   1.000  I
  I30      1.0000 0.52387  0.35607  0.63180  Biso   1.000  I
  Zn13     1.0000 0.37835  0.09905  0.43313  Biso   1.000  Zn
  Zn14     1.0000 0.58043  0.37608  0.59469  Biso   1.000  Zn
  Zn15     1.0000 0.67346  0.86217  0.27440  Biso   1.000  Zn
  N49      1.0000 0.18324  0.82760  0.24920  Biso   1.000  N
  N50      1.0000 0.22243  0.95520  0.27130  Biso   1.000  N
  N51      1.0000 0.23638  0.81630  0.30990  Biso   1.000  N
  N52      1.0000 0.12124  0.05800  0.14190  Biso   1.000  N
  N53      1.0000 0.33459  0.03590  0.38993  Biso   1.000  N
  N54      1.0000 0.18551  0.49870  0.28040  Biso   1.000  N
  C145     1.0000 0.19290  0.91380  0.24590  Biso   1.000  C
  C146     1.0000 0.16830  0.96520  0.20930  Biso   1.000  C
  C147     1.0000 0.13810  0.92340  0.18300  Biso   1.000  C
  H97      1.0000 0.13260  0.86200  0.18770  Biso   1.000  H
  C148     1.0000 0.11550  0.97190  0.14920  Biso   1.000  C
  H98      1.0000 0.09490  0.94200  0.13020  Biso   1.000  H
  C149     1.0000 0.15060  0.09920  0.16750  Biso   1.000  C
  H99      1.0000 0.15510  0.16100  0.16230  Biso   1.000  H
  C150     1.0000 0.17510  0.05420  0.20170  Biso   1.000  C
  H100     1.0000 0.19620  0.08460  0.21950  Biso   1.000  H
  C151     1.0000 0.24250  0.90400  0.30370  Biso   1.000  C
  C152     1.0000 0.27480  0.94930  0.33410  Biso   1.000  C
  C153     1.0000 0.28420  0.03720  0.32600  Biso   1.000  C
  H101     1.0000 0.27010  0.06910  0.30110  Biso   1.000  H
  C154     1.0000 0.31420  0.07810  0.35430  Biso   1.000  C
  H102     1.0000 0.32080  0.13820  0.34830  Biso   1.000  H
  C155     1.0000 0.32530  0.95140  0.39780  Biso   1.000  C
  H103     1.0000 0.33960  0.92160  0.42320  Biso   1.000  H
  C156     1.0000 0.29590  0.90490  0.37070  Biso   1.000  C
  H104     1.0000 0.29040  0.84430  0.37700  Biso   1.000  H
  C157     1.0000 0.20670  0.78170  0.28120  Biso   1.000  C
  C158     1.0000 0.19940  0.68320  0.28290  Biso   1.000  C
  C159     1.0000 0.22590  0.62400  0.30630  Biso   1.000  C
  H105     1.0000 0.24920  0.64580  0.32380  Biso   1.000  H
  C160     1.0000 0.21820  0.53300  0.30420  Biso   1.000  C
  H106     1.0000 0.23670  0.49290  0.32020  Biso   1.000  H
  C161     1.0000 0.15980  0.55600  0.25750  Biso   1.000  C
  H107     1.0000 0.13670  0.53240  0.24050  Biso   1.000  H
  C162     1.0000 0.16560  0.64790  0.25760  Biso   1.000  C
  H108     1.0000 0.14690  0.68670  0.24080  Biso   1.000  H
  N55      1.0000 0.57382  0.72080  0.43620  Biso   1.000  N
  N56      1.0000 0.52387  0.77000  0.47018  Biso   1.000  N
  N57      1.0000 0.53711  0.84960  0.40830  Biso   1.000  N
  N58      1.0000 0.56906  0.48270  0.55030  Biso   1.000  N
  N59      1.0000 0.42164  0.00670  0.43710  Biso   1.000  N
  N60      1.0000 0.63950  0.84170  0.31990  Biso   1.000  N
  C163     1.0000 0.55180  0.71310  0.46530  Biso   1.000  C
  C164     1.0000 0.55800  0.63320  0.49530  Biso   1.000  C
  C165     1.0000 0.59010  0.58140  0.49960  Biso   1.000  C
  H109     1.0000 0.60930  0.59670  0.48380  Biso   1.000  H
  C166     1.0000 0.59450  0.50640  0.52700  Biso   1.000  C
  H110     1.0000 0.61680  0.47060  0.52920  Biso   1.000  H
  C167     1.0000 0.53760  0.53450  0.54700  Biso   1.000  C
  H111     1.0000 0.51910  0.51860  0.56370  Biso   1.000  H
  C168     1.0000 0.53120  0.61010  0.51990  Biso   1.000  C
  H112     1.0000 0.50880  0.64540  0.51830  Biso   1.000  H
  C169     1.0000 0.51720  0.83460  0.43960  Biso   1.000  C
  C170     1.0000 0.48440  0.89460  0.43940  Biso   1.000  C
  C171     1.0000 0.47110  0.91310  0.47740  Biso   1.000  C
  H113     1.0000 0.48340  0.88720  0.50490  Biso   1.000  H
  C172     1.0000 0.43970  0.96970  0.47580  Biso   1.000  C
  H114     1.0000 0.43090  0.98220  0.50220  Biso   1.000  H
  C173     1.0000 0.43410  0.98630  0.40000  Biso   1.000  C
  H115     1.0000 0.42080  0.01090  0.37260  Biso   1.000  H
  C174     1.0000 0.46480  0.93220  0.39970  Biso   1.000  C
  H116     1.0000 0.47270  0.92020  0.37260  Biso   1.000  H
  C175     1.0000 0.56600  0.79180  0.40900  Biso   1.000  C
  C176     1.0000 0.59110  0.80800  0.37770  Biso   1.000  C
  C177     1.0000 0.58090  0.86740  0.34310  Biso   1.000  C
  H117     1.0000 0.55730  0.89870  0.33890  Biso   1.000  H
  C178     1.0000 0.60530  0.88110  0.31440  Biso   1.000  C
  H118     1.0000 0.59740  0.92020  0.28980  Biso   1.000  H
  C179     1.0000 0.64920  0.78400  0.35410  Biso   1.000  C
  H119     1.0000 0.67300  0.75370  0.35820  Biso   1.000  H
  C180     1.0000 0.62570  0.76710  0.38340  Biso   1.000  C
  H120     1.0000 0.63370  0.72690  0.40760  Biso   1.000  H
  I31      1.0000 0.85931  0.60819  0.50718  Biso   1.000  I
  I32      1.0000 0.89987  0.73298  0.39311  Biso   1.000  I
  I33      1.0000 0.23424  0.27190  0.30072  Biso   1.000  I
  I34      1.0000 0.13065  0.34132  0.19795  Biso   1.000  I
  I35      1.0000 0.10868  0.75287  0.55591  Biso   1.000  I
  I36      1.0000 0.02387  0.85607  0.63180  Biso   1.000  I
  Zn16     1.0000 0.87835  0.59905  0.43313  Biso   1.000  Zn
  Zn17     1.0000 0.08043  0.87608  0.59469  Biso   1.000  Zn
  Zn18     1.0000 0.17346  0.36217  0.27440  Biso   1.000  Zn
  N61      1.0000 0.68324  0.32760  0.24920  Biso   1.000  N
  N62      1.0000 0.72243  0.45520  0.27130  Biso   1.000  N
  N63      1.0000 0.73638  0.31630  0.30990  Biso   1.000  N
  N64      1.0000 0.62124  0.55800  0.14190  Biso   1.000  N
  N65      1.0000 0.83459  0.53590  0.38993  Biso   1.000  N
  N66      1.0000 0.68551  0.99870  0.28040  Biso   1.000  N
  C181     1.0000 0.69290  0.41380  0.24590  Biso   1.000  C
  C182     1.0000 0.66830  0.46520  0.20930  Biso   1.000  C
  C183     1.0000 0.63810  0.42340  0.18300  Biso   1.000  C
  H121     1.0000 0.63260  0.36200  0.18770  Biso   1.000  H
  C184     1.0000 0.61550  0.47190  0.14920  Biso   1.000  C
  H122     1.0000 0.59490  0.44200  0.13020  Biso   1.000  H
  C185     1.0000 0.65060  0.59920  0.16750  Biso   1.000  C
  H123     1.0000 0.65510  0.66100  0.16230  Biso   1.000  H
  C186     1.0000 0.67510  0.55420  0.20170  Biso   1.000  C
  H124     1.0000 0.69620  0.58460  0.21950  Biso   1.000  H
  C187     1.0000 0.74250  0.40400  0.30370  Biso   1.000  C
  C188     1.0000 0.77480  0.44930  0.33410  Biso   1.000  C
  C189     1.0000 0.78420  0.53720  0.32600  Biso   1.000  C
  H125     1.0000 0.77010  0.56910  0.30110  Biso   1.000  H
  C190     1.0000 0.81420  0.57810  0.35430  Biso   1.000  C
  H126     1.0000 0.82080  0.63820  0.34830  Biso   1.000  H
  C191     1.0000 0.82530  0.45140  0.39780  Biso   1.000  C
  H127     1.0000 0.83960  0.42160  0.42320  Biso   1.000  H
  C192     1.0000 0.79590  0.40490  0.37070  Biso   1.000  C
  H128     1.0000 0.79040  0.34430  0.37700  Biso   1.000  H
  C193     1.0000 0.70670  0.28170  0.28120  Biso   1.000  C
  C194     1.0000 0.69940  0.18320  0.28290  Biso   1.000  C
  C195     1.0000 0.72590  0.12400  0.30630  Biso   1.000  C
  H129     1.0000 0.74920  0.14580  0.32380  Biso   1.000  H
  C196     1.0000 0.71820  0.03300  0.30420  Biso   1.000  C
  H130     1.0000 0.73670  0.99290  0.32020  Biso   1.000  H
  C197     1.0000 0.65980  0.05600  0.25750  Biso   1.000  C
  H131     1.0000 0.63670  0.03240  0.24050  Biso   1.000  H
  C198     1.0000 0.66560  0.14790  0.25760  Biso   1.000  C
  H132     1.0000 0.64690  0.18670  0.24080  Biso   1.000  H
  N67      1.0000 0.07382  0.22080  0.43620  Biso   1.000  N
  N68      1.0000 0.02387  0.27000  0.47018  Biso   1.000  N
  N69      1.0000 0.03711  0.34960  0.40830  Biso   1.000  N
  N70      1.0000 0.06906  0.98270  0.55030  Biso   1.000  N
  N71      1.0000 0.92164  0.50670  0.43710  Biso   1.000  N
  N72      1.0000 0.13950  0.34170  0.31990  Biso   1.000  N
  C199     1.0000 0.05180  0.21310  0.46530  Biso   1.000  C
  C200     1.0000 0.05800  0.13320  0.49530  Biso   1.000  C
  C201     1.0000 0.09010  0.08140  0.49960  Biso   1.000  C
  H133     1.0000 0.10930  0.09670  0.48380  Biso   1.000  H
  C202     1.0000 0.09450  0.00640  0.52700  Biso   1.000  C
  H134     1.0000 0.11680  0.97060  0.52920  Biso   1.000  H
  C203     1.0000 0.03760  0.03450  0.54700  Biso   1.000  C
  H135     1.0000 0.01910  0.01860  0.56370  Biso   1.000  H
  C204     1.0000 0.03120  0.11010  0.51990  Biso   1.000  C
  H136     1.0000 0.00880  0.14540  0.51830  Biso   1.000  H
  C205     1.0000 0.01720  0.33460  0.43960  Biso   1.000  C
  C206     1.0000 0.98440  0.39460  0.43940  Biso   1.000  C
  C207     1.0000 0.97110  0.41310  0.47740  Biso   1.000  C
  H137     1.0000 0.98340  0.38720  0.50490  Biso   1.000  H
  C208     1.0000 0.93970  0.46970  0.47580  Biso   1.000  C
  H138     1.0000 0.93090  0.48220  0.50220  Biso   1.000  H
  C209     1.0000 0.93410  0.48630  0.40000  Biso   1.000  C
  H139     1.0000 0.92080  0.51090  0.37260  Biso   1.000  H
  C210     1.0000 0.96480  0.43220  0.39970  Biso   1.000  C
  H140     1.0000 0.97270  0.42020  0.37260  Biso   1.000  H
  C211     1.0000 0.06600  0.29180  0.40900  Biso   1.000  C
  C212     1.0000 0.09110  0.30800  0.37770  Biso   1.000  C
  C213     1.0000 0.08090  0.36740  0.34310  Biso   1.000  C
  H141     1.0000 0.05730  0.39870  0.33890  Biso   1.000  H
  C214     1.0000 0.10530  0.38110  0.31440  Biso   1.000  C
  H142     1.0000 0.09740  0.42020  0.28980  Biso   1.000  H
  C215     1.0000 0.14920  0.28400  0.35410  Biso   1.000  C
  H143     1.0000 0.17300  0.25370  0.35820  Biso   1.000  H
  C216     1.0000 0.12570  0.26710  0.38340  Biso   1.000  C
  H144     1.0000 0.13370  0.22690  0.40760  Biso   1.000  H
  I37      1.0000 0.35931  0.89181  0.00718  Biso   1.000  I
  I38      1.0000 0.39987  0.76702  0.89311  Biso   1.000  I
  I39      1.0000 0.73424  0.22810  0.80072  Biso   1.000  I
  I40      1.0000 0.63065  0.15868  0.69795  Biso   1.000  I
  I41      1.0000 0.60868  0.74713  0.05591  Biso   1.000  I
  I42      1.0000 0.52387  0.64393  0.13180  Biso   1.000  I
  Zn19     1.0000 0.37835  0.90095  0.93313  Biso   1.000  Zn
  Zn20     1.0000 0.58043  0.62392  0.09469  Biso   1.000  Zn
  Zn21     1.0000 0.67346  0.13783  0.77440  Biso   1.000  Zn
  N73      1.0000 0.18324  0.17240  0.74920  Biso   1.000  N
  N74      1.0000 0.22243  0.04480  0.77130  Biso   1.000  N
  N75      1.0000 0.23638  0.18370  0.80990  Biso   1.000  N
  N76      1.0000 0.12124  0.94200  0.64190  Biso   1.000  N
  N77      1.0000 0.33459  0.96410  0.88993  Biso   1.000  N
  N78      1.0000 0.18551  0.50130  0.78040  Biso   1.000  N
  C217     1.0000 0.19290  0.08620  0.74590  Biso   1.000  C
  C218     1.0000 0.16830  0.03480  0.70930  Biso   1.000  C
  C219     1.0000 0.13810  0.07660  0.68300  Biso   1.000  C
  H145     1.0000 0.13260  0.13800  0.68770  Biso   1.000  H
  C220     1.0000 0.11550  0.02810  0.64920  Biso   1.000  C
  H146     1.0000 0.09490  0.05800  0.63020  Biso   1.000  H
  C221     1.0000 0.15060  0.90080  0.66750  Biso   1.000  C
  H147     1.0000 0.15510  0.83900  0.66230  Biso   1.000  H
  C222     1.0000 0.17510  0.94580  0.70170  Biso   1.000  C
  H148     1.0000 0.19620  0.91540  0.71950  Biso   1.000  H
  C223     1.0000 0.24250  0.09600  0.80370  Biso   1.000  C
  C224     1.0000 0.27480  0.05070  0.83410  Biso   1.000  C
  C225     1.0000 0.28420  0.96280  0.82600  Biso   1.000  C
  H149     1.0000 0.27010  0.93090  0.80110  Biso   1.000  H
  C226     1.0000 0.31420  0.92190  0.85430  Biso   1.000  C
  H150     1.0000 0.32080  0.86180  0.84830  Biso   1.000  H
  C227     1.0000 0.32530  0.04860  0.89780  Biso   1.000  C
  H151     1.0000 0.33960  0.07840  0.92320  Biso   1.000  H
  C228     1.0000 0.29590  0.09510  0.87070  Biso   1.000  C
  H152     1.0000 0.29040  0.15570  0.87700  Biso   1.000  H
  C229     1.0000 0.20670  0.21830  0.78120  Biso   1.000  C
  C230     1.0000 0.19940  0.31680  0.78290  Biso   1.000  C
  C231     1.0000 0.22590  0.37600  0.80630  Biso   1.000  C
  H153     1.0000 0.24920  0.35420  0.82380  Biso   1.000  H
  C232     1.0000 0.21820  0.46700  0.80420  Biso   1.000  C
  H154     1.0000 0.23670  0.50710  0.82020  Biso   1.000  H
  C233     1.0000 0.15980  0.44400  0.75750  Biso   1.000  C
  H155     1.0000 0.13670  0.46760  0.74050  Biso   1.000  H
  C234     1.0000 0.16560  0.35210  0.75760  Biso   1.000  C
  H156     1.0000 0.14690  0.31330  0.74080  Biso   1.000  H
  N79      1.0000 0.57382  0.27920  0.93620  Biso   1.000  N
  N80      1.0000 0.52387  0.23000  0.97018  Biso   1.000  N
  N81      1.0000 0.53711  0.15040  0.90830  Biso   1.000  N
  N82      1.0000 0.56906  0.51730  0.05030  Biso   1.000  N
  N83      1.0000 0.42164  0.99330  0.93710  Biso   1.000  N
  N84      1.0000 0.63950  0.15830  0.81990  Biso   1.000  N
  C235     1.0000 0.55180  0.28690  0.96530  Biso   1.000  C
  C236     1.0000 0.55800  0.36680  0.99530  Biso   1.000  C
  C237     1.0000 0.59010  0.41860  0.99960  Biso   1.000  C
  H157     1.0000 0.60930  0.40330  0.98380  Biso   1.000  H
  C238     1.0000 0.59450  0.49360  0.02700  Biso   1.000  C
  H158     1.0000 0.61680  0.52940  0.02920  Biso   1.000  H
  C239     1.0000 0.53760  0.46550  0.04700  Biso   1.000  C
  H159     1.0000 0.51910  0.48140  0.06370  Biso   1.000  H
  C240     1.0000 0.53120  0.38990  0.01990  Biso   1.000  C
  H160     1.0000 0.50880  0.35460  0.01830  Biso   1.000  H
  C241     1.0000 0.51720  0.16540  0.93960  Biso   1.000  C
  C242     1.0000 0.48440  0.10540  0.93940  Biso   1.000  C
  C243     1.0000 0.47110  0.08690  0.97740  Biso   1.000  C
  H161     1.0000 0.48340  0.11280  0.00490  Biso   1.000  H
  C244     1.0000 0.43970  0.03030  0.97580  Biso   1.000  C
  H162     1.0000 0.43090  0.01780  0.00220  Biso   1.000  H
  C245     1.0000 0.43410  0.01370  0.90000  Biso   1.000  C
  H163     1.0000 0.42080  0.98910  0.87260  Biso   1.000  H
  C246     1.0000 0.46480  0.06780  0.89970  Biso   1.000  C
  H164     1.0000 0.47270  0.07980  0.87260  Biso   1.000  H
  C247     1.0000 0.56600  0.20820  0.90900  Biso   1.000  C
  C248     1.0000 0.59110  0.19200  0.87770  Biso   1.000  C
  C249     1.0000 0.58090  0.13260  0.84310  Biso   1.000  C
  H165     1.0000 0.55730  0.10130  0.83890  Biso   1.000  H
  C250     1.0000 0.60530  0.11890  0.81440  Biso   1.000  C
  H166     1.0000 0.59740  0.07980  0.78980  Biso   1.000  H
  C251     1.0000 0.64920  0.21600  0.85410  Biso   1.000  C
  H167     1.0000 0.67300  0.24630  0.85820  Biso   1.000  H
  C252     1.0000 0.62570  0.23290  0.88340  Biso   1.000  C
  H168     1.0000 0.63370  0.27310  0.90760  Biso   1.000  H
  I43      1.0000 0.85931  0.39181  0.00718  Biso   1.000  I
  I44      1.0000 0.89987  0.26702  0.89311  Biso   1.000  I
  I45      1.0000 0.23424  0.72810  0.80072  Biso   1.000  I
  I46      1.0000 0.13065  0.65868  0.69795  Biso   1.000  I
  I47      1.0000 0.10868  0.24713  0.05591  Biso   1.000  I
  I48      1.0000 0.02387  0.14393  0.13180  Biso   1.000  I
  Zn22     1.0000 0.87835  0.40095  0.93313  Biso   1.000  Zn
  Zn23     1.0000 0.08043  0.12392  0.09469  Biso   1.000  Zn
  Zn24     1.0000 0.17346  0.63783  0.77440  Biso   1.000  Zn
  N85      1.0000 0.68324  0.67240  0.74920  Biso   1.000  N
  N86      1.0000 0.72243  0.54480  0.77130  Biso   1.000  N
  N87      1.0000 0.73638  0.68370  0.80990  Biso   1.000  N
  N88      1.0000 0.62124  0.44200  0.64190  Biso   1.000  N
  N89      1.0000 0.83459  0.46410  0.88993  Biso   1.000  N
  N90      1.0000 0.68551  0.00130  0.78040  Biso   1.000  N
  C253     1.0000 0.69290  0.58620  0.74590  Biso   1.000  C
  C254     1.0000 0.66830  0.53480  0.70930  Biso   1.000  C
  C255     1.0000 0.63810  0.57660  0.68300  Biso   1.000  C
  H169     1.0000 0.63260  0.63800  0.68770  Biso   1.000  H
  C256     1.0000 0.61550  0.52810  0.64920  Biso   1.000  C
  H170     1.0000 0.59490  0.55800  0.63020  Biso   1.000  H
  C257     1.0000 0.65060  0.40080  0.66750  Biso   1.000  C
  H171     1.0000 0.65510  0.33900  0.66230  Biso   1.000  H
  C258     1.0000 0.67510  0.44580  0.70170  Biso   1.000  C
  H172     1.0000 0.69620  0.41540  0.71950  Biso   1.000  H
  C259     1.0000 0.74250  0.59600  0.80370  Biso   1.000  C
  C260     1.0000 0.77480  0.55070  0.83410  Biso   1.000  C
  C261     1.0000 0.78420  0.46280  0.82600  Biso   1.000  C
  H173     1.0000 0.77010  0.43090  0.80110  Biso   1.000  H
  C262     1.0000 0.81420  0.42190  0.85430  Biso   1.000  C
  H174     1.0000 0.82080  0.36180  0.84830  Biso   1.000  H
  C263     1.0000 0.82530  0.54860  0.89780  Biso   1.000  C
  H175     1.0000 0.83960  0.57840  0.92320  Biso   1.000  H
  C264     1.0000 0.79590  0.59510  0.87070  Biso   1.000  C
  H176     1.0000 0.79040  0.65570  0.87700  Biso   1.000  H
  C265     1.0000 0.70670  0.71830  0.78120  Biso   1.000  C
  C266     1.0000 0.69940  0.81680  0.78290  Biso   1.000  C
  C267     1.0000 0.72590  0.87600  0.80630  Biso   1.000  C
  H177     1.0000 0.74920  0.85420  0.82380  Biso   1.000  H
  C268     1.0000 0.71820  0.96700  0.80420  Biso   1.000  C
  H178     1.0000 0.73670  0.00710  0.82020  Biso   1.000  H
  C269     1.0000 0.65980  0.94400  0.75750  Biso   1.000  C
  H179     1.0000 0.63670  0.96760  0.74050  Biso   1.000  H
  C270     1.0000 0.66560  0.85210  0.75760  Biso   1.000  C
  H180     1.0000 0.64690  0.81330  0.74080  Biso   1.000  H
  N91      1.0000 0.07382  0.77920  0.93620  Biso   1.000  N
  N92      1.0000 0.02387  0.73000  0.97018  Biso   1.000  N
  N93      1.0000 0.03711  0.65040  0.90830  Biso   1.000  N
  N94      1.0000 0.06906  0.01730  0.05030  Biso   1.000  N
  N95      1.0000 0.92164  0.49330  0.93710  Biso   1.000  N
  N96      1.0000 0.13950  0.65830  0.81990  Biso   1.000  N
  C271     1.0000 0.05180  0.78690  0.96530  Biso   1.000  C
  C272     1.0000 0.05800  0.86680  0.99530  Biso   1.000  C
  C273     1.0000 0.09010  0.91860  0.99960  Biso   1.000  C
  H181     1.0000 0.10930  0.90330  0.98380  Biso   1.000  H
  C274     1.0000 0.09450  0.99360  0.02700  Biso   1.000  C
  H182     1.0000 0.11680  0.02940  0.02920  Biso   1.000  H
  C275     1.0000 0.03760  0.96550  0.04700  Biso   1.000  C
  H183     1.0000 0.01910  0.98140  0.06370  Biso   1.000  H
  C276     1.0000 0.03120  0.88990  0.01990  Biso   1.000  C
  H184     1.0000 0.00880  0.85460  0.01830  Biso   1.000  H
  C277     1.0000 0.01720  0.66540  0.93960  Biso   1.000  C
  C278     1.0000 0.98440  0.60540  0.93940  Biso   1.000  C
  C279     1.0000 0.97110  0.58690  0.97740  Biso   1.000  C
  H185     1.0000 0.98340  0.61280  0.00490  Biso   1.000  H
  C280     1.0000 0.93970  0.53030  0.97580  Biso   1.000  C
  H186     1.0000 0.93090  0.51780  0.00220  Biso   1.000  H
  C281     1.0000 0.93410  0.51370  0.90000  Biso   1.000  C
  H187     1.0000 0.92080  0.48910  0.87260  Biso   1.000  H
  C282     1.0000 0.96480  0.56780  0.89970  Biso   1.000  C
  H188     1.0000 0.97270  0.57980  0.87260  Biso   1.000  H
  C283     1.0000 0.06600  0.70820  0.90900  Biso   1.000  C
  C284     1.0000 0.09110  0.69200  0.87770  Biso   1.000  C
  C285     1.0000 0.08090  0.63260  0.84310  Biso   1.000  C
  H189     1.0000 0.05730  0.60130  0.83890  Biso   1.000  H
  C286     1.0000 0.10530  0.61890  0.81440  Biso   1.000  C
  H190     1.0000 0.09740  0.57980  0.78980  Biso   1.000  H
  C287     1.0000 0.14920  0.71600  0.85410  Biso   1.000  C
  H191     1.0000 0.17300  0.74630  0.85820  Biso   1.000  H
  C288     1.0000 0.12570  0.73290  0.88340  Biso   1.000  C
  H192     1.0000 0.13370  0.77310  0.90760  Biso   1.000  H
