data_VOPCIO_clean
_audit_creation_date              2015-10-16
_audit_creation_method            'Materials Studio'
_symmetry_space_group_name_H-M    'P1'
_symmetry_Int_Tables_number       1
_symmetry_cell_setting            triclinic
loop_
_symmetry_equiv_pos_as_xyz
  x,y,z
_cell_length_a                    16.9133
_cell_length_b                    28.7400
_cell_length_c                    29.9404
_cell_angle_alpha                 118.6820
_cell_angle_beta                  97.4262
_cell_angle_gamma                 90.0000
loop_
_atom_site_label
_atom_site_type_symbol
_atom_site_fract_x
_atom_site_fract_y
_atom_site_fract_z
_atom_site_U_iso_or_equiv
_atom_site_adp_type
_atom_site_occupancy
Ce1    Ce    0.88153   0.28606   0.00546   0.01267  Uiso   1.00
Ce2    Ce    0.11847   0.71394   0.99454   0.01267  Uiso   1.00
Ce3    Ce    0.54046   0.72916   0.50032   0.01267  Uiso   1.00
Ce4    Ce    0.04046   0.77116   0.50032   0.01267  Uiso   1.00
Ce5    Ce    0.61927   0.77593   0.99940   0.01267  Uiso   1.00
Ce6    Ce    0.76294   0.79579   0.50170   0.01267  Uiso   1.00
Ce7    Ce    0.38153   0.71940   0.00546   0.01267  Uiso   1.00
Ce8    Ce    0.45954   0.27084   0.49968   0.01267  Uiso   1.00
Ce9    Ce    0.26294   0.70591   0.50170   0.01267  Uiso   1.00
Ce10   Ce    0.11927   0.22347   0.99940   0.01267  Uiso   1.00
Ce11   Ce    0.95954   0.22884   0.49968   0.01267  Uiso   1.00
Ce12   Ce    0.38073   0.22407   0.00060   0.01267  Uiso   1.00
Ce13   Ce    0.73706   0.29409   0.49830   0.01267  Uiso   1.00
Ce14   Ce    0.88073   0.77653   0.00060   0.01267  Uiso   1.00
Ce15   Ce    0.23706   0.20421   0.49830   0.01267  Uiso   1.00
Ce16   Ce    0.61847   0.28060   0.99454   0.01267  Uiso   1.00
H1     H     0.81550   0.40300   0.61800   0.01267  Uiso   1.00
H2     H     0.64320   0.64040   0.87840   0.01267  Uiso   1.00
H3     H     0.80430   0.04870   0.76440   0.01267  Uiso   1.00
H4     H     0.75640   0.21020   0.02520   0.01267  Uiso   1.00
H5     H     0.04680   0.39510   0.65700   0.01267  Uiso   1.00
H6     H     0.38240   0.53640   0.79040   0.01267  Uiso   1.00
H7     H     0.46750   0.72770   0.12480   0.01267  Uiso   1.00
H8     H     0.87720   0.11460   0.38920   0.01267  Uiso   1.00
H9     H     0.46540   0.05120   0.87020   0.01267  Uiso   1.00
H10    H     0.35340   0.01970   0.79360   0.01267  Uiso   1.00
H11    H     0.32200   0.74170   0.37880   0.01267  Uiso   1.00
H12    H     0.84090   0.55740   0.30420   0.01267  Uiso   1.00
H13    H     0.10060   0.78820   0.36440   0.01267  Uiso   1.00
H14    H     0.12350   0.96640   0.68500   0.01267  Uiso   1.00
H15    H     0.84470   0.78040   0.87420   0.01267  Uiso   1.00
H16    H     0.51510   0.80350   0.75880   0.01267  Uiso   1.00
H17    H     0.65530   0.90620   0.12580   0.01267  Uiso   1.00
H18    H     0.14320   0.23800   0.87840   0.01267  Uiso   1.00
H19    H     0.54680   0.26190   0.65700   0.01267  Uiso   1.00
H20    H     0.03250   0.60290   0.87520   0.01267  Uiso   1.00
H21    H     0.45920   0.73120   0.26180   0.01267  Uiso   1.00
H22    H     0.97230   0.89740   0.11060   0.01267  Uiso   1.00
H23    H     0.62180   0.71540   0.82060   0.01267  Uiso   1.00
H24    H     0.95920   0.53060   0.26180   0.01267  Uiso   1.00
H25    H     0.83510   0.77270   0.20140   0.01267  Uiso   1.00
H26    H     0.37820   0.28460   0.17940   0.01267  Uiso   1.00
H27    H     0.69750   0.77850   0.16420   0.01267  Uiso   1.00
H28    H     0.25640   0.81500   0.02520   0.01267  Uiso   1.00
H29    H     0.95320   0.60490   0.34300   0.01267  Uiso   1.00
H30    H     0.31550   0.21500   0.61800   0.01267  Uiso   1.00
H31    H     0.86930   0.40610   0.18140   0.01267  Uiso   1.00
H32    H     0.75160   0.67840   0.97980   0.01267  Uiso   1.00
H33    H     0.64830   0.12220   0.34140   0.01267  Uiso   1.00
H34    H     0.80450   0.54330   0.75400   0.01267  Uiso   1.00
H35    H     0.34470   0.09380   0.87420   0.01267  Uiso   1.00
H36    H     0.13940   0.72370   0.86840   0.01267  Uiso   1.00
H37    H     0.62280   0.72540   0.61080   0.01267  Uiso   1.00
H38    H     0.01510   0.95530   0.75880   0.01267  Uiso   1.00
H39    H     0.50310   0.57360   0.26680   0.01267  Uiso   1.00
H40    H     0.30250   0.22150   0.83580   0.01267  Uiso   1.00
H41    H     0.98940   0.79150   0.72260   0.01267  Uiso   1.00
H42    H     0.48490   0.19650   0.24120   0.01267  Uiso   1.00
H43    H     0.04080   0.46940   0.73820   0.01267  Uiso   1.00
H44    H     0.88240   0.25400   0.79040   0.01267  Uiso   1.00
H45    H     0.87820   0.89480   0.17940   0.01267  Uiso   1.00
H46    H     0.99170   0.71670   0.35220   0.01267  Uiso   1.00
H47    H     0.29570   0.55040   0.34060   0.01267  Uiso   1.00
H48    H     0.02920   0.66580   0.12060   0.01267  Uiso   1.00
H49    H     0.47080   0.54520   0.87940   0.01267  Uiso   1.00
H50    H     0.97560   0.11550   0.32340   0.01267  Uiso   1.00
H51    H     0.03460   0.18100   0.12980   0.01267  Uiso   1.00
H52    H     0.65910   0.25320   0.69580   0.01267  Uiso   1.00
H53    H     0.52440   0.79210   0.67660   0.01267  Uiso   1.00
H54    H     0.19800   0.69660   0.64960   0.01267  Uiso   1.00
H55    H     0.89940   0.21180   0.63560   0.01267  Uiso   1.00
H56    H     0.36250   0.60250   0.87220   0.01267  Uiso   1.00
H57    H     0.80200   0.30340   0.35040   0.01267  Uiso   1.00
H58    H     0.63750   0.39750   0.12780   0.01267  Uiso   1.00
H59    H     0.25160   0.30140   0.97980   0.01267  Uiso   1.00
H60    H     0.96540   0.81900   0.87020   0.01267  Uiso   1.00
H61    H     0.47560   0.20790   0.32340   0.01267  Uiso   1.00
H62    H     0.34090   0.74680   0.30420   0.01267  Uiso   1.00
H63    H     0.68450   0.78500   0.38200   0.01267  Uiso   1.00
H64    H     0.51060   0.06890   0.27740   0.01267  Uiso   1.00
H65    H     0.49420   0.13560   0.36000   0.01267  Uiso   1.00
H66    H     0.17800   0.36290   0.62120   0.01267  Uiso   1.00
H67    H     0.15530   0.21960   0.12580   0.01267  Uiso   1.00
H68    H     0.13070   0.59390   0.81860   0.01267  Uiso   1.00
H69    H     0.79570   0.79020   0.34060   0.01267  Uiso   1.00
H70    H     0.65630   0.07730   0.78700   0.01267  Uiso   1.00
H71    H     0.67800   0.25830   0.62120   0.01267  Uiso   1.00
H72    H     0.64660   0.98030   0.20640   0.01267  Uiso   1.00
H73    H     0.15630   0.70970   0.78700   0.01267  Uiso   1.00
H74    H     0.19570   0.95130   0.23560   0.01267  Uiso   1.00
H75    H     0.36060   0.85530   0.13160   0.01267  Uiso   1.00
H76    H     0.30810   0.71030   0.83920   0.01267  Uiso   1.00
H77    H     0.67340   0.30550   0.37960   0.01267  Uiso   1.00
H78    H     0.47230   0.21320   0.11060   0.01267  Uiso   1.00
H79    H     0.13750   0.73030   0.12780   0.01267  Uiso   1.00
H80    H     0.61760   0.46360   0.20960   0.01267  Uiso   1.00
H81    H     0.74360   0.18500   0.97480   0.01267  Uiso   1.00
H82    H     0.32660   0.69450   0.62040   0.01267  Uiso   1.00
H83    H     0.01060   0.20850   0.27740   0.01267  Uiso   1.00
H84    H     0.49690   0.42640   0.73320   0.01267  Uiso   1.00
H85    H     0.69570   0.28430   0.23560   0.01267  Uiso   1.00
H86    H     0.15910   0.44260   0.69580   0.01267  Uiso   1.00
H87    H     0.37720   0.27460   0.38920   0.01267  Uiso   1.00
H88    H     0.63070   0.22470   0.81860   0.01267  Uiso   1.00
H89    H     0.24360   0.78980   0.97480   0.01267  Uiso   1.00
H90    H     0.53460   0.94880   0.12980   0.01267  Uiso   1.00
H91    H     0.37650   0.28140   0.31500   0.01267  Uiso   1.00
H92    H     0.86250   0.26970   0.87220   0.01267  Uiso   1.00
H93    H     0.34370   0.92270   0.21300   0.01267  Uiso   1.00
H94    H     0.12280   0.88540   0.61080   0.01267  Uiso   1.00
H95    H     0.96750   0.39710   0.12480   0.01267  Uiso   1.00
H96    H     0.12180   0.10520   0.82060   0.01267  Uiso   1.00
H97    H     0.36930   0.77530   0.18140   0.01267  Uiso   1.00
H98    H     0.14830   0.21920   0.34140   0.01267  Uiso   1.00
H99    H     0.85170   0.78080   0.65860   0.01267  Uiso   1.00
H100   H     0.63940   0.14470   0.86840   0.01267  Uiso   1.00
H101   H     0.16490   0.22730   0.79860   0.01267  Uiso   1.00
H102   H     0.99690   0.30680   0.73320   0.01267  Uiso   1.00
H103   H     0.97080   0.33420   0.87940   0.01267  Uiso   1.00
H104   H     0.80250   0.61430   0.83580   0.01267  Uiso   1.00
H105   H     0.69800   0.95300   0.64960   0.01267  Uiso   1.00
H106   H     0.74840   0.69860   0.02020   0.01267  Uiso   1.00
H107   H     0.82200   0.63710   0.37880   0.01267  Uiso   1.00
H108   H     0.35680   0.35960   0.12160   0.01267  Uiso   1.00
H109   H     0.86060   0.27630   0.13160   0.01267  Uiso   1.00
H110   H     0.62350   0.71860   0.68500   0.01267  Uiso   1.00
H111   H     0.45320   0.73810   0.34300   0.01267  Uiso   1.00
H112   H     0.85340   0.77390   0.79360   0.01267  Uiso   1.00
H113   H     0.54080   0.26880   0.73820   0.01267  Uiso   1.00
H114   H     0.02440   0.88450   0.67660   0.01267  Uiso   1.00
H115   H     0.52770   0.78680   0.88940   0.01267  Uiso   1.00
H116   H     0.30450   0.21070   0.75400   0.01267  Uiso   1.00
H117   H     0.14660   0.22610   0.20640   0.01267  Uiso   1.00
H118   H     0.98490   0.04470   0.24120   0.01267  Uiso   1.00
H119   H     0.19750   0.38570   0.16420   0.01267  Uiso   1.00
H120   H     0.30430   0.71570   0.76440   0.01267  Uiso   1.00
H121   H     0.19550   0.45670   0.24600   0.01267  Uiso   1.00
H122   H     0.20430   0.20980   0.65940   0.01267  Uiso   1.00
H123   H     0.50830   0.36450   0.64780   0.01267  Uiso   1.00
H124   H     0.50580   0.86440   0.64000   0.01267  Uiso   1.00
H125   H     0.66490   0.57130   0.79860   0.01267  Uiso   1.00
H126   H     0.35170   0.87780   0.65860   0.01267  Uiso   1.00
H127   H     0.00580   0.77560   0.64000   0.01267  Uiso   1.00
H128   H     0.84370   0.29030   0.21300   0.01267  Uiso   1.00
H129   H     0.30200   0.04700   0.35040   0.01267  Uiso   1.00
H130   H     0.02770   0.10260   0.88940   0.01267  Uiso   1.00
H131   H     0.00830   0.28330   0.64780   0.01267  Uiso   1.00
H132   H     0.24840   0.32160   0.02020   0.01267  Uiso   1.00
H133   H     0.00310   0.69320   0.26680   0.01267  Uiso   1.00
H134   H     0.52920   0.45480   0.12060   0.01267  Uiso   1.00
H135   H     0.11760   0.74600   0.20960   0.01267  Uiso   1.00
H136   H     0.18450   0.59700   0.38200   0.01267  Uiso   1.00
H137   H     0.33510   0.42870   0.20140   0.01267  Uiso   1.00
H138   H     0.80810   0.12890   0.83920   0.01267  Uiso   1.00
H139   H     0.99420   0.22440   0.36000   0.01267  Uiso   1.00
H140   H     0.53250   0.27230   0.87520   0.01267  Uiso   1.00
H141   H     0.69190   0.28970   0.16080   0.01267  Uiso   1.00
H142   H     0.87650   0.03360   0.31500   0.01267  Uiso   1.00
H143   H     0.70430   0.44960   0.65940   0.01267  Uiso   1.00
H144   H     0.19190   0.87110   0.16080   0.01267  Uiso   1.00
H145   H     0.39940   0.42380   0.63560   0.01267  Uiso   1.00
H146   H     0.85680   0.76200   0.12160   0.01267  Uiso   1.00
H147   H     0.17340   0.07410   0.37960   0.01267  Uiso   1.00
H148   H     0.60060   0.57620   0.36440   0.01267  Uiso   1.00
H149   H     0.82660   0.92590   0.62040   0.01267  Uiso   1.00
H150   H     0.49170   0.63550   0.35220   0.01267  Uiso   1.00
H151   H     0.69550   0.78930   0.24600   0.01267  Uiso   1.00
H152   H     0.48940   0.93110   0.72260   0.01267  Uiso   1.00
C1     C     0.84570   0.28370   0.33580   0.01267  Uiso   1.00
C2     C     0.80510   0.76310   0.80000   0.01267  Uiso   1.00
C3     C     0.58230   0.24810   0.26600   0.01267  Uiso   1.00
C4     C     0.17050   0.94760   0.67900   0.01267  Uiso   1.00
C5     C     0.98610   0.59060   0.85000   0.01267  Uiso   1.00
C6     C     0.61130   0.60770   0.86300   0.01267  Uiso   1.00
C7     C     0.73890   0.74400   0.76280   0.01267  Uiso   1.00
C8     C     0.08280   0.75240   0.73160   0.01267  Uiso   1.00
C9     C     0.04200   0.76280   0.65780   0.01267  Uiso   1.00
C10    C     0.24310   0.60286   0.85292   0.01267  Uiso   1.00
C11    C     0.34570   0.05210   0.33580   0.01267  Uiso   1.00
C12    C     0.42680   0.97615   0.21650   0.01267  Uiso   1.00
C13    C     0.41550   0.75200   0.78320   0.01267  Uiso   1.00
C14    C     0.76300   0.12804   0.37208   0.01267  Uiso   1.00
C15    C     0.11130   0.25530   0.86300   0.01267  Uiso   1.00
C16    C     0.80380   0.76820   0.66400   0.01267  Uiso   1.00
C17    C     0.07410   0.10170   0.35960   0.01267  Uiso   1.00
C18    C     0.78130   0.85010   0.09260   0.01267  Uiso   1.00
C19    C     0.54830   0.10527   0.87714   0.01267  Uiso   1.00
C20    C     0.41720   0.02080   0.26840   0.01267  Uiso   1.00
C21    C     0.27090   0.47590   0.70900   0.01267  Uiso   1.00
C22    C     0.10690   0.74030   0.85260   0.01267  Uiso   1.00
C23    C     0.57730   0.25767   0.08214   0.01267  Uiso   1.00
C24    C     0.91720   0.24760   0.26840   0.01267  Uiso   1.00
C25    C     0.80010   0.76660   0.84760   0.01267  Uiso   1.00
C26    C     0.11810   0.73290   0.80500   0.01267  Uiso   1.00
C27    C     0.73910   0.76313   0.58186   0.01267  Uiso   1.00
C28    C     0.16980   0.74950   0.20260   0.01267  Uiso   1.00
C29    C     0.49550   0.25590   0.71220   0.01267  Uiso   1.00
C30    C     0.16970   0.89950   0.63540   0.01267  Uiso   1.00
C31    C     0.44770   0.39826   0.11272   0.01267  Uiso   1.00
C32    C     0.28130   0.24250   0.09260   0.01267  Uiso   1.00
C33    C     0.27370   0.73785   0.09450   0.01267  Uiso   1.00
C34    C     0.57840   0.75920   0.23020   0.01267  Uiso   1.00
C35    C     0.07380   0.51960   0.28080   0.01267  Uiso   1.00
C36    C     0.40740   0.52430   0.25660   0.01267  Uiso   1.00
C37    C     0.64750   0.27360   0.16600   0.01267  Uiso   1.00
C38    C     0.75690   0.39714   0.14708   0.01267  Uiso   1.00
C39    C     0.45800   0.10500   0.34220   0.01267  Uiso   1.00
C40    C     0.38870   0.39230   0.13700   0.01267  Uiso   1.00
C41    C     0.51390   0.74060   0.15000   0.01267  Uiso   1.00
C42    C     0.10940   0.24600   0.64600   0.01267  Uiso   1.00
C43    C     0.20910   0.43740   0.68340   0.01267  Uiso   1.00
C44    C     0.21870   0.14990   0.90740   0.01267  Uiso   1.00
C45    C     0.45170   0.89473   0.12286   0.01267  Uiso   1.00
C46    C     0.33020   0.54690   0.79740   0.01267  Uiso   1.00
C47    C     0.35080   0.22420   0.77940   0.01267  Uiso   1.00
C48    C     0.07730   0.82447   0.08214   0.01267  Uiso   1.00
C49    C     0.00450   0.54370   0.28780   0.01267  Uiso   1.00
C50    C     0.48610   0.25940   0.85000   0.01267  Uiso   1.00
C51    C     0.41840   0.48050   0.20480   0.01267  Uiso   1.00
C52    C     0.88870   0.74470   0.13700   0.01267  Uiso   1.00
C53    C     0.65430   0.94790   0.66420   0.01267  Uiso   1.00
C54    C     0.60760   0.90120   0.63540   0.01267  Uiso   1.00
C55    C     0.32950   0.26860   0.32100   0.01267  Uiso   1.00
C56    C     0.39060   0.60000   0.35400   0.01267  Uiso   1.00
C57    C     0.35060   0.42640   0.64900   0.01267  Uiso   1.00
C58    C     0.57860   0.75836   0.08972   0.01267  Uiso   1.00
C59    C     0.93000   0.39020   0.62920   0.01267  Uiso   1.00
C60    C     0.88190   0.26710   0.19500   0.01267  Uiso   1.00
C61    C     0.71980   0.24870   0.63900   0.01267  Uiso   1.00
C62    C     0.08100   0.38150   0.14000   0.01267  Uiso   1.00
C63    C     0.73820   0.74500   0.71320   0.01267  Uiso   1.00
C64    C     0.42590   0.74210   0.64040   0.01267  Uiso   1.00
C65    C     0.73700   0.75596   0.62792   0.01267  Uiso   1.00
C66    C     0.42160   0.24080   0.76980   0.01267  Uiso   1.00
C67    C     0.46140   0.56870   0.28280   0.01267  Uiso   1.00
C68    C     0.26090   0.23687   0.41814   0.01267  Uiso   1.00
C69    C     0.10760   0.73420   0.63540   0.01267  Uiso   1.00
C70    C     0.42620   0.23880   0.71920   0.01267  Uiso   1.00
C71    C     0.81810   0.41970   0.18700   0.01267  Uiso   1.00
C72    C     0.71870   0.75750   0.90740   0.01267  Uiso   1.00
C73    C     0.50450   0.74410   0.28780   0.01267  Uiso   1.00
C74    C     0.89310   0.25970   0.14740   0.01267  Uiso   1.00
C75    C     0.53860   0.43130   0.71720   0.01267  Uiso   1.00
C76    C     0.31810   0.76730   0.18700   0.01267  Uiso   1.00
C77    C     0.25690   0.74994   0.14708   0.01267  Uiso   1.00
C78    C     0.78020   0.60970   0.36100   0.01267  Uiso   1.00
C79    C     0.96140   0.71410   0.28280   0.01267  Uiso   1.00
C80    C     0.85250   0.10760   0.83400   0.01267  Uiso   1.00
C81    C     0.23820   0.96820   0.71320   0.01267  Uiso   1.00
C82    C     0.41770   0.75190   0.73400   0.01267  Uiso   1.00
C83    C     0.66120   0.44500   0.67460   0.01267  Uiso   1.00
C84    C     0.85110   0.59820   0.82640   0.01267  Uiso   1.00
C85    C     0.11840   0.22810   0.59040   0.01267  Uiso   1.00
C86    C     0.15430   0.71630   0.66420   0.01267  Uiso   1.00
C87    C     0.29090   0.75400   0.31660   0.01267  Uiso   1.00
C88    C     0.76480   0.23720   0.75960   0.01267  Uiso   1.00
C89    C     0.04830   0.77187   0.87714   0.01267  Uiso   1.00
C90    C     0.92590   0.89830   0.64040   0.01267  Uiso   1.00
C91    C     0.00570   0.79695   0.85330   0.01267  Uiso   1.00
C92    C     0.58160   0.51950   0.79520   0.01267  Uiso   1.00
C93    C     0.64970   0.27080   0.21000   0.01267  Uiso   1.00
C94    C     0.62520   0.56650   0.81600   0.01267  Uiso   1.00
C95    C     0.63430   0.28310   0.35120   0.01267  Uiso   1.00
C96    C     0.85080   0.55520   0.77940   0.01267  Uiso   1.00
C97    C     0.76090   0.18127   0.41814   0.01267  Uiso   1.00
C98    C     0.77090   0.23310   0.70900   0.01267  Uiso   1.00
C99    C     0.66980   0.45310   0.20260   0.01267  Uiso   1.00
C100   C     0.57000   0.76100   0.37080   0.01267  Uiso   1.00
C101   C     0.82950   0.05240   0.32100   0.01267  Uiso   1.00
C102   C     0.43320   0.73116   0.58732   0.01267  Uiso   1.00
C103   C     0.69490   0.96310   0.20000   0.01267  Uiso   1.00
C104   C     0.36320   0.22550   0.64220   0.01267  Uiso   1.00
C105   C     0.76110   0.98120   0.23720   0.01267  Uiso   1.00
C106   C     0.26480   0.52240   0.75960   0.01267  Uiso   1.00
C107   C     0.22630   0.64335   0.90550   0.01267  Uiso   1.00
C108   C     0.66930   0.72882   0.81564   0.01267  Uiso   1.00
C109   C     0.14750   0.89240   0.16600   0.01267  Uiso   1.00
C110   C     0.19490   0.23690   0.20000   0.01267  Uiso   1.00
C111   C     0.55230   0.60174   0.88728   0.01267  Uiso   1.00
C112   C     0.13430   0.06810   0.35120   0.01267  Uiso   1.00
C113   C     0.57380   0.76120   0.28080   0.01267  Uiso   1.00
C114   C     0.03170   0.77683   0.92786   0.01267  Uiso   1.00
C115   C     0.93320   0.85616   0.58732   0.01267  Uiso   1.00
C116   C     0.41900   0.24150   0.86000   0.01267  Uiso   1.00
C117   C     0.43290   0.23810   0.57920   0.01267  Uiso   1.00
C118   C     0.64940   0.57360   0.35100   0.01267  Uiso   1.00
C119   C     0.42140   0.24164   0.91028   0.01267  Uiso   1.00
C120   C     0.61810   0.07210   0.80500   0.01267  Uiso   1.00
C121   C     0.98200   0.90740   0.68140   0.01267  Uiso   1.00
C122   C     0.68120   0.41330   0.15480   0.01267  Uiso   1.00
C123   C     0.68190   0.23270   0.81300   0.01267  Uiso   1.00
C124   C     0.99430   0.20305   0.14670   0.01267  Uiso   1.00
C125   C     0.16120   0.22960   0.67460   0.01267  Uiso   1.00
C126   C     0.01110   0.31177   0.86294   0.01267  Uiso   1.00
C127   C     0.35250   0.72640   0.83400   0.01267  Uiso   1.00
C128   C     0.79090   0.56260   0.31660   0.01267  Uiso   1.00
C129   C     0.91840   0.72430   0.20480   0.01267  Uiso   1.00
C130   C     0.19130   0.76075   0.42550   0.01267  Uiso   1.00
C131   C     0.18120   0.74150   0.15480   0.01267  Uiso   1.00
C132   C     0.52240   0.21970   0.27020   0.01267  Uiso   1.00
C133   C     0.95350   0.72680   0.33280   0.01267  Uiso   1.00
C134   C     0.01390   0.40940   0.15000   0.01267  Uiso   1.00
C135   C     0.83030   0.10050   0.36460   0.01267  Uiso   1.00
C136   C     0.03210   0.77170   0.70660   0.01267  Uiso   1.00
C137   C     0.08450   0.96880   0.21680   0.01267  Uiso   1.00
C138   C     0.86570   0.93190   0.64880   0.01267  Uiso   1.00
C139   C     0.30010   0.08100   0.84760   0.01267  Uiso   1.00
C140   C     0.79260   0.23700   0.62200   0.01267  Uiso   1.00
C141   C     0.97760   0.94950   0.72980   0.01267  Uiso   1.00
C142   C     0.14970   0.93920   0.21000   0.01267  Uiso   1.00
C143   C     0.67050   0.73140   0.67900   0.01267  Uiso   1.00
C144   C     0.54200   0.89500   0.65780   0.01267  Uiso   1.00
C145   C     0.49780   0.25350   0.66480   0.01267  Uiso   1.00
C146   C     0.83020   0.25050   0.79740   0.01267  Uiso   1.00
C147   C     0.73020   0.74969   0.85538   0.01267  Uiso   1.00
C148   C     0.38190   0.92790   0.19500   0.01267  Uiso   1.00
C149   C     0.48890   0.44883   0.13706   0.01267  Uiso   1.00
C150   C     0.53170   0.15103   0.92786   0.01267  Uiso   1.00
C151   C     0.66970   0.73590   0.63540   0.01267  Uiso   1.00
C152   C     0.26110   0.25600   0.23720   0.01267  Uiso   1.00
C153   C     0.94770   0.71446   0.11272   0.01267  Uiso   1.00
C154   C     0.70740   0.61500   0.37800   0.01267  Uiso   1.00
C155   C     0.58280   0.97920   0.73160   0.01267  Uiso   1.00
C156   C     0.23890   0.01880   0.76280   0.01267  Uiso   1.00
C157   C     0.64920   0.77580   0.22060   0.01267  Uiso   1.00
C158   C     0.23910   0.81873   0.58186   0.01267  Uiso   1.00
C159   C     0.99550   0.45630   0.71220   0.01267  Uiso   1.00
C160   C     0.96790   0.22830   0.29340   0.01267  Uiso   1.00
C161   C     0.53210   0.93490   0.70660   0.01267  Uiso   1.00
C162   C     0.96700   0.71119   0.06378   0.01267  Uiso   1.00
C163   C     0.33030   0.26410   0.36460   0.01267  Uiso   1.00
C164   C     0.76180   0.03180   0.28680   0.01267  Uiso   1.00
C165   C     0.57320   0.02385   0.78350   0.01267  Uiso   1.00
C166   C     0.47760   0.78030   0.72980   0.01267  Uiso   1.00
C167   C     0.16930   0.08682   0.81564   0.01267  Uiso   1.00
C168   C     0.61840   0.36230   0.59040   0.01267  Uiso   1.00
C169   C     0.91880   0.12416   0.87072   0.01267  Uiso   1.00
C170   C     0.30380   0.89580   0.66400   0.01267  Uiso   1.00
C171   C     0.72910   0.52410   0.29100   0.01267  Uiso   1.00
C172   C     0.85030   0.06080   0.79000   0.01267  Uiso   1.00
C173   C     0.81880   0.25850   0.84520   0.01267  Uiso   1.00
C174   C     0.14890   0.40180   0.17360   0.01267  Uiso   1.00
C175   C     0.91550   0.03120   0.78320   0.01267  Uiso   1.00
C176   C     0.37480   0.43350   0.18400   0.01267  Uiso   1.00
C177   C     0.43000   0.23900   0.62920   0.01267  Uiso   1.00
C178   C     0.14940   0.77740   0.35100   0.01267  Uiso   1.00
C179   C     0.64890   0.77180   0.17360   0.01267  Uiso   1.00
C180   C     0.22910   0.76690   0.29100   0.01267  Uiso   1.00
C181   C     0.46790   0.06510   0.29340   0.01267  Uiso   1.00
C182   C     0.19620   0.23180   0.33600   0.01267  Uiso   1.00
C183   C     0.74310   0.25006   0.85292   0.01267  Uiso   1.00
C184   C     0.88160   0.77190   0.40960   0.01267  Uiso   1.00
C185   C     0.41880   0.74656   0.87072   0.01267  Uiso   1.00
C186   C     0.59260   0.47570   0.74340   0.01267  Uiso   1.00
C187   C     0.96830   0.22317   0.07214   0.01267  Uiso   1.00
C188   C     0.69620   0.10420   0.33600   0.01267  Uiso   1.00
C189   C     0.03860   0.28590   0.71720   0.01267  Uiso   1.00
C190   C     0.00220   0.58870   0.33520   0.01267  Uiso   1.00
C191   C     0.90740   0.73230   0.25660   0.01267  Uiso   1.00
C192   C     0.04650   0.27320   0.66720   0.01267  Uiso   1.00
C193   C     0.13680   0.58330   0.35780   0.01267  Uiso   1.00
C194   C     0.63680   0.77450   0.35780   0.01267  Uiso   1.00
C195   C     0.95170   0.22813   0.12286   0.01267  Uiso   1.00
C196   C     0.51770   0.22796   0.13652   0.01267  Uiso   1.00
C197   C     0.07840   0.47100   0.23020   0.01267  Uiso   1.00
C198   C     0.76980   0.89431   0.14462   0.01267  Uiso   1.00
C199   C     0.06680   0.14384   0.41268   0.01267  Uiso   1.00
C200   C     0.28020   0.75130   0.36100   0.01267  Uiso   1.00
C201   C     0.98230   0.09144   0.86348   0.01267  Uiso   1.00
C202   C     0.07860   0.33136   0.08972   0.01267  Uiso   1.00
C203   C     0.30510   0.03690   0.80000   0.01267  Uiso   1.00
C204   C     0.09260   0.26770   0.74340   0.01267  Uiso   1.00
C205   C     0.80870   0.23925   0.57450   0.01267  Uiso   1.00
C206   C     0.19990   0.23340   0.15240   0.01267  Uiso   1.00
C207   C     0.45350   0.60600   0.33280   0.01267  Uiso   1.00
C208   C     0.69990   0.91900   0.15240   0.01267  Uiso   1.00
C209   C     0.60940   0.40000   0.64600   0.01267  Uiso   1.00
C210   C     0.05230   0.28554   0.88728   0.01267  Uiso   1.00
C211   C     0.92620   0.48040   0.71920   0.01267  Uiso   1.00
C212   C     0.91900   0.61850   0.86000   0.01267  Uiso   1.00
C213   C     0.46700   0.35259   0.06378   0.01267  Uiso   1.00
C214   C     0.01800   0.09260   0.31860   0.01267  Uiso   1.00
C215   C     0.98890   0.68823   0.13706   0.01267  Uiso   1.00
C216   C     0.49430   0.94365   0.14670   0.01267  Uiso   1.00
C217   C     0.83880   0.77040   0.32540   0.01267  Uiso   1.00
C218   C     0.39240   0.09880   0.36460   0.01267  Uiso   1.00
C219   C     0.70910   0.24600   0.68340   0.01267  Uiso   1.00
C220   C     0.08120   0.87584   0.12928   0.01267  Uiso   1.00
C221   C     0.86320   0.41670   0.64220   0.01267  Uiso   1.00
C222   C     0.26980   0.25031   0.14462   0.01267  Uiso   1.00
C223   C     0.92270   0.17553   0.91786   0.01267  Uiso   1.00
C224   C     0.48200   0.77400   0.68140   0.01267  Uiso   1.00
C225   C     0.06710   0.65890   0.42080   0.01267  Uiso   1.00
C226   C     0.87480   0.75050   0.18400   0.01267  Uiso   1.00
C227   C     0.87860   0.27640   0.41640   0.01267  Uiso   1.00
C228   C     0.51110   0.55117   0.86294   0.01267  Uiso   1.00
C229   C     0.56680   0.26884   0.41268   0.01267  Uiso   1.00
C230   C     0.31880   0.58670   0.84520   0.01267  Uiso   1.00
C231   C     0.20740   0.76300   0.37800   0.01267  Uiso   1.00
C232   C     0.48230   0.77204   0.86348   0.01267  Uiso   1.00
C233   C     0.07320   0.75965   0.78350   0.01267  Uiso   1.00
C234   C     0.92160   0.52900   0.76980   0.01267  Uiso   1.00
C235   C     0.60690   0.11230   0.85260   0.01267  Uiso   1.00
C236   C     0.33880   0.55500   0.32540   0.01267  Uiso   1.00
C237   C     0.58100   0.75850   0.14000   0.01267  Uiso   1.00
C238   C     0.08230   0.01790   0.26600   0.01267  Uiso   1.00
C239   C     0.72630   0.26215   0.90550   0.01267  Uiso   1.00
C240   C     0.39310   0.88770   0.14740   0.01267  Uiso   1.00
C241   C     0.56710   0.76190   0.42080   0.01267  Uiso   1.00
C242   C     0.95800   0.23720   0.34220   0.01267  Uiso   1.00
C243   C     0.46830   0.84897   0.07214   0.01267  Uiso   1.00
C244   C     0.93290   0.34110   0.57920   0.01267  Uiso   1.00
C245   C     0.33070   0.27118   0.18436   0.01267  Uiso   1.00
C246   C     0.91770   0.98210   0.73400   0.01267  Uiso   1.00
C247   C     0.29260   0.38500   0.62200   0.01267  Uiso   1.00
C248   C     0.89060   0.75400   0.35400   0.01267  Uiso   1.00
C249   C     0.03300   0.28881   0.93622   0.01267  Uiso   1.00
C250   C     0.23520   0.76280   0.24040   0.01267  Uiso   1.00
C251   C     0.50220   0.74650   0.33520   0.01267  Uiso   1.00
C252   C     0.18190   0.58030   0.81300   0.01267  Uiso   1.00
C253   C     0.50570   0.05635   0.85330   0.01267  Uiso   1.00
C254   C     0.21980   0.39030   0.63900   0.01267  Uiso   1.00
C255   C     0.85060   0.22260   0.64900   0.01267  Uiso   1.00
C256   C     0.23020   0.10569   0.85538   0.01267  Uiso   1.00
C257   C     0.77370   0.35665   0.09450   0.01267  Uiso   1.00
C258   C     0.51800   0.22600   0.31860   0.01267  Uiso   1.00
C259   C     0.36570   0.71690   0.64880   0.01267  Uiso   1.00
C260   C     0.14920   0.44480   0.22060   0.01267  Uiso   1.00
C261   C     0.26180   0.25500   0.28680   0.01267  Uiso   1.00
C262   C     0.83070   0.91318   0.18436   0.01267  Uiso   1.00
C263   C     0.30870   0.33525   0.57450   0.01267  Uiso   1.00
C264   C     0.26300   0.24404   0.37208   0.01267  Uiso   1.00
C265   C     0.62140   0.86000   0.58360   0.01267  Uiso   1.00
C266   C     0.54650   0.39400   0.66720   0.01267  Uiso   1.00
C267   C     0.57410   0.25790   0.35960   0.01267  Uiso   1.00
C268   C     0.01770   0.90856   0.13652   0.01267  Uiso   1.00
C269   C     0.37860   0.14000   0.41640   0.01267  Uiso   1.00
C270   C     0.73520   0.47760   0.24040   0.01267  Uiso   1.00
C271   C     0.35110   0.22820   0.82640   0.01267  Uiso   1.00
C272   C     0.53300   0.64741   0.93622   0.01267  Uiso   1.00
C273   C     0.42270   0.74233   0.91786   0.01267  Uiso   1.00
C274   C     0.92140   0.66864   0.91028   0.01267  Uiso   1.00
C275   C     0.12520   0.24950   0.81600   0.01267  Uiso   1.00
C276   C     0.58450   0.24800   0.21680   0.01267  Uiso   1.00
C277   C     0.02240   0.05050   0.27020   0.01267  Uiso   1.00
C278   C     0.35030   0.72920   0.79000   0.01267  Uiso   1.00
C279   C     0.08160   0.27570   0.79520   0.01267  Uiso   1.00
C280   C     0.12140   0.72360   0.58360   0.01267  Uiso   1.00
C281   C     0.58120   0.25344   0.12928   0.01267  Uiso   1.00
C282   C     0.23700   0.87196   0.62792   0.01267  Uiso   1.00
C283   C     0.99780   0.41130   0.66480   0.01267  Uiso   1.00
C284   C     0.07000   0.60980   0.37080   0.01267  Uiso   1.00
C285   C     0.89240   0.26580   0.36460   0.01267  Uiso   1.00
C286   C     0.38160   0.63770   0.40960   0.01267  Uiso   1.00
C287   C     0.69130   0.66475   0.42550   0.01267  Uiso   1.00
C288   C     0.92680   0.24035   0.21650   0.01267  Uiso   1.00
N1     N     0.34560   0.51729   0.27718   0.01267  Uiso   1.00
N2     N     0.01750   0.79215   0.80750   0.01267  Uiso   1.00
N3     N     0.98250   0.20785   0.19250   0.01267  Uiso   1.00
N4     N     0.52000   0.22390   0.17940   0.01267  Uiso   1.00
N5     N     0.15820   0.77700   0.30620   0.01267  Uiso   1.00
N6     N     0.14430   0.72397   0.71094   0.01267  Uiso   1.00
N7     N     0.80990   0.46040   0.23400   0.01267  Uiso   1.00
N8     N     0.52520   0.51092   0.81784   0.01267  Uiso   1.00
N9     N     0.19480   0.23640   0.29380   0.01267  Uiso   1.00
N10    N     0.65820   0.52920   0.30620   0.01267  Uiso   1.00
N11    N     0.15440   0.24011   0.72282   0.01267  Uiso   1.00
N12    N     0.35570   0.01303   0.28906   0.01267  Uiso   1.00
N13    N     0.51330   0.74100   0.19520   0.01267  Uiso   1.00
N14    N     0.35930   0.72200   0.69420   0.01267  Uiso   1.00
N15    N     0.48250   0.98465   0.19250   0.01267  Uiso   1.00
N16    N     0.65440   0.48271   0.72282   0.01267  Uiso   1.00
N17    N     0.64070   0.27800   0.30580   0.01267  Uiso   1.00
N18    N     0.67160   0.72591   0.76942   0.01267  Uiso   1.00
N19    N     0.85930   0.97220   0.69420   0.01267  Uiso   1.00
N20    N     0.98000   0.04450   0.82060   0.01267  Uiso   1.00
N21    N     0.51750   0.01535   0.80750   0.01267  Uiso   1.00
N22    N     0.84560   0.75989   0.27718   0.01267  Uiso   1.00
N23    N     0.64430   0.98697   0.71094   0.01267  Uiso   1.00
N24    N     0.19010   0.53960   0.76600   0.01267  Uiso   1.00
N25    N     0.85570   0.27603   0.28906   0.01267  Uiso   1.00
N26    N     0.01330   0.45420   0.19520   0.01267  Uiso   1.00
N27    N     0.48670   0.25900   0.80480   0.01267  Uiso   1.00
N28    N     0.02000   0.95550   0.17940   0.01267  Uiso   1.00
N29    N     0.69010   0.22640   0.76600   0.01267  Uiso   1.00
N30    N     0.02520   0.30692   0.81784   0.01267  Uiso   1.00
N31    N     0.69480   0.05740   0.29380   0.01267  Uiso   1.00
N32    N     0.97480   0.69308   0.18216   0.01267  Uiso   1.00
N33    N     0.80520   0.76360   0.70620   0.01267  Uiso   1.00
N34    N     0.14070   0.02780   0.30580   0.01267  Uiso   1.00
N35    N     0.84180   0.22300   0.69380   0.01267  Uiso   1.00
N36    N     0.98670   0.54580   0.80480   0.01267  Uiso   1.00
N37    N     0.32840   0.27409   0.23058   0.01267  Uiso   1.00
N38    N     0.34180   0.47080   0.69380   0.01267  Uiso   1.00
N39    N     0.30520   0.94260   0.70620   0.01267  Uiso   1.00
N40    N     0.47480   0.48908   0.18216   0.01267  Uiso   1.00
N41    N     0.48000   0.77610   0.82060   0.01267  Uiso   1.00
N42    N     0.36030   0.22610   0.68680   0.01267  Uiso   1.00
N43    N     0.13970   0.53930   0.31320   0.01267  Uiso   1.00
N44    N     0.17160   0.04351   0.76942   0.01267  Uiso   1.00
N45    N     0.30990   0.77360   0.23400   0.01267  Uiso   1.00
N46    N     0.82840   0.95649   0.23058   0.01267  Uiso   1.00
N47    N     0.86030   0.46070   0.68680   0.01267  Uiso   1.00
N48    N     0.63970   0.77390   0.31320   0.01267  Uiso   1.00
O1     O     0.38320   0.70053   0.55066   0.01267  Uiso   1.00
O2     O     0.46280   0.64731   0.94602   0.01267  Uiso   1.00
O3     O     0.62920   0.77446   0.45192   0.01267  Uiso   1.00
O4     O     0.80390   0.78327   0.57894   0.01267  Uiso   1.00
O5     O     0.86000   0.20092   0.92464   0.01267  Uiso   1.00
O6     O     0.43600   0.17321   0.44402   0.01267  Uiso   1.00
O7     O     0.72330   0.34806   0.05532   0.01267  Uiso   1.00
O8     O     0.96120   0.78895   0.93990   0.01267  Uiso   1.00
O9     O     0.50360   0.74512   0.42624   0.01267  Uiso   1.00
O10    O     0.88320   0.85013   0.55066   0.01267  Uiso   1.00
O11    O     0.48670   0.75598   0.95016   0.01267  Uiso   1.00
O12    O     0.18680   0.22298   0.57836   0.01267  Uiso   1.00
O13    O     0.49390   0.75500   0.58340   0.01267  Uiso   1.00
O14    O     0.19610   0.21673   0.42106   0.01267  Uiso   1.00
O15    O     0.22330   0.70726   0.05532   0.01267  Uiso   1.00
O16    O     0.03720   0.70129   0.05398   0.01267  Uiso   1.00
O17    O     0.85890   0.69193   0.91906   0.01267  Uiso   1.00
O18    O     0.37080   0.22554   0.54808   0.01267  Uiso   1.00
O19    O     0.99390   0.82840   0.58340   0.01267  Uiso   1.00
O20    O     0.84470   0.82741   0.08962   0.01267  Uiso   1.00
O21    O     0.87790   0.22965   0.56350   0.01267  Uiso   1.00
O22    O     0.96280   0.29871   0.94602   0.01267  Uiso   1.00
O23    O     0.32210   0.24906   0.45132   0.01267  Uiso   1.00
O24    O     0.64110   0.77287   0.08094   0.01267  Uiso   1.00
O25    O     0.17790   0.79774   0.54868   0.01267  Uiso   1.00
O26    O     0.36000   0.72372   0.92464   0.01267  Uiso   1.00
O27    O     0.37790   0.33385   0.56350   0.01267  Uiso   1.00
O28    O     0.16120   0.66459   0.90798   0.01267  Uiso   1.00
O29    O     0.22760   0.21437   0.05554   0.01267  Uiso   1.00
O30    O     0.58720   0.18480   0.95480   0.01267  Uiso   1.00
O31    O     0.81320   0.77702   0.42164   0.01267  Uiso   1.00
O32    O     0.82210   0.20226   0.45132   0.01267  Uiso   1.00
O33    O     0.11680   0.14987   0.44934   0.01267  Uiso   1.00
O34    O     0.46120   0.15095   0.93990   0.01267  Uiso   1.00
O35    O     0.18880   0.70826   0.57052   0.01267  Uiso   1.00
O36    O     0.00610   0.17160   0.41660   0.01267  Uiso   1.00
O37    O     0.58800   0.68134   0.96248   0.01267  Uiso   1.00
O38    O     0.81120   0.29174   0.42948   0.01267  Uiso   1.00
O39    O     0.41280   0.81520   0.04520   0.01267  Uiso   1.00
O40    O     0.94220   0.77956   0.43892   0.01267  Uiso   1.00
O41    O     0.77240   0.78563   0.94446   0.01267  Uiso   1.00
O42    O     0.01420   0.31457   0.05774   0.01267  Uiso   1.00
O43    O     0.51420   0.74317   0.05774   0.01267  Uiso   1.00
O44    O     0.05780   0.22044   0.56108   0.01267  Uiso   1.00
O45    O     0.34470   0.26221   0.08962   0.01267  Uiso   1.00
O46    O     0.41200   0.31866   0.03752   0.01267  Uiso   1.00
O47    O     0.51330   0.24402   0.04984   0.01267  Uiso   1.00
O48    O     0.75000   0.72440   0.00000   0.01267  Uiso   1.00
O49    O     0.49640   0.25488   0.57376   0.01267  Uiso   1.00
O50    O     0.61680   0.29947   0.44934   0.01267  Uiso   1.00
O51    O     0.83880   0.33541   0.09202   0.01267  Uiso   1.00
O52    O     0.27670   0.65194   0.94468   0.01267  Uiso   1.00
O53    O     0.24760   0.74800   0.44740   0.01267  Uiso   1.00
O54    O     0.53880   0.84905   0.06010   0.01267  Uiso   1.00
O55    O     0.01330   0.80582   0.04984   0.01267  Uiso   1.00
O56    O     0.64000   0.27628   0.07536   0.01267  Uiso   1.00
O57    O     0.25000   0.76770   0.00000   0.01267  Uiso   1.00
O58    O     0.98580   0.68543   0.94226   0.01267  Uiso   1.00
O59    O     0.99640   0.31888   0.57376   0.01267  Uiso   1.00
O60    O     0.55780   0.34064   0.56108   0.01267  Uiso   1.00
O61    O     0.48580   0.25683   0.94226   0.01267  Uiso   1.00
O62    O     0.53720   0.35269   0.05398   0.01267  Uiso   1.00
O63    O     0.59970   0.23051   0.49642   0.01267  Uiso   1.00
O64    O     0.75000   0.23230  -0.00000   0.01267  Uiso   1.00
O65    O     0.91200   0.71886   0.03752   0.01267  Uiso   1.00
O66    O     0.14000   0.79908   0.07536   0.01267  Uiso   1.00
O67    O     0.15530   0.17259   0.91038   0.01267  Uiso   1.00
O68    O     0.25240   0.30060   0.55260   0.01267  Uiso   1.00
O69    O     0.87080   0.32254   0.54808   0.01267  Uiso   1.00
O70    O     0.68880   0.86226   0.57052   0.01267  Uiso   1.00
O71    O     0.00360   0.68112   0.42624   0.01267  Uiso   1.00
O72    O     0.91280   0.23000   0.04520   0.01267  Uiso   1.00
O73    O     0.33880   0.75661   0.09202   0.01267  Uiso   1.00
O74    O     0.74760   0.69940   0.44740   0.01267  Uiso   1.00
O75    O     0.14110   0.30807   0.08094   0.01267  Uiso   1.00
O76    O     0.31320   0.64462   0.42164   0.01267  Uiso   1.00
O77    O     0.68680   0.35538   0.57836   0.01267  Uiso   1.00
O78    O     0.12210   0.77035   0.43650   0.01267  Uiso   1.00
O79    O     0.12920   0.67746   0.45192   0.01267  Uiso   1.00
O80    O     0.08800   0.28114   0.96248   0.01267  Uiso   1.00
O81    O     0.25000   0.27560   0.00000   0.01267  Uiso   1.00
O82    O     0.93600   0.27081   0.44402   0.01267  Uiso   1.00
O83    O     0.66120   0.24339   0.90798   0.01267  Uiso   1.00
O84    O     0.09970   0.26591   0.49642   0.01267  Uiso   1.00
O85    O     0.06400   0.72919   0.55598   0.01267  Uiso   1.00
O86    O     0.77670   0.29274   0.94468   0.01267  Uiso   1.00
O87    O     0.40030   0.76949   0.50358   0.01267  Uiso   1.00
O88    O     0.72760   0.84117   0.05554   0.01267  Uiso   1.00
O89    O     0.30390   0.79567   0.57894   0.01267  Uiso   1.00
O90    O     0.62210   0.66615   0.43650   0.01267  Uiso   1.00
O91    O     0.35890   0.22713   0.91906   0.01267  Uiso   1.00
O92    O     0.67790   0.75094   0.54868   0.01267  Uiso   1.00
O93    O     0.98670   0.19418   0.95016   0.01267  Uiso   1.00
O94    O     0.56400   0.82679   0.55598   0.01267  Uiso   1.00
O95    O     0.69610   0.20433   0.42106   0.01267  Uiso   1.00
O96    O     0.65530   0.73779   0.91038   0.01267  Uiso   1.00
O97    O     0.31120   0.13774   0.42948   0.01267  Uiso   1.00
O98    O     0.44220   0.65936   0.43892   0.01267  Uiso   1.00
O99    O     0.27240   0.15883   0.94446   0.01267  Uiso   1.00
O100   O     0.90030   0.73409   0.50358   0.01267  Uiso   1.00
O101   O     0.08720   0.77000   0.95480   0.01267  Uiso   1.00
O102   O     0.03880   0.21105   0.06010   0.01267  Uiso   1.00
O103   O     0.75240   0.25200   0.55260   0.01267  Uiso   1.00
O104   O     0.50610   0.24500   0.41660   0.01267  Uiso   1.00
