data_image0
_cell_length_a       33.914
_cell_length_b       15.135
_cell_length_c       30.963
_cell_angle_alpha    90
_cell_angle_beta     100.727
_cell_angle_gamma    90

_symmetry_space_group_name_H-M    "P 1"
_symmetry_int_tables_number       1

loop_
  _symmetry_equiv_pos_as_xyz
  'x, y, z'

loop_
  _atom_site_label
  _atom_site_occupancy
  _atom_site_fract_x
  _atom_site_fract_y
  _atom_site_fract_z
  _atom_site_thermal_displace_type
  _atom_site_B_iso_or_equiv
  _atom_site_type_symbol
  Zn1      1.0000 0.23080  0.14100  0.03690  Biso   1.000  Zn
  I1       1.0000 0.29156  0.24030  0.06293  Biso   1.000  I
  I2       1.0000 0.18377  0.16720  0.96360  Biso   1.000  I
  N1       1.0000 0.19770  0.15610  0.08890  Biso   1.000  N
  C1       1.0000 0.18260  0.08800  0.10760  Biso   1.000  C
  H1       1.0000 0.18790  0.02980  0.09810  Biso   1.000  H
  C2       1.0000 0.15980  0.09600  0.13970  Biso   1.000  C
  H2       1.0000 0.14930  0.04560  0.15210  Biso   1.000  H
  C3       1.0000 0.15300  0.18000  0.15310  Biso   1.000  C
  C4       1.0000 0.16770  0.25300  0.13470  Biso   1.000  C
  H3       1.0000 0.16300  0.31110  0.14390  Biso   1.000  H
  C5       1.0000 0.18950  0.23700  0.10250  Biso   1.000  C
  H4       1.0000 0.19930  0.28650  0.08890  Biso   1.000  H
  C6       1.0000 0.13050  0.19230  0.18940  Biso   1.000  C
  N2       1.0000 0.10010  0.13640  0.19420  Biso   1.000  N
  C7       1.0000 0.07570  0.15610  0.22320  Biso   1.000  C
  N3       1.0000 0.08170  0.23160  0.24740  Biso   1.000  N
  C8       1.0000 0.11210  0.28740  0.24260  Biso   1.000  C
  N4       1.0000 0.13650  0.26780  0.21370  Biso   1.000  N
  N5       1.0000 0.97350  0.99000  0.22800  Biso   1.000  N
  C9       1.0000 0.98990  0.04300  0.26070  Biso   1.000  C
  H5       1.0000 0.97710  0.04590  0.28550  Biso   1.000  H
  C10      1.0000 0.02330  0.09500  0.26210  Biso   1.000  C
  H6       1.0000 0.03310  0.13070  0.28710  Biso   1.000  H
  C11      1.0000 0.04240  0.09500  0.22660  Biso   1.000  C
  C12      1.0000 0.02740  0.03800  0.19240  Biso   1.000  C
  H7       1.0000 0.04030  0.03280  0.16780  Biso   1.000  H
  C13      1.0000 0.99350  0.99100  0.19480  Biso   1.000  C
  H8       1.0000 0.98320  0.95440  0.17030  Biso   1.000  H
  Zn2      1.0000 0.91890  0.91230  0.23090  Biso   1.000  Zn
  I3       1.0000 0.93390  0.76300  0.20100  Biso   1.000  I
  I4       1.0000 0.88570  0.94770  0.29970  Biso   1.000  I
  N6       1.0000 0.12950  0.52800  0.31580  Biso   1.000  N
  C14      1.0000 0.15510  0.50100  0.29100  Biso   1.000  C
  H9       1.0000 0.17830  0.53580  0.29030  Biso   1.000  H
  C15      1.0000 0.14960  0.42600  0.26640  Biso   1.000  C
  H10      1.0000 0.16860  0.41010  0.24870  Biso   1.000  H
  C16      1.0000 0.11720  0.37200  0.26700  Biso   1.000  C
  C17      1.0000 0.09110  0.40000  0.29300  Biso   1.000  C
  H11      1.0000 0.06840  0.36470  0.29540  Biso   1.000  H
  C18      1.0000 0.09730  0.47800  0.31560  Biso   1.000  C
  H12      1.0000 0.07780  0.49700  0.33190  Biso   1.000  H
  I5       1.0000 0.18577  0.73750  0.32849  Biso   1.000  I
  Zn3      1.0000 0.14400  0.62660  0.36280  Biso   1.000  Zn
  I6       1.0000 0.08366  0.65970  0.39850  Biso   1.000  I
  N7       1.0000 0.18070  0.55590  0.41140  Biso   1.000  N
  C19      1.0000 0.21050  0.59400  0.43940  Biso   1.000  C
  H13      1.0000 0.21560  0.65470  0.43560  Biso   1.000  H
  C20      1.0000 0.23420  0.55070  0.47320  Biso   1.000  C
  H14      1.0000 0.25590  0.58000  0.49160  Biso   1.000  H
  C21      1.0000 0.22590  0.46410  0.47990  Biso   1.000  C
  C22      1.0000 0.19800  0.41750  0.45150  Biso   1.000  C
  H15      1.0000 0.19430  0.35560  0.45380  Biso   1.000  H
  C23      1.0000 0.17580  0.46790  0.41950  Biso   1.000  C
  H16      1.0000 0.15440  0.43870  0.40070  Biso   1.000  H
  C24      1.0000 0.24520  0.41060  0.51760  Biso   1.000  C
  N8       1.0000 0.27380  0.45010  0.54900  Biso   1.000  N
  C25      1.0000 0.29870  0.39900  0.57930  Biso   1.000  C
  N9       1.0000 0.29490  0.30840  0.57820  Biso   1.000  N
  C26      1.0000 0.26630  0.26890  0.54680  Biso   1.000  C
  N10      1.0000 0.24140  0.32000  0.51650  Biso   1.000  N
  N11      1.0000 0.37920  0.52470  0.68180  Biso   1.000  N
  C27      1.0000 0.37350  0.43760  0.68240  Biso   1.000  C
  H17      1.0000 0.38540  0.40550  0.70780  Biso   1.000  H
  C28      1.0000 0.35130  0.39200  0.64800  Biso   1.000  C
  H18      1.0000 0.35020  0.32960  0.64860  Biso   1.000  H
  C29      1.0000 0.33070  0.43800  0.61260  Biso   1.000  C
  C30      1.0000 0.33570  0.52790  0.61120  Biso   1.000  C
  H19      1.0000 0.32250  0.56190  0.58700  Biso   1.000  H
  C31      1.0000 0.36060  0.56700  0.64600  Biso   1.000  C
  H20      1.0000 0.36470  0.62890  0.64450  Biso   1.000  H
  N12      1.0000 0.24660  0.99080  0.54080  Biso   1.000  N
  C32      1.0000 0.22330  0.04650  0.51420  Biso   1.000  C
  H21      1.0000 0.20260  0.02440  0.49190  Biso   1.000  H
  C33      1.0000 0.22930  0.13500  0.51890  Biso   1.000  C
  H22      1.0000 0.21090  0.17380  0.50110  Biso   1.000  H
  C34      1.0000 0.26010  0.17250  0.54790  Biso   1.000  C
  C35      1.0000 0.28160  0.11310  0.57620  Biso   1.000  C
  H23      1.0000 0.30210  0.13410  0.59910  Biso   1.000  H
  C36      1.0000 0.27440  0.02420  0.57250  Biso   1.000  C
  H24      1.0000 0.28970  0.98530  0.59310  Biso   1.000  H
  Zn4      1.0000 0.73080  0.64100  0.03690  Biso   1.000  Zn
  I7       1.0000 0.79156  0.74030  0.06293  Biso   1.000  I
  I8       1.0000 0.68377  0.66720  0.96360  Biso   1.000  I
  N13      1.0000 0.69770  0.65610  0.08890  Biso   1.000  N
  C37      1.0000 0.68260  0.58800  0.10760  Biso   1.000  C
  H25      1.0000 0.68790  0.52980  0.09810  Biso   1.000  H
  C38      1.0000 0.65980  0.59600  0.13970  Biso   1.000  C
  H26      1.0000 0.64930  0.54560  0.15210  Biso   1.000  H
  C39      1.0000 0.65300  0.68000  0.15310  Biso   1.000  C
  C40      1.0000 0.66770  0.75300  0.13470  Biso   1.000  C
  H27      1.0000 0.66300  0.81110  0.14390  Biso   1.000  H
  C41      1.0000 0.68950  0.73700  0.10250  Biso   1.000  C
  H28      1.0000 0.69930  0.78650  0.08890  Biso   1.000  H
  C42      1.0000 0.63050  0.69230  0.18940  Biso   1.000  C
  N14      1.0000 0.60010  0.63640  0.19420  Biso   1.000  N
  C43      1.0000 0.57570  0.65610  0.22320  Biso   1.000  C
  N15      1.0000 0.58170  0.73160  0.24740  Biso   1.000  N
  C44      1.0000 0.61210  0.78740  0.24260  Biso   1.000  C
  N16      1.0000 0.63650  0.76780  0.21370  Biso   1.000  N
  N17      1.0000 0.47350  0.49000  0.22800  Biso   1.000  N
  C45      1.0000 0.48990  0.54300  0.26070  Biso   1.000  C
  H29      1.0000 0.47710  0.54590  0.28550  Biso   1.000  H
  C46      1.0000 0.52330  0.59500  0.26210  Biso   1.000  C
  H30      1.0000 0.53310  0.63070  0.28710  Biso   1.000  H
  C47      1.0000 0.54240  0.59500  0.22660  Biso   1.000  C
  C48      1.0000 0.52740  0.53800  0.19240  Biso   1.000  C
  H31      1.0000 0.54030  0.53280  0.16780  Biso   1.000  H
  C49      1.0000 0.49350  0.49100  0.19480  Biso   1.000  C
  H32      1.0000 0.48320  0.45440  0.17030  Biso   1.000  H
  Zn5      1.0000 0.41890  0.41230  0.23090  Biso   1.000  Zn
  I9       1.0000 0.43390  0.26300  0.20100  Biso   1.000  I
  I10      1.0000 0.38570  0.44770  0.29970  Biso   1.000  I
  N18      1.0000 0.62950  0.02800  0.31580  Biso   1.000  N
  C50      1.0000 0.65510  0.00100  0.29100  Biso   1.000  C
  H33      1.0000 0.67830  0.03580  0.29030  Biso   1.000  H
  C51      1.0000 0.64960  0.92600  0.26640  Biso   1.000  C
  H34      1.0000 0.66860  0.91010  0.24870  Biso   1.000  H
  C52      1.0000 0.61720  0.87200  0.26700  Biso   1.000  C
  C53      1.0000 0.59110  0.90000  0.29300  Biso   1.000  C
  H35      1.0000 0.56840  0.86470  0.29540  Biso   1.000  H
  C54      1.0000 0.59730  0.97800  0.31560  Biso   1.000  C
  H36      1.0000 0.57780  0.99700  0.33190  Biso   1.000  H
  I11      1.0000 0.68577  0.23750  0.32849  Biso   1.000  I
  Zn6      1.0000 0.64400  0.12660  0.36280  Biso   1.000  Zn
  I12      1.0000 0.58366  0.15970  0.39850  Biso   1.000  I
  N19      1.0000 0.68070  0.05590  0.41140  Biso   1.000  N
  C55      1.0000 0.71050  0.09400  0.43940  Biso   1.000  C
  H37      1.0000 0.71560  0.15470  0.43560  Biso   1.000  H
  C56      1.0000 0.73420  0.05070  0.47320  Biso   1.000  C
  H38      1.0000 0.75590  0.08000  0.49160  Biso   1.000  H
  C57      1.0000 0.72590  0.96410  0.47990  Biso   1.000  C
  C58      1.0000 0.69800  0.91750  0.45150  Biso   1.000  C
  H39      1.0000 0.69430  0.85560  0.45380  Biso   1.000  H
  C59      1.0000 0.67580  0.96790  0.41950  Biso   1.000  C
  H40      1.0000 0.65440  0.93870  0.40070  Biso   1.000  H
  C60      1.0000 0.74520  0.91060  0.51760  Biso   1.000  C
  N20      1.0000 0.77380  0.95010  0.54900  Biso   1.000  N
  C61      1.0000 0.79870  0.89900  0.57930  Biso   1.000  C
  N21      1.0000 0.79490  0.80840  0.57820  Biso   1.000  N
  C62      1.0000 0.76630  0.76890  0.54680  Biso   1.000  C
  N22      1.0000 0.74140  0.82000  0.51650  Biso   1.000  N
  N23      1.0000 0.87920  0.02470  0.68180  Biso   1.000  N
  C63      1.0000 0.87350  0.93760  0.68240  Biso   1.000  C
  H41      1.0000 0.88540  0.90550  0.70780  Biso   1.000  H
  C64      1.0000 0.85130  0.89200  0.64800  Biso   1.000  C
  H42      1.0000 0.85020  0.82960  0.64860  Biso   1.000  H
  C65      1.0000 0.83070  0.93800  0.61260  Biso   1.000  C
  C66      1.0000 0.83570  0.02790  0.61120  Biso   1.000  C
  H43      1.0000 0.82250  0.06190  0.58700  Biso   1.000  H
  C67      1.0000 0.86060  0.06700  0.64600  Biso   1.000  C
  H44      1.0000 0.86470  0.12890  0.64450  Biso   1.000  H
  N24      1.0000 0.74660  0.49080  0.54080  Biso   1.000  N
  C68      1.0000 0.72330  0.54650  0.51420  Biso   1.000  C
  H45      1.0000 0.70260  0.52440  0.49190  Biso   1.000  H
  C69      1.0000 0.72930  0.63500  0.51890  Biso   1.000  C
  H46      1.0000 0.71090  0.67380  0.50110  Biso   1.000  H
  C70      1.0000 0.76010  0.67250  0.54790  Biso   1.000  C
  C71      1.0000 0.78160  0.61310  0.57620  Biso   1.000  C
  H47      1.0000 0.80210  0.63410  0.59910  Biso   1.000  H
  C72      1.0000 0.77440  0.52420  0.57250  Biso   1.000  C
  H48      1.0000 0.78970  0.48530  0.59310  Biso   1.000  H
  Zn7      1.0000 0.23080  0.85900  0.53690  Biso   1.000  Zn
  I13      1.0000 0.29156  0.75970  0.56293  Biso   1.000  I
  I14      1.0000 0.18377  0.83280  0.46360  Biso   1.000  I
  N25      1.0000 0.19770  0.84390  0.58890  Biso   1.000  N
  C73      1.0000 0.18260  0.91200  0.60760  Biso   1.000  C
  H49      1.0000 0.18790  0.97020  0.59810  Biso   1.000  H
  C74      1.0000 0.15980  0.90400  0.63970  Biso   1.000  C
  H50      1.0000 0.14930  0.95440  0.65210  Biso   1.000  H
  C75      1.0000 0.15300  0.82000  0.65310  Biso   1.000  C
  C76      1.0000 0.16770  0.74700  0.63470  Biso   1.000  C
  H51      1.0000 0.16300  0.68890  0.64390  Biso   1.000  H
  C77      1.0000 0.18950  0.76300  0.60250  Biso   1.000  C
  H52      1.0000 0.19930  0.71350  0.58890  Biso   1.000  H
  C78      1.0000 0.13050  0.80770  0.68940  Biso   1.000  C
  N26      1.0000 0.10010  0.86360  0.69420  Biso   1.000  N
  C79      1.0000 0.07570  0.84390  0.72320  Biso   1.000  C
  N27      1.0000 0.08170  0.76840  0.74740  Biso   1.000  N
  C80      1.0000 0.11210  0.71260  0.74260  Biso   1.000  C
  N28      1.0000 0.13650  0.73220  0.71370  Biso   1.000  N
  N29      1.0000 0.97350  0.01000  0.72800  Biso   1.000  N
  C81      1.0000 0.98990  0.95700  0.76070  Biso   1.000  C
  H53      1.0000 0.97710  0.95410  0.78550  Biso   1.000  H
  C82      1.0000 0.02330  0.90500  0.76210  Biso   1.000  C
  H54      1.0000 0.03310  0.86930  0.78710  Biso   1.000  H
  C83      1.0000 0.04240  0.90500  0.72660  Biso   1.000  C
  C84      1.0000 0.02740  0.96200  0.69240  Biso   1.000  C
  H55      1.0000 0.04030  0.96720  0.66780  Biso   1.000  H
  C85      1.0000 0.99350  0.00900  0.69480  Biso   1.000  C
  H56      1.0000 0.98320  0.04560  0.67030  Biso   1.000  H
  Zn8      1.0000 0.91890  0.08770  0.73090  Biso   1.000  Zn
  I15      1.0000 0.93390  0.23700  0.70100  Biso   1.000  I
  I16      1.0000 0.88570  0.05230  0.79970  Biso   1.000  I
  N30      1.0000 0.12950  0.47200  0.81580  Biso   1.000  N
  C86      1.0000 0.15510  0.49900  0.79100  Biso   1.000  C
  H57      1.0000 0.17830  0.46420  0.79030  Biso   1.000  H
  C87      1.0000 0.14960  0.57400  0.76640  Biso   1.000  C
  H58      1.0000 0.16860  0.58990  0.74870  Biso   1.000  H
  C88      1.0000 0.11720  0.62800  0.76700  Biso   1.000  C
  C89      1.0000 0.09110  0.60000  0.79300  Biso   1.000  C
  H59      1.0000 0.06840  0.63530  0.79540  Biso   1.000  H
  C90      1.0000 0.09730  0.52200  0.81560  Biso   1.000  C
  H60      1.0000 0.07780  0.50300  0.83190  Biso   1.000  H
  I17      1.0000 0.18577  0.26250  0.82849  Biso   1.000  I
  Zn9      1.0000 0.14400  0.37340  0.86280  Biso   1.000  Zn
  I18      1.0000 0.08366  0.34030  0.89850  Biso   1.000  I
  N31      1.0000 0.18070  0.44410  0.91140  Biso   1.000  N
  C91      1.0000 0.21050  0.40600  0.93940  Biso   1.000  C
  H61      1.0000 0.21560  0.34530  0.93560  Biso   1.000  H
  C92      1.0000 0.23420  0.44930  0.97320  Biso   1.000  C
  H62      1.0000 0.25590  0.42000  0.99160  Biso   1.000  H
  C93      1.0000 0.22590  0.53590  0.97990  Biso   1.000  C
  C94      1.0000 0.19800  0.58250  0.95150  Biso   1.000  C
  H63      1.0000 0.19430  0.64440  0.95380  Biso   1.000  H
  C95      1.0000 0.17580  0.53210  0.91950  Biso   1.000  C
  H64      1.0000 0.15440  0.56130  0.90070  Biso   1.000  H
  C96      1.0000 0.24520  0.58940  0.01760  Biso   1.000  C
  N32      1.0000 0.27380  0.54990  0.04900  Biso   1.000  N
  C97      1.0000 0.29870  0.60100  0.07930  Biso   1.000  C
  N33      1.0000 0.29490  0.69160  0.07820  Biso   1.000  N
  C98      1.0000 0.26630  0.73110  0.04680  Biso   1.000  C
  N34      1.0000 0.24140  0.68000  0.01650  Biso   1.000  N
  N35      1.0000 0.37920  0.47530  0.18180  Biso   1.000  N
  C99      1.0000 0.37350  0.56240  0.18240  Biso   1.000  C
  H65      1.0000 0.38540  0.59450  0.20780  Biso   1.000  H
  C100     1.0000 0.35130  0.60800  0.14800  Biso   1.000  C
  H66      1.0000 0.35020  0.67040  0.14860  Biso   1.000  H
  C101     1.0000 0.33070  0.56200  0.11260  Biso   1.000  C
  C102     1.0000 0.33570  0.47210  0.11120  Biso   1.000  C
  H67      1.0000 0.32250  0.43810  0.08700  Biso   1.000  H
  C103     1.0000 0.36060  0.43300  0.14600  Biso   1.000  C
  H68      1.0000 0.36470  0.37110  0.14450  Biso   1.000  H
  N36      1.0000 0.24660  0.00920  0.04080  Biso   1.000  N
  C104     1.0000 0.22330  0.95350  0.01420  Biso   1.000  C
  H69      1.0000 0.20260  0.97560  0.99190  Biso   1.000  H
  C105     1.0000 0.22930  0.86500  0.01890  Biso   1.000  C
  H70      1.0000 0.21090  0.82620  0.00110  Biso   1.000  H
  C106     1.0000 0.26010  0.82750  0.04790  Biso   1.000  C
  C107     1.0000 0.28160  0.88690  0.07620  Biso   1.000  C
  H71      1.0000 0.30210  0.86590  0.09910  Biso   1.000  H
  C108     1.0000 0.27440  0.97580  0.07250  Biso   1.000  C
  H72      1.0000 0.28970  0.01470  0.09310  Biso   1.000  H
  Zn10     1.0000 0.73080  0.35900  0.53690  Biso   1.000  Zn
  I19      1.0000 0.79156  0.25970  0.56293  Biso   1.000  I
  I20      1.0000 0.68377  0.33280  0.46360  Biso   1.000  I
  N37      1.0000 0.69770  0.34390  0.58890  Biso   1.000  N
  C109     1.0000 0.68260  0.41200  0.60760  Biso   1.000  C
  H73      1.0000 0.68790  0.47020  0.59810  Biso   1.000  H
  C110     1.0000 0.65980  0.40400  0.63970  Biso   1.000  C
  H74      1.0000 0.64930  0.45440  0.65210  Biso   1.000  H
  C111     1.0000 0.65300  0.32000  0.65310  Biso   1.000  C
  C112     1.0000 0.66770  0.24700  0.63470  Biso   1.000  C
  H75      1.0000 0.66300  0.18890  0.64390  Biso   1.000  H
  C113     1.0000 0.68950  0.26300  0.60250  Biso   1.000  C
  H76      1.0000 0.69930  0.21350  0.58890  Biso   1.000  H
  C114     1.0000 0.63050  0.30770  0.68940  Biso   1.000  C
  N38      1.0000 0.60010  0.36360  0.69420  Biso   1.000  N
  C115     1.0000 0.57570  0.34390  0.72320  Biso   1.000  C
  N39      1.0000 0.58170  0.26840  0.74740  Biso   1.000  N
  C116     1.0000 0.61210  0.21260  0.74260  Biso   1.000  C
  N40      1.0000 0.63650  0.23220  0.71370  Biso   1.000  N
  N41      1.0000 0.47350  0.51000  0.72800  Biso   1.000  N
  C117     1.0000 0.48990  0.45700  0.76070  Biso   1.000  C
  H77      1.0000 0.47710  0.45410  0.78550  Biso   1.000  H
  C118     1.0000 0.52330  0.40500  0.76210  Biso   1.000  C
  H78      1.0000 0.53310  0.36930  0.78710  Biso   1.000  H
  C119     1.0000 0.54240  0.40500  0.72660  Biso   1.000  C
  C120     1.0000 0.52740  0.46200  0.69240  Biso   1.000  C
  H79      1.0000 0.54030  0.46720  0.66780  Biso   1.000  H
  C121     1.0000 0.49350  0.50900  0.69480  Biso   1.000  C
  H80      1.0000 0.48320  0.54560  0.67030  Biso   1.000  H
  Zn11     1.0000 0.41890  0.58770  0.73090  Biso   1.000  Zn
  I21      1.0000 0.43390  0.73700  0.70100  Biso   1.000  I
  I22      1.0000 0.38570  0.55230  0.79970  Biso   1.000  I
  N42      1.0000 0.62950  0.97200  0.81580  Biso   1.000  N
  C122     1.0000 0.65510  0.99900  0.79100  Biso   1.000  C
  H81      1.0000 0.67830  0.96420  0.79030  Biso   1.000  H
  C123     1.0000 0.64960  0.07400  0.76640  Biso   1.000  C
  H82      1.0000 0.66860  0.08990  0.74870  Biso   1.000  H
  C124     1.0000 0.61720  0.12800  0.76700  Biso   1.000  C
  C125     1.0000 0.59110  0.10000  0.79300  Biso   1.000  C
  H83      1.0000 0.56840  0.13530  0.79540  Biso   1.000  H
  C126     1.0000 0.59730  0.02200  0.81560  Biso   1.000  C
  H84      1.0000 0.57780  0.00300  0.83190  Biso   1.000  H
  I23      1.0000 0.68577  0.76250  0.82849  Biso   1.000  I
  Zn12     1.0000 0.64400  0.87340  0.86280  Biso   1.000  Zn
  I24      1.0000 0.58366  0.84030  0.89850  Biso   1.000  I
  N43      1.0000 0.68070  0.94410  0.91140  Biso   1.000  N
  C127     1.0000 0.71050  0.90600  0.93940  Biso   1.000  C
  H85      1.0000 0.71560  0.84530  0.93560  Biso   1.000  H
  C128     1.0000 0.73420  0.94930  0.97320  Biso   1.000  C
  H86      1.0000 0.75590  0.92000  0.99160  Biso   1.000  H
  C129     1.0000 0.72590  0.03590  0.97990  Biso   1.000  C
  C130     1.0000 0.69800  0.08250  0.95150  Biso   1.000  C
  H87      1.0000 0.69430  0.14440  0.95380  Biso   1.000  H
  C131     1.0000 0.67580  0.03210  0.91950  Biso   1.000  C
  H88      1.0000 0.65440  0.06130  0.90070  Biso   1.000  H
  C132     1.0000 0.74520  0.08940  0.01760  Biso   1.000  C
  N44      1.0000 0.77380  0.04990  0.04900  Biso   1.000  N
  C133     1.0000 0.79870  0.10100  0.07930  Biso   1.000  C
  N45      1.0000 0.79490  0.19160  0.07820  Biso   1.000  N
  C134     1.0000 0.76630  0.23110  0.04680  Biso   1.000  C
  N46      1.0000 0.74140  0.18000  0.01650  Biso   1.000  N
  N47      1.0000 0.87920  0.97530  0.18180  Biso   1.000  N
  C135     1.0000 0.87350  0.06240  0.18240  Biso   1.000  C
  H89      1.0000 0.88540  0.09450  0.20780  Biso   1.000  H
  C136     1.0000 0.85130  0.10800  0.14800  Biso   1.000  C
  H90      1.0000 0.85020  0.17040  0.14860  Biso   1.000  H
  C137     1.0000 0.83070  0.06200  0.11260  Biso   1.000  C
  C138     1.0000 0.83570  0.97210  0.11120  Biso   1.000  C
  H91      1.0000 0.82250  0.93810  0.08700  Biso   1.000  H
  C139     1.0000 0.86060  0.93300  0.14600  Biso   1.000  C
  H92      1.0000 0.86470  0.87110  0.14450  Biso   1.000  H
  N48      1.0000 0.74660  0.50920  0.04080  Biso   1.000  N
  C140     1.0000 0.72330  0.45350  0.01420  Biso   1.000  C
  H93      1.0000 0.70260  0.47560  0.99190  Biso   1.000  H
  C141     1.0000 0.72930  0.36500  0.01890  Biso   1.000  C
  H94      1.0000 0.71090  0.32620  0.00110  Biso   1.000  H
  C142     1.0000 0.76010  0.32750  0.04790  Biso   1.000  C
  C143     1.0000 0.78160  0.38690  0.07620  Biso   1.000  C
  H95      1.0000 0.80210  0.36590  0.09910  Biso   1.000  H
  C144     1.0000 0.77440  0.47580  0.07250  Biso   1.000  C
  H96      1.0000 0.78970  0.51470  0.09310  Biso   1.000  H
  Zn13     1.0000 0.37960  0.37010  0.48740  Biso   1.000  Zn
  I25      1.0000 0.31198  0.30650  0.44780  Biso   1.000  I
  I26      1.0000 0.42010  0.32710  0.56209  Biso   1.000  I
  N49      1.0000 0.41670  0.36190  0.43850  Biso   1.000  N
  C145     1.0000 0.40860  0.29300  0.41200  Biso   1.000  C
  H97      1.0000 0.38560  0.25700  0.41250  Biso   1.000  H
  C146     1.0000 0.43430  0.27400  0.38410  Biso   1.000  C
  H98      1.0000 0.42990  0.22420  0.36490  Biso   1.000  H
  C147     1.0000 0.46630  0.32800  0.38460  Biso   1.000  C
  C148     1.0000 0.47560  0.40200  0.40950  Biso   1.000  C
  H99      1.0000 0.49740  0.44090  0.40800  Biso   1.000  H
  C149     1.0000 0.44870  0.41260  0.43690  Biso   1.000  C
  H100     1.0000 0.45320  0.46080  0.45690  Biso   1.000  H
  C150     1.0000 0.49360  0.31230  0.35340  Biso   1.000  C
  N50      1.0000 0.48860  0.23860  0.32870  Biso   1.000  N
  C151     1.0000 0.51330  0.22180  0.30040  Biso   1.000  C
  N51      1.0000 0.54300  0.27870  0.29680  Biso   1.000  N
  C152     1.0000 0.54800  0.35250  0.32150  Biso   1.000  C
  N52      1.0000 0.52320  0.36920  0.34980  Biso   1.000  N
  N53      1.0000 0.64640  0.52300  0.31850  Biso   1.000  N
  C153     1.0000 0.62810  0.52900  0.35300  Biso   1.000  C
  H101     1.0000 0.63290  0.57590  0.37360  Biso   1.000  H
  C154     1.0000 0.60160  0.46200  0.35610  Biso   1.000  C
  H102     1.0000 0.59630  0.44790  0.38440  Biso   1.000  H
  C155     1.0000 0.58220  0.41200  0.32050  Biso   1.000  C
  C156     1.0000 0.60220  0.40800  0.28610  Biso   1.000  C
  H103     1.0000 0.59520  0.36520  0.26340  Biso   1.000  H
  C157     1.0000 0.63260  0.46700  0.28580  Biso   1.000  C
  H104     1.0000 0.64470  0.46910  0.26040  Biso   1.000  H
  Zn14     1.0000 0.69570  0.60370  0.32341  Biso   1.000  Zn
  I27      1.0000 0.72081  0.58540  0.25288  Biso   1.000  I
  I28      1.0000 0.68103  0.74820  0.35639  Biso   1.000  I
  N54      1.0000 0.50000  0.98230  0.22700  Biso   1.000  N
  C158     1.0000 0.52730  0.04360  0.22260  Biso   1.000  C
  H105     1.0000 0.54440  0.03200  0.20220  Biso   1.000  H
  C159     1.0000 0.53260  0.12200  0.24520  Biso   1.000  C
  H106     1.0000 0.55170  0.16420  0.23950  Biso   1.000  H
  C160     1.0000 0.50940  0.13740  0.27620  Biso   1.000  C
  C161     1.0000 0.48100  0.07910  0.28110  Biso   1.000  C
  H107     1.0000 0.46280  0.09100  0.30030  Biso   1.000  H
  C162     1.0000 0.47860  0.00160  0.25770  Biso   1.000  C
  H108     1.0000 0.46020  0.95830  0.26390  Biso   1.000  H
  Zn15     1.0000 0.48100  0.88090  0.18260  Biso   1.000  Zn
  I29      1.0000 0.53915  0.85170  0.14299  Biso   1.000  I
  I30      1.0000 0.44240  0.76720  0.21950  Biso   1.000  I
  N55      1.0000 0.43820  0.94990  0.13650  Biso   1.000  N
  C163     1.0000 0.43760  0.03760  0.13500  Biso   1.000  C
  H109     1.0000 0.45230  0.06780  0.15980  Biso   1.000  H
  C164     1.0000 0.41810  0.08910  0.10120  Biso   1.000  C
  H110     1.0000 0.42120  0.15140  0.09970  Biso   1.000  H
  C165     1.0000 0.39350  0.04050  0.06990  Biso   1.000  C
  C166     1.0000 0.38620  0.95230  0.07200  Biso   1.000  C
  H111     1.0000 0.36470  0.92250  0.05360  Biso   1.000  H
  C167     1.0000 0.41330  0.91240  0.10360  Biso   1.000  C
  H112     1.0000 0.41460  0.84980  0.10200  Biso   1.000  H
  C168     1.0000 0.36850  0.08310  0.03180  Biso   1.000  C
  N56      1.0000 0.37920  0.16850  0.02540  Biso   1.000  N
  C169     1.0000 0.35860  0.21600  0.99080  Biso   1.000  C
  N57      1.0000 0.32730  0.17810  0.96270  Biso   1.000  N
  C170     1.0000 0.31660  0.09270  0.96920  Biso   1.000  C
  N58      1.0000 0.33720  0.04520  0.00370  Biso   1.000  N
  N59      1.0000 0.37020  0.49300  0.98780  Biso   1.000  N
  C171     1.0000 0.34540  0.44700  0.95750  Biso   1.000  C
  H113     1.0000 0.32700  0.47950  0.93660  Biso   1.000  H
  C172     1.0000 0.34410  0.35700  0.95380  Biso   1.000  C
  H114     1.0000 0.33160  0.32680  0.92790  Biso   1.000  H
  C173     1.0000 0.36260  0.31320  0.99100  Biso   1.000  C
  C174     1.0000 0.38510  0.35520  0.02650  Biso   1.000  C
  H115     1.0000 0.39640  0.32520  0.05280  Biso   1.000  H
  C175     1.0000 0.38970  0.44380  0.02080  Biso   1.000  C
  H116     1.0000 0.40860  0.47340  0.04250  Biso   1.000  H
  N60      1.0000 0.23580  0.96010  0.87430  Biso   1.000  N
  C176     1.0000 0.26030  0.91200  0.90370  Biso   1.000  C
  H117     1.0000 0.25880  0.84880  0.90320  Biso   1.000  H
  C177     1.0000 0.28780  0.95500  0.93450  Biso   1.000  C
  H118     1.0000 0.30430  0.92190  0.95690  Biso   1.000  H
  C178     1.0000 0.29180  0.04100  0.93390  Biso   1.000  C
  C179     1.0000 0.27170  0.08300  0.89750  Biso   1.000  C
  H119     1.0000 0.28130  0.13860  0.88940  Biso   1.000  H
  C180     1.0000 0.23780  0.04800  0.87220  Biso   1.000  C
  H120     1.0000 0.21750  0.08240  0.85480  Biso   1.000  H
  Zn16     1.0000 0.87960  0.87010  0.48740  Biso   1.000  Zn
  I31      1.0000 0.81198  0.80650  0.44780  Biso   1.000  I
  I32      1.0000 0.92010  0.82710  0.56209  Biso   1.000  I
  N61      1.0000 0.91670  0.86190  0.43850  Biso   1.000  N
  C181     1.0000 0.90860  0.79300  0.41200  Biso   1.000  C
  H121     1.0000 0.88560  0.75700  0.41250  Biso   1.000  H
  C182     1.0000 0.93430  0.77400  0.38410  Biso   1.000  C
  H122     1.0000 0.92990  0.72420  0.36490  Biso   1.000  H
  C183     1.0000 0.96630  0.82800  0.38460  Biso   1.000  C
  C184     1.0000 0.97560  0.90200  0.40950  Biso   1.000  C
  H123     1.0000 0.99740  0.94090  0.40800  Biso   1.000  H
  C185     1.0000 0.94870  0.91260  0.43690  Biso   1.000  C
  H124     1.0000 0.95320  0.96080  0.45690  Biso   1.000  H
  C186     1.0000 0.99360  0.81230  0.35340  Biso   1.000  C
  N62      1.0000 0.98860  0.73860  0.32870  Biso   1.000  N
  C187     1.0000 0.01330  0.72180  0.30040  Biso   1.000  C
  N63      1.0000 0.04300  0.77870  0.29680  Biso   1.000  N
  C188     1.0000 0.04800  0.85250  0.32150  Biso   1.000  C
  N64      1.0000 0.02320  0.86920  0.34980  Biso   1.000  N
  N65      1.0000 0.14640  0.02300  0.31850  Biso   1.000  N
  C189     1.0000 0.12810  0.02900  0.35300  Biso   1.000  C
  H125     1.0000 0.13290  0.07590  0.37360  Biso   1.000  H
  C190     1.0000 0.10160  0.96200  0.35610  Biso   1.000  C
  H126     1.0000 0.09630  0.94790  0.38440  Biso   1.000  H
  C191     1.0000 0.08220  0.91200  0.32050  Biso   1.000  C
  C192     1.0000 0.10220  0.90800  0.28610  Biso   1.000  C
  H127     1.0000 0.09520  0.86520  0.26340  Biso   1.000  H
  C193     1.0000 0.13260  0.96700  0.28580  Biso   1.000  C
  H128     1.0000 0.14470  0.96910  0.26040  Biso   1.000  H
  Zn17     1.0000 0.19570  0.10370  0.32341  Biso   1.000  Zn
  I33      1.0000 0.22081  0.08540  0.25288  Biso   1.000  I
  I34      1.0000 0.18103  0.24820  0.35639  Biso   1.000  I
  N66      1.0000 0.00000  0.48230  0.22700  Biso   1.000  N
  C194     1.0000 0.02730  0.54360  0.22260  Biso   1.000  C
  H129     1.0000 0.04440  0.53200  0.20220  Biso   1.000  H
  C195     1.0000 0.03260  0.62200  0.24520  Biso   1.000  C
  H130     1.0000 0.05170  0.66420  0.23950  Biso   1.000  H
  C196     1.0000 0.00940  0.63740  0.27620  Biso   1.000  C
  C197     1.0000 0.98100  0.57910  0.28110  Biso   1.000  C
  H131     1.0000 0.96280  0.59100  0.30030  Biso   1.000  H
  C198     1.0000 0.97860  0.50160  0.25770  Biso   1.000  C
  H132     1.0000 0.96020  0.45830  0.26390  Biso   1.000  H
  Zn18     1.0000 0.98100  0.38090  0.18260  Biso   1.000  Zn
  I35      1.0000 0.03915  0.35170  0.14299  Biso   1.000  I
  I36      1.0000 0.94240  0.26720  0.21950  Biso   1.000  I
  N67      1.0000 0.93820  0.44990  0.13650  Biso   1.000  N
  C199     1.0000 0.93760  0.53760  0.13500  Biso   1.000  C
  H133     1.0000 0.95230  0.56780  0.15980  Biso   1.000  H
  C200     1.0000 0.91810  0.58910  0.10120  Biso   1.000  C
  H134     1.0000 0.92120  0.65140  0.09970  Biso   1.000  H
  C201     1.0000 0.89350  0.54050  0.06990  Biso   1.000  C
  C202     1.0000 0.88620  0.45230  0.07200  Biso   1.000  C
  H135     1.0000 0.86470  0.42250  0.05360  Biso   1.000  H
  C203     1.0000 0.91330  0.41240  0.10360  Biso   1.000  C
  H136     1.0000 0.91460  0.34980  0.10200  Biso   1.000  H
  C204     1.0000 0.86850  0.58310  0.03180  Biso   1.000  C
  N68      1.0000 0.87920  0.66850  0.02540  Biso   1.000  N
  C205     1.0000 0.85860  0.71600  0.99080  Biso   1.000  C
  N69      1.0000 0.82730  0.67810  0.96270  Biso   1.000  N
  C206     1.0000 0.81660  0.59270  0.96920  Biso   1.000  C
  N70      1.0000 0.83720  0.54520  0.00370  Biso   1.000  N
  N71      1.0000 0.87020  0.99300  0.98780  Biso   1.000  N
  C207     1.0000 0.84540  0.94700  0.95750  Biso   1.000  C
  H137     1.0000 0.82700  0.97950  0.93660  Biso   1.000  H
  C208     1.0000 0.84410  0.85700  0.95380  Biso   1.000  C
  H138     1.0000 0.83160  0.82680  0.92790  Biso   1.000  H
  C209     1.0000 0.86260  0.81320  0.99100  Biso   1.000  C
  C210     1.0000 0.88510  0.85520  0.02650  Biso   1.000  C
  H139     1.0000 0.89640  0.82520  0.05280  Biso   1.000  H
  C211     1.0000 0.88970  0.94380  0.02080  Biso   1.000  C
  H140     1.0000 0.90860  0.97340  0.04250  Biso   1.000  H
  N72      1.0000 0.73580  0.46010  0.87430  Biso   1.000  N
  C212     1.0000 0.76030  0.41200  0.90370  Biso   1.000  C
  H141     1.0000 0.75880  0.34880  0.90320  Biso   1.000  H
  C213     1.0000 0.78780  0.45500  0.93450  Biso   1.000  C
  H142     1.0000 0.80430  0.42190  0.95690  Biso   1.000  H
  C214     1.0000 0.79180  0.54100  0.93390  Biso   1.000  C
  C215     1.0000 0.77170  0.58300  0.89750  Biso   1.000  C
  H143     1.0000 0.78130  0.63860  0.88940  Biso   1.000  H
  C216     1.0000 0.73780  0.54800  0.87220  Biso   1.000  C
  H144     1.0000 0.71750  0.58240  0.85480  Biso   1.000  H
  Zn19     1.0000 0.37960  0.62990  0.98740  Biso   1.000  Zn
  I37      1.0000 0.31198  0.69350  0.94780  Biso   1.000  I
  I38      1.0000 0.42010  0.67290  0.06209  Biso   1.000  I
  N73      1.0000 0.41670  0.63810  0.93850  Biso   1.000  N
  C217     1.0000 0.40860  0.70700  0.91200  Biso   1.000  C
  H145     1.0000 0.38560  0.74300  0.91250  Biso   1.000  H
  C218     1.0000 0.43430  0.72600  0.88410  Biso   1.000  C
  H146     1.0000 0.42990  0.77580  0.86490  Biso   1.000  H
  C219     1.0000 0.46630  0.67200  0.88460  Biso   1.000  C
  C220     1.0000 0.47560  0.59800  0.90950  Biso   1.000  C
  H147     1.0000 0.49740  0.55910  0.90800  Biso   1.000  H
  C221     1.0000 0.44870  0.58740  0.93690  Biso   1.000  C
  H148     1.0000 0.45320  0.53920  0.95690  Biso   1.000  H
  C222     1.0000 0.49360  0.68770  0.85340  Biso   1.000  C
  N74      1.0000 0.48860  0.76140  0.82870  Biso   1.000  N
  C223     1.0000 0.51330  0.77820  0.80040  Biso   1.000  C
  N75      1.0000 0.54300  0.72130  0.79680  Biso   1.000  N
  C224     1.0000 0.54800  0.64750  0.82150  Biso   1.000  C
  N76      1.0000 0.52320  0.63080  0.84980  Biso   1.000  N
  N77      1.0000 0.64640  0.47700  0.81850  Biso   1.000  N
  C225     1.0000 0.62810  0.47100  0.85300  Biso   1.000  C
  H149     1.0000 0.63290  0.42410  0.87360  Biso   1.000  H
  C226     1.0000 0.60160  0.53800  0.85610  Biso   1.000  C
  H150     1.0000 0.59630  0.55210  0.88440  Biso   1.000  H
  C227     1.0000 0.58220  0.58800  0.82050  Biso   1.000  C
  C228     1.0000 0.60220  0.59200  0.78610  Biso   1.000  C
  H151     1.0000 0.59520  0.63480  0.76340  Biso   1.000  H
  C229     1.0000 0.63260  0.53300  0.78580  Biso   1.000  C
  H152     1.0000 0.64470  0.53090  0.76040  Biso   1.000  H
  Zn20     1.0000 0.69570  0.39630  0.82341  Biso   1.000  Zn
  I39      1.0000 0.72081  0.41460  0.75288  Biso   1.000  I
  I40      1.0000 0.68103  0.25180  0.85639  Biso   1.000  I
  N78      1.0000 0.50000  0.01770  0.72700  Biso   1.000  N
  C230     1.0000 0.52730  0.95640  0.72260  Biso   1.000  C
  H153     1.0000 0.54440  0.96800  0.70220  Biso   1.000  H
  C231     1.0000 0.53260  0.87800  0.74520  Biso   1.000  C
  H154     1.0000 0.55170  0.83580  0.73950  Biso   1.000  H
  C232     1.0000 0.50940  0.86260  0.77620  Biso   1.000  C
  C233     1.0000 0.48100  0.92090  0.78110  Biso   1.000  C
  H155     1.0000 0.46280  0.90900  0.80030  Biso   1.000  H
  C234     1.0000 0.47860  0.99840  0.75770  Biso   1.000  C
  H156     1.0000 0.46020  0.04170  0.76390  Biso   1.000  H
  Zn21     1.0000 0.48100  0.11910  0.68260  Biso   1.000  Zn
  I41      1.0000 0.53915  0.14830  0.64299  Biso   1.000  I
  I42      1.0000 0.44240  0.23280  0.71950  Biso   1.000  I
  N79      1.0000 0.43820  0.05010  0.63650  Biso   1.000  N
  C235     1.0000 0.43760  0.96240  0.63500  Biso   1.000  C
  H157     1.0000 0.45230  0.93220  0.65980  Biso   1.000  H
  C236     1.0000 0.41810  0.91090  0.60120  Biso   1.000  C
  H158     1.0000 0.42120  0.84860  0.59970  Biso   1.000  H
  C237     1.0000 0.39350  0.95950  0.56990  Biso   1.000  C
  C238     1.0000 0.38620  0.04770  0.57200  Biso   1.000  C
  H159     1.0000 0.36470  0.07750  0.55360  Biso   1.000  H
  C239     1.0000 0.41330  0.08760  0.60360  Biso   1.000  C
  H160     1.0000 0.41460  0.15020  0.60200  Biso   1.000  H
  C240     1.0000 0.36850  0.91690  0.53180  Biso   1.000  C
  N80      1.0000 0.37920  0.83150  0.52540  Biso   1.000  N
  C241     1.0000 0.35860  0.78400  0.49080  Biso   1.000  C
  N81      1.0000 0.32730  0.82190  0.46270  Biso   1.000  N
  C242     1.0000 0.31660  0.90730  0.46920  Biso   1.000  C
  N82      1.0000 0.33720  0.95480  0.50370  Biso   1.000  N
  N83      1.0000 0.37020  0.50700  0.48780  Biso   1.000  N
  C243     1.0000 0.34540  0.55300  0.45750  Biso   1.000  C
  H161     1.0000 0.32700  0.52050  0.43660  Biso   1.000  H
  C244     1.0000 0.34410  0.64300  0.45380  Biso   1.000  C
  H162     1.0000 0.33160  0.67320  0.42790  Biso   1.000  H
  C245     1.0000 0.36260  0.68680  0.49100  Biso   1.000  C
  C246     1.0000 0.38510  0.64480  0.52650  Biso   1.000  C
  H163     1.0000 0.39640  0.67480  0.55280  Biso   1.000  H
  C247     1.0000 0.38970  0.55620  0.52080  Biso   1.000  C
  H164     1.0000 0.40860  0.52660  0.54250  Biso   1.000  H
  N84      1.0000 0.23580  0.03990  0.37430  Biso   1.000  N
  C248     1.0000 0.26030  0.08800  0.40370  Biso   1.000  C
  H165     1.0000 0.25880  0.15120  0.40320  Biso   1.000  H
  C249     1.0000 0.28780  0.04500  0.43450  Biso   1.000  C
  H166     1.0000 0.30430  0.07810  0.45690  Biso   1.000  H
  C250     1.0000 0.29180  0.95900  0.43390  Biso   1.000  C
  C251     1.0000 0.27170  0.91700  0.39750  Biso   1.000  C
  H167     1.0000 0.28130  0.86140  0.38940  Biso   1.000  H
  C252     1.0000 0.23780  0.95200  0.37220  Biso   1.000  C
  H168     1.0000 0.21750  0.91760  0.35480  Biso   1.000  H
  Zn22     1.0000 0.87960  0.12990  0.98740  Biso   1.000  Zn
  I43      1.0000 0.81198  0.19350  0.94780  Biso   1.000  I
  I44      1.0000 0.92010  0.17290  0.06209  Biso   1.000  I
  N85      1.0000 0.91670  0.13810  0.93850  Biso   1.000  N
  C253     1.0000 0.90860  0.20700  0.91200  Biso   1.000  C
  H169     1.0000 0.88560  0.24300  0.91250  Biso   1.000  H
  C254     1.0000 0.93430  0.22600  0.88410  Biso   1.000  C
  H170     1.0000 0.92990  0.27580  0.86490  Biso   1.000  H
  C255     1.0000 0.96630  0.17200  0.88460  Biso   1.000  C
  C256     1.0000 0.97560  0.09800  0.90950  Biso   1.000  C
  H171     1.0000 0.99740  0.05910  0.90800  Biso   1.000  H
  C257     1.0000 0.94870  0.08740  0.93690  Biso   1.000  C
  H172     1.0000 0.95320  0.03920  0.95690  Biso   1.000  H
  C258     1.0000 0.99360  0.18770  0.85340  Biso   1.000  C
  N86      1.0000 0.98860  0.26140  0.82870  Biso   1.000  N
  C259     1.0000 0.01330  0.27820  0.80040  Biso   1.000  C
  N87      1.0000 0.04300  0.22130  0.79680  Biso   1.000  N
  C260     1.0000 0.04800  0.14750  0.82150  Biso   1.000  C
  N88      1.0000 0.02320  0.13080  0.84980  Biso   1.000  N
  N89      1.0000 0.14640  0.97700  0.81850  Biso   1.000  N
  C261     1.0000 0.12810  0.97100  0.85300  Biso   1.000  C
  H173     1.0000 0.13290  0.92410  0.87360  Biso   1.000  H
  C262     1.0000 0.10160  0.03800  0.85610  Biso   1.000  C
  H174     1.0000 0.09630  0.05210  0.88440  Biso   1.000  H
  C263     1.0000 0.08220  0.08800  0.82050  Biso   1.000  C
  C264     1.0000 0.10220  0.09200  0.78610  Biso   1.000  C
  H175     1.0000 0.09520  0.13480  0.76340  Biso   1.000  H
  C265     1.0000 0.13260  0.03300  0.78580  Biso   1.000  C
  H176     1.0000 0.14470  0.03090  0.76040  Biso   1.000  H
  Zn23     1.0000 0.19570  0.89630  0.82341  Biso   1.000  Zn
  I45      1.0000 0.22081  0.91460  0.75288  Biso   1.000  I
  I46      1.0000 0.18103  0.75180  0.85639  Biso   1.000  I
  N90      1.0000 0.00000  0.51770  0.72700  Biso   1.000  N
  C266     1.0000 0.02730  0.45640  0.72260  Biso   1.000  C
  H177     1.0000 0.04440  0.46800  0.70220  Biso   1.000  H
  C267     1.0000 0.03260  0.37800  0.74520  Biso   1.000  C
  H178     1.0000 0.05170  0.33580  0.73950  Biso   1.000  H
  C268     1.0000 0.00940  0.36260  0.77620  Biso   1.000  C
  C269     1.0000 0.98100  0.42090  0.78110  Biso   1.000  C
  H179     1.0000 0.96280  0.40900  0.80030  Biso   1.000  H
  C270     1.0000 0.97860  0.49840  0.75770  Biso   1.000  C
  H180     1.0000 0.96020  0.54170  0.76390  Biso   1.000  H
  Zn24     1.0000 0.98100  0.61910  0.68260  Biso   1.000  Zn
  I47      1.0000 0.03915  0.64830  0.64299  Biso   1.000  I
  I48      1.0000 0.94240  0.73280  0.71950  Biso   1.000  I
  N91      1.0000 0.93820  0.55010  0.63650  Biso   1.000  N
  C271     1.0000 0.93760  0.46240  0.63500  Biso   1.000  C
  H181     1.0000 0.95230  0.43220  0.65980  Biso   1.000  H
  C272     1.0000 0.91810  0.41090  0.60120  Biso   1.000  C
  H182     1.0000 0.92120  0.34860  0.59970  Biso   1.000  H
  C273     1.0000 0.89350  0.45950  0.56990  Biso   1.000  C
  C274     1.0000 0.88620  0.54770  0.57200  Biso   1.000  C
  H183     1.0000 0.86470  0.57750  0.55360  Biso   1.000  H
  C275     1.0000 0.91330  0.58760  0.60360  Biso   1.000  C
  H184     1.0000 0.91460  0.65020  0.60200  Biso   1.000  H
  C276     1.0000 0.86850  0.41690  0.53180  Biso   1.000  C
  N92      1.0000 0.87920  0.33150  0.52540  Biso   1.000  N
  C277     1.0000 0.85860  0.28400  0.49080  Biso   1.000  C
  N93      1.0000 0.82730  0.32190  0.46270  Biso   1.000  N
  C278     1.0000 0.81660  0.40730  0.46920  Biso   1.000  C
  N94      1.0000 0.83720  0.45480  0.50370  Biso   1.000  N
  N95      1.0000 0.87020  0.00700  0.48780  Biso   1.000  N
  C279     1.0000 0.84540  0.05300  0.45750  Biso   1.000  C
  H185     1.0000 0.82700  0.02050  0.43660  Biso   1.000  H
  C280     1.0000 0.84410  0.14300  0.45380  Biso   1.000  C
  H186     1.0000 0.83160  0.17320  0.42790  Biso   1.000  H
  C281     1.0000 0.86260  0.18680  0.49100  Biso   1.000  C
  C282     1.0000 0.88510  0.14480  0.52650  Biso   1.000  C
  H187     1.0000 0.89640  0.17480  0.55280  Biso   1.000  H
  C283     1.0000 0.88970  0.05620  0.52080  Biso   1.000  C
  H188     1.0000 0.90860  0.02660  0.54250  Biso   1.000  H
  N96      1.0000 0.73580  0.53990  0.37430  Biso   1.000  N
  C284     1.0000 0.76030  0.58800  0.40370  Biso   1.000  C
  H189     1.0000 0.75880  0.65120  0.40320  Biso   1.000  H
  C285     1.0000 0.78780  0.54500  0.43450  Biso   1.000  C
  H190     1.0000 0.80430  0.57810  0.45690  Biso   1.000  H
  C286     1.0000 0.79180  0.45900  0.43390  Biso   1.000  C
  C287     1.0000 0.77170  0.41700  0.39750  Biso   1.000  C
  H191     1.0000 0.78130  0.36140  0.38940  Biso   1.000  H
  C288     1.0000 0.73780  0.45200  0.37220  Biso   1.000  C
  H192     1.0000 0.71750  0.41760  0.35480  Biso   1.000  H
