data_image0
_cell_length_a       31.895
_cell_length_b       15.133
_cell_length_c       31.168
_cell_angle_alpha    90
_cell_angle_beta     98.082
_cell_angle_gamma    90

_symmetry_space_group_name_H-M    "P 1"
_symmetry_int_tables_number       1

loop_
  _symmetry_equiv_pos_as_xyz
  'x, y, z'

loop_
  _atom_site_label
  _atom_site_occupancy
  _atom_site_fract_x
  _atom_site_fract_y
  _atom_site_fract_z
  _atom_site_thermal_displace_type
  _atom_site_B_iso_or_equiv
  _atom_site_type_symbol
  Zn1      1.0000 0.80835  0.34970  0.21446  Biso   1.000  Zn
  I1       1.0000 0.74170  0.28594  0.18134  Biso   1.000  I
  I2       1.0000 0.84533  0.30444  0.28802  Biso   1.000  I
  N1       1.0000 0.84940  0.32670  0.17030  Biso   1.000  N
  C1       1.0000 0.83740  0.28140  0.13370  Biso   1.000  C
  H1       1.0000 0.80950  0.25790  0.12850  Biso   1.000  H
  C2       1.0000 0.86410  0.26770  0.10330  Biso   1.000  C
  H2       1.0000 0.85450  0.23680  0.07720  Biso   1.000  H
  C3       1.0000 0.90510  0.29940  0.11110  Biso   1.000  C
  C4       1.0000 0.91770  0.34500  0.14900  Biso   1.000  C
  H3       1.0000 0.94550  0.36860  0.15510  Biso   1.000  H
  C5       1.0000 0.88870  0.35560  0.17820  Biso   1.000  C
  H4       1.0000 0.89760  0.38490  0.20480  Biso   1.000  H
  C6       1.0000 0.93390  0.28820  0.07810  Biso   1.000  C
  N2       1.0000 0.92800  0.21830  0.05260  Biso   1.000  N
  C7       1.0000 0.95670  0.20890  0.02550  Biso   1.000  C
  N3       1.0000 0.98770  0.26660  0.02120  Biso   1.000  N
  C8       1.0000 0.98960  0.33460  0.04820  Biso   1.000  C
  N4       1.0000 0.96480  0.34850  0.07780  Biso   1.000  N
  N5       1.0000 0.94490  0.98370  0.94320  Biso   1.000  N
  C9       1.0000 0.97620  0.04130  0.94230  Biso   1.000  C
  H5       1.0000 0.99530  0.03210  0.92200  Biso   1.000  H
  C10      1.0000 0.98220  0.11370  0.96940  Biso   1.000  C
  H6       1.0000 0.00520  0.15290  0.96790  Biso   1.000  H
  C11      1.0000 0.95440  0.12830  0.99860  Biso   1.000  C
  C12      1.0000 0.92220  0.06680  0.00120  Biso   1.000  C
  H7       1.0000 0.90320  0.07360  0.02190  Biso   1.000  H
  C13      1.0000 0.91860  0.99580  0.97300  Biso   1.000  C
  H8       1.0000 0.89670  0.95380  0.97480  Biso   1.000  H
  Zn2      1.0000 0.93004  0.89095  0.89542  Biso   1.000  Zn
  I3       1.0000 0.88765  0.76836  0.92363  Biso   1.000  I
  I4       1.0000 0.99502  0.86681  0.85715  Biso   1.000  I
  N6       1.0000 0.08820  0.52210  0.04370  Biso   1.000  N
  C14      1.0000 0.06560  0.52190  0.07500  Biso   1.000  C
  H9       1.0000 0.07230  0.56400  0.09760  Biso   1.000  H
  C15      1.0000 0.03250  0.46500  0.07790  Biso   1.000  C
  H10      1.0000 0.01640  0.46900  0.10130  Biso   1.000  H
  C16      1.0000 0.02310  0.40110  0.04560  Biso   1.000  C
  C17      1.0000 0.04630  0.40290  0.01110  Biso   1.000  C
  H11      1.0000 0.04000  0.36220  0.98780  Biso   1.000  H
  C18      1.0000 0.07850  0.46420  0.01050  Biso   1.000  C
  H12      1.0000 0.09390  0.46570  0.98650  Biso   1.000  H
  Zn3      1.0000 0.14187  0.59933  0.05017  Biso   1.000  Zn
  I5       1.0000 0.12312  0.74705  0.08122  Biso   1.000  I
  I6       1.0000 0.17739  0.58340  0.98238  Biso   1.000  I
  N7       1.0000 0.17980  0.53100  0.09770  Biso   1.000  N
  C19      1.0000 0.18620  0.44370  0.09360  Biso   1.000  C
  H13      1.0000 0.17130  0.41340  0.06940  Biso   1.000  H
  C20      1.0000 0.21340  0.39700  0.12310  Biso   1.000  C
  H14      1.0000 0.21670  0.33510  0.11970  Biso   1.000  H
  C21      1.0000 0.23620  0.44070  0.15810  Biso   1.000  C
  C22      1.0000 0.23040  0.53110  0.16160  Biso   1.000  C
  H15      1.0000 0.24650  0.56360  0.18430  Biso   1.000  H
  C23      1.0000 0.20120  0.57310  0.13210  Biso   1.000  C
  H16      1.0000 0.19580  0.63410  0.13600  Biso   1.000  H
  C24      1.0000 0.26730  0.39220  0.19020  Biso   1.000  C
  N8       1.0000 0.27140  0.30540  0.18470  Biso   1.000  N
  C25      1.0000 0.30010  0.26780  0.21340  Biso   1.000  C
  N9       1.0000 0.32500  0.30960  0.24490  Biso   1.000  N
  C26      1.0000 0.31730  0.39460  0.24780  Biso   1.000  C
  N10      1.0000 0.28800  0.43970  0.22220  Biso   1.000  N
  N11      1.0000 0.30590  0.98660  0.21500  Biso   1.000  N
  C27      1.0000 0.32920  0.03250  0.24300  Biso   1.000  C
  H17      1.0000 0.34780  0.00220  0.26460  Biso   1.000  H
  C28      1.0000 0.32920  0.12360  0.24400  Biso   1.000  C
  H18      1.0000 0.34720  0.15460  0.26580  Biso   1.000  H
  C29      1.0000 0.30280  0.16870  0.21290  Biso   1.000  C
  C30      1.0000 0.27720  0.12010  0.18170  Biso   1.000  C
  H19      1.0000 0.25820  0.14870  0.15990  Biso   1.000  H
  C31      1.0000 0.28000  0.02940  0.18350  Biso   1.000  C
  H20      1.0000 0.26330  0.99550  0.16180  Biso   1.000  H
  N12      1.0000 0.38940  0.53330  0.35220  Biso   1.000  N
  C32      1.0000 0.35840  0.57320  0.32650  Biso   1.000  C
  H21      1.0000 0.35310  0.63400  0.33120  Biso   1.000  H
  C33      1.0000 0.33350  0.53030  0.29320  Biso   1.000  C
  H22      1.0000 0.31090  0.56050  0.27620  Biso   1.000  H
  C34      1.0000 0.34170  0.44320  0.28500  Biso   1.000  C
  C35      1.0000 0.37340  0.40090  0.31230  Biso   1.000  C
  H23      1.0000 0.37930  0.34020  0.30830  Biso   1.000  H
  C36      1.0000 0.39630  0.44740  0.34500  Biso   1.000  C
  H24      1.0000 0.41800  0.41770  0.36360  Biso   1.000  H
  Zn4      1.0000 0.30835  0.84970  0.21446  Biso   1.000  Zn
  I7       1.0000 0.24170  0.78594  0.18134  Biso   1.000  I
  I8       1.0000 0.34533  0.80444  0.28802  Biso   1.000  I
  N13      1.0000 0.34940  0.82670  0.17030  Biso   1.000  N
  C37      1.0000 0.33740  0.78140  0.13370  Biso   1.000  C
  H25      1.0000 0.30950  0.75790  0.12850  Biso   1.000  H
  C38      1.0000 0.36410  0.76770  0.10330  Biso   1.000  C
  H26      1.0000 0.35450  0.73680  0.07720  Biso   1.000  H
  C39      1.0000 0.40510  0.79940  0.11110  Biso   1.000  C
  C40      1.0000 0.41770  0.84500  0.14900  Biso   1.000  C
  H27      1.0000 0.44550  0.86860  0.15510  Biso   1.000  H
  C41      1.0000 0.38870  0.85560  0.17820  Biso   1.000  C
  H28      1.0000 0.39760  0.88490  0.20480  Biso   1.000  H
  C42      1.0000 0.43390  0.78820  0.07810  Biso   1.000  C
  N14      1.0000 0.42800  0.71830  0.05260  Biso   1.000  N
  C43      1.0000 0.45670  0.70890  0.02550  Biso   1.000  C
  N15      1.0000 0.48770  0.76660  0.02120  Biso   1.000  N
  C44      1.0000 0.48960  0.83460  0.04820  Biso   1.000  C
  N16      1.0000 0.46480  0.84850  0.07780  Biso   1.000  N
  N17      1.0000 0.44490  0.48370  0.94320  Biso   1.000  N
  C45      1.0000 0.47620  0.54130  0.94230  Biso   1.000  C
  H29      1.0000 0.49530  0.53210  0.92200  Biso   1.000  H
  C46      1.0000 0.48220  0.61370  0.96940  Biso   1.000  C
  H30      1.0000 0.50520  0.65290  0.96790  Biso   1.000  H
  C47      1.0000 0.45440  0.62830  0.99860  Biso   1.000  C
  C48      1.0000 0.42220  0.56680  0.00120  Biso   1.000  C
  H31      1.0000 0.40320  0.57360  0.02190  Biso   1.000  H
  C49      1.0000 0.41860  0.49580  0.97300  Biso   1.000  C
  H32      1.0000 0.39670  0.45380  0.97480  Biso   1.000  H
  Zn5      1.0000 0.43004  0.39095  0.89542  Biso   1.000  Zn
  I9       1.0000 0.38765  0.26836  0.92363  Biso   1.000  I
  I10      1.0000 0.49502  0.36681  0.85715  Biso   1.000  I
  N18      1.0000 0.58820  0.02210  0.04370  Biso   1.000  N
  C50      1.0000 0.56560  0.02190  0.07500  Biso   1.000  C
  H33      1.0000 0.57230  0.06400  0.09760  Biso   1.000  H
  C51      1.0000 0.53250  0.96500  0.07790  Biso   1.000  C
  H34      1.0000 0.51640  0.96900  0.10130  Biso   1.000  H
  C52      1.0000 0.52310  0.90110  0.04560  Biso   1.000  C
  C53      1.0000 0.54630  0.90290  0.01110  Biso   1.000  C
  H35      1.0000 0.54000  0.86220  0.98780  Biso   1.000  H
  C54      1.0000 0.57850  0.96420  0.01050  Biso   1.000  C
  H36      1.0000 0.59390  0.96570  0.98650  Biso   1.000  H
  Zn6      1.0000 0.64187  0.09933  0.05017  Biso   1.000  Zn
  I11      1.0000 0.62312  0.24705  0.08122  Biso   1.000  I
  I12      1.0000 0.67739  0.08340  0.98238  Biso   1.000  I
  N19      1.0000 0.67980  0.03100  0.09770  Biso   1.000  N
  C55      1.0000 0.68620  0.94370  0.09360  Biso   1.000  C
  H37      1.0000 0.67130  0.91340  0.06940  Biso   1.000  H
  C56      1.0000 0.71340  0.89700  0.12310  Biso   1.000  C
  H38      1.0000 0.71670  0.83510  0.11970  Biso   1.000  H
  C57      1.0000 0.73620  0.94070  0.15810  Biso   1.000  C
  C58      1.0000 0.73040  0.03110  0.16160  Biso   1.000  C
  H39      1.0000 0.74650  0.06360  0.18430  Biso   1.000  H
  C59      1.0000 0.70120  0.07310  0.13210  Biso   1.000  C
  H40      1.0000 0.69580  0.13410  0.13600  Biso   1.000  H
  C60      1.0000 0.76730  0.89220  0.19020  Biso   1.000  C
  N20      1.0000 0.77140  0.80540  0.18470  Biso   1.000  N
  C61      1.0000 0.80010  0.76780  0.21340  Biso   1.000  C
  N21      1.0000 0.82500  0.80960  0.24490  Biso   1.000  N
  C62      1.0000 0.81730  0.89460  0.24780  Biso   1.000  C
  N22      1.0000 0.78800  0.93970  0.22220  Biso   1.000  N
  N23      1.0000 0.80590  0.48660  0.21500  Biso   1.000  N
  C63      1.0000 0.82920  0.53250  0.24300  Biso   1.000  C
  H41      1.0000 0.84780  0.50220  0.26460  Biso   1.000  H
  C64      1.0000 0.82920  0.62360  0.24400  Biso   1.000  C
  H42      1.0000 0.84720  0.65460  0.26580  Biso   1.000  H
  C65      1.0000 0.80280  0.66870  0.21290  Biso   1.000  C
  C66      1.0000 0.77720  0.62010  0.18170  Biso   1.000  C
  H43      1.0000 0.75820  0.64870  0.15990  Biso   1.000  H
  C67      1.0000 0.78000  0.52940  0.18350  Biso   1.000  C
  H44      1.0000 0.76330  0.49550  0.16180  Biso   1.000  H
  N24      1.0000 0.88940  0.03330  0.35220  Biso   1.000  N
  C68      1.0000 0.85840  0.07320  0.32650  Biso   1.000  C
  H45      1.0000 0.85310  0.13400  0.33120  Biso   1.000  H
  C69      1.0000 0.83350  0.03030  0.29320  Biso   1.000  C
  H46      1.0000 0.81090  0.06050  0.27620  Biso   1.000  H
  C70      1.0000 0.84170  0.94320  0.28500  Biso   1.000  C
  C71      1.0000 0.87340  0.90090  0.31230  Biso   1.000  C
  H47      1.0000 0.87930  0.84020  0.30830  Biso   1.000  H
  C72      1.0000 0.89630  0.94740  0.34500  Biso   1.000  C
  H48      1.0000 0.91800  0.91770  0.36360  Biso   1.000  H
  Zn7      1.0000 0.80835  0.65030  0.71446  Biso   1.000  Zn
  I13      1.0000 0.74170  0.71406  0.68134  Biso   1.000  I
  I14      1.0000 0.84533  0.69556  0.78802  Biso   1.000  I
  N25      1.0000 0.84940  0.67330  0.67030  Biso   1.000  N
  C73      1.0000 0.83740  0.71860  0.63370  Biso   1.000  C
  H49      1.0000 0.80950  0.74210  0.62850  Biso   1.000  H
  C74      1.0000 0.86410  0.73230  0.60330  Biso   1.000  C
  H50      1.0000 0.85450  0.76320  0.57720  Biso   1.000  H
  C75      1.0000 0.90510  0.70060  0.61110  Biso   1.000  C
  C76      1.0000 0.91770  0.65500  0.64900  Biso   1.000  C
  H51      1.0000 0.94550  0.63140  0.65510  Biso   1.000  H
  C77      1.0000 0.88870  0.64440  0.67820  Biso   1.000  C
  H52      1.0000 0.89760  0.61510  0.70480  Biso   1.000  H
  C78      1.0000 0.93390  0.71180  0.57810  Biso   1.000  C
  N26      1.0000 0.92800  0.78170  0.55260  Biso   1.000  N
  C79      1.0000 0.95670  0.79110  0.52550  Biso   1.000  C
  N27      1.0000 0.98770  0.73340  0.52120  Biso   1.000  N
  C80      1.0000 0.98960  0.66540  0.54820  Biso   1.000  C
  N28      1.0000 0.96480  0.65150  0.57780  Biso   1.000  N
  N29      1.0000 0.94490  0.01630  0.44320  Biso   1.000  N
  C81      1.0000 0.97620  0.95870  0.44230  Biso   1.000  C
  H53      1.0000 0.99530  0.96790  0.42200  Biso   1.000  H
  C82      1.0000 0.98220  0.88630  0.46940  Biso   1.000  C
  H54      1.0000 0.00520  0.84710  0.46790  Biso   1.000  H
  C83      1.0000 0.95440  0.87170  0.49860  Biso   1.000  C
  C84      1.0000 0.92220  0.93320  0.50120  Biso   1.000  C
  H55      1.0000 0.90320  0.92640  0.52190  Biso   1.000  H
  C85      1.0000 0.91860  0.00420  0.47300  Biso   1.000  C
  H56      1.0000 0.89670  0.04620  0.47480  Biso   1.000  H
  Zn8      1.0000 0.93004  0.10905  0.39542  Biso   1.000  Zn
  I15      1.0000 0.88765  0.23164  0.42363  Biso   1.000  I
  I16      1.0000 0.99502  0.13319  0.35715  Biso   1.000  I
  N30      1.0000 0.08820  0.47790  0.54370  Biso   1.000  N
  C86      1.0000 0.06560  0.47810  0.57500  Biso   1.000  C
  H57      1.0000 0.07230  0.43600  0.59760  Biso   1.000  H
  C87      1.0000 0.03250  0.53500  0.57790  Biso   1.000  C
  H58      1.0000 0.01640  0.53100  0.60130  Biso   1.000  H
  C88      1.0000 0.02310  0.59890  0.54560  Biso   1.000  C
  C89      1.0000 0.04630  0.59710  0.51110  Biso   1.000  C
  H59      1.0000 0.04000  0.63780  0.48780  Biso   1.000  H
  C90      1.0000 0.07850  0.53580  0.51050  Biso   1.000  C
  H60      1.0000 0.09390  0.53430  0.48650  Biso   1.000  H
  Zn9      1.0000 0.14187  0.40067  0.55017  Biso   1.000  Zn
  I17      1.0000 0.12312  0.25295  0.58122  Biso   1.000  I
  I18      1.0000 0.17739  0.41660  0.48238  Biso   1.000  I
  N31      1.0000 0.17980  0.46900  0.59770  Biso   1.000  N
  C91      1.0000 0.18620  0.55630  0.59360  Biso   1.000  C
  H61      1.0000 0.17130  0.58660  0.56940  Biso   1.000  H
  C92      1.0000 0.21340  0.60300  0.62310  Biso   1.000  C
  H62      1.0000 0.21670  0.66490  0.61970  Biso   1.000  H
  C93      1.0000 0.23620  0.55930  0.65810  Biso   1.000  C
  C94      1.0000 0.23040  0.46890  0.66160  Biso   1.000  C
  H63      1.0000 0.24650  0.43640  0.68430  Biso   1.000  H
  C95      1.0000 0.20120  0.42690  0.63210  Biso   1.000  C
  H64      1.0000 0.19580  0.36590  0.63600  Biso   1.000  H
  C96      1.0000 0.26730  0.60780  0.69020  Biso   1.000  C
  N32      1.0000 0.27140  0.69460  0.68470  Biso   1.000  N
  C97      1.0000 0.30010  0.73220  0.71340  Biso   1.000  C
  N33      1.0000 0.32500  0.69040  0.74490  Biso   1.000  N
  C98      1.0000 0.31730  0.60540  0.74780  Biso   1.000  C
  N34      1.0000 0.28800  0.56030  0.72220  Biso   1.000  N
  N35      1.0000 0.30590  0.01340  0.71500  Biso   1.000  N
  C99      1.0000 0.32920  0.96750  0.74300  Biso   1.000  C
  H65      1.0000 0.34780  0.99780  0.76460  Biso   1.000  H
  C100     1.0000 0.32920  0.87640  0.74400  Biso   1.000  C
  H66      1.0000 0.34720  0.84540  0.76580  Biso   1.000  H
  C101     1.0000 0.30280  0.83130  0.71290  Biso   1.000  C
  C102     1.0000 0.27720  0.87990  0.68170  Biso   1.000  C
  H67      1.0000 0.25820  0.85130  0.65990  Biso   1.000  H
  C103     1.0000 0.28000  0.97060  0.68350  Biso   1.000  C
  H68      1.0000 0.26330  0.00450  0.66180  Biso   1.000  H
  N36      1.0000 0.38940  0.46670  0.85220  Biso   1.000  N
  C104     1.0000 0.35840  0.42680  0.82650  Biso   1.000  C
  H69      1.0000 0.35310  0.36600  0.83120  Biso   1.000  H
  C105     1.0000 0.33350  0.46970  0.79320  Biso   1.000  C
  H70      1.0000 0.31090  0.43950  0.77620  Biso   1.000  H
  C106     1.0000 0.34170  0.55680  0.78500  Biso   1.000  C
  C107     1.0000 0.37340  0.59910  0.81230  Biso   1.000  C
  H71      1.0000 0.37930  0.65980  0.80830  Biso   1.000  H
  C108     1.0000 0.39630  0.55260  0.84500  Biso   1.000  C
  H72      1.0000 0.41800  0.58230  0.86360  Biso   1.000  H
  Zn10     1.0000 0.30835  0.15030  0.71446  Biso   1.000  Zn
  I19      1.0000 0.24170  0.21406  0.68134  Biso   1.000  I
  I20      1.0000 0.34533  0.19556  0.78802  Biso   1.000  I
  N37      1.0000 0.34940  0.17330  0.67030  Biso   1.000  N
  C109     1.0000 0.33740  0.21860  0.63370  Biso   1.000  C
  H73      1.0000 0.30950  0.24210  0.62850  Biso   1.000  H
  C110     1.0000 0.36410  0.23230  0.60330  Biso   1.000  C
  H74      1.0000 0.35450  0.26320  0.57720  Biso   1.000  H
  C111     1.0000 0.40510  0.20060  0.61110  Biso   1.000  C
  C112     1.0000 0.41770  0.15500  0.64900  Biso   1.000  C
  H75      1.0000 0.44550  0.13140  0.65510  Biso   1.000  H
  C113     1.0000 0.38870  0.14440  0.67820  Biso   1.000  C
  H76      1.0000 0.39760  0.11510  0.70480  Biso   1.000  H
  C114     1.0000 0.43390  0.21180  0.57810  Biso   1.000  C
  N38      1.0000 0.42800  0.28170  0.55260  Biso   1.000  N
  C115     1.0000 0.45670  0.29110  0.52550  Biso   1.000  C
  N39      1.0000 0.48770  0.23340  0.52120  Biso   1.000  N
  C116     1.0000 0.48960  0.16540  0.54820  Biso   1.000  C
  N40      1.0000 0.46480  0.15150  0.57780  Biso   1.000  N
  N41      1.0000 0.44490  0.51630  0.44320  Biso   1.000  N
  C117     1.0000 0.47620  0.45870  0.44230  Biso   1.000  C
  H77      1.0000 0.49530  0.46790  0.42200  Biso   1.000  H
  C118     1.0000 0.48220  0.38630  0.46940  Biso   1.000  C
  H78      1.0000 0.50520  0.34710  0.46790  Biso   1.000  H
  C119     1.0000 0.45440  0.37170  0.49860  Biso   1.000  C
  C120     1.0000 0.42220  0.43320  0.50120  Biso   1.000  C
  H79      1.0000 0.40320  0.42640  0.52190  Biso   1.000  H
  C121     1.0000 0.41860  0.50420  0.47300  Biso   1.000  C
  H80      1.0000 0.39670  0.54620  0.47480  Biso   1.000  H
  Zn11     1.0000 0.43004  0.60905  0.39542  Biso   1.000  Zn
  I21      1.0000 0.38765  0.73164  0.42363  Biso   1.000  I
  I22      1.0000 0.49502  0.63319  0.35715  Biso   1.000  I
  N42      1.0000 0.58820  0.97790  0.54370  Biso   1.000  N
  C122     1.0000 0.56560  0.97810  0.57500  Biso   1.000  C
  H81      1.0000 0.57230  0.93600  0.59760  Biso   1.000  H
  C123     1.0000 0.53250  0.03500  0.57790  Biso   1.000  C
  H82      1.0000 0.51640  0.03100  0.60130  Biso   1.000  H
  C124     1.0000 0.52310  0.09890  0.54560  Biso   1.000  C
  C125     1.0000 0.54630  0.09710  0.51110  Biso   1.000  C
  H83      1.0000 0.54000  0.13780  0.48780  Biso   1.000  H
  C126     1.0000 0.57850  0.03580  0.51050  Biso   1.000  C
  H84      1.0000 0.59390  0.03430  0.48650  Biso   1.000  H
  Zn12     1.0000 0.64187  0.90067  0.55017  Biso   1.000  Zn
  I23      1.0000 0.62312  0.75295  0.58122  Biso   1.000  I
  I24      1.0000 0.67739  0.91660  0.48238  Biso   1.000  I
  N43      1.0000 0.67980  0.96900  0.59770  Biso   1.000  N
  C127     1.0000 0.68620  0.05630  0.59360  Biso   1.000  C
  H85      1.0000 0.67130  0.08660  0.56940  Biso   1.000  H
  C128     1.0000 0.71340  0.10300  0.62310  Biso   1.000  C
  H86      1.0000 0.71670  0.16490  0.61970  Biso   1.000  H
  C129     1.0000 0.73620  0.05930  0.65810  Biso   1.000  C
  C130     1.0000 0.73040  0.96890  0.66160  Biso   1.000  C
  H87      1.0000 0.74650  0.93640  0.68430  Biso   1.000  H
  C131     1.0000 0.70120  0.92690  0.63210  Biso   1.000  C
  H88      1.0000 0.69580  0.86590  0.63600  Biso   1.000  H
  C132     1.0000 0.76730  0.10780  0.69020  Biso   1.000  C
  N44      1.0000 0.77140  0.19460  0.68470  Biso   1.000  N
  C133     1.0000 0.80010  0.23220  0.71340  Biso   1.000  C
  N45      1.0000 0.82500  0.19040  0.74490  Biso   1.000  N
  C134     1.0000 0.81730  0.10540  0.74780  Biso   1.000  C
  N46      1.0000 0.78800  0.06030  0.72220  Biso   1.000  N
  N47      1.0000 0.80590  0.51340  0.71500  Biso   1.000  N
  C135     1.0000 0.82920  0.46750  0.74300  Biso   1.000  C
  H89      1.0000 0.84780  0.49780  0.76460  Biso   1.000  H
  C136     1.0000 0.82920  0.37640  0.74400  Biso   1.000  C
  H90      1.0000 0.84720  0.34540  0.76580  Biso   1.000  H
  C137     1.0000 0.80280  0.33130  0.71290  Biso   1.000  C
  C138     1.0000 0.77720  0.37990  0.68170  Biso   1.000  C
  H91      1.0000 0.75820  0.35130  0.65990  Biso   1.000  H
  C139     1.0000 0.78000  0.47060  0.68350  Biso   1.000  C
  H92      1.0000 0.76330  0.50450  0.66180  Biso   1.000  H
  N48      1.0000 0.88940  0.96670  0.85220  Biso   1.000  N
  C140     1.0000 0.85840  0.92680  0.82650  Biso   1.000  C
  H93      1.0000 0.85310  0.86600  0.83120  Biso   1.000  H
  C141     1.0000 0.83350  0.96970  0.79320  Biso   1.000  C
  H94      1.0000 0.81090  0.93950  0.77620  Biso   1.000  H
  C142     1.0000 0.84170  0.05680  0.78500  Biso   1.000  C
  C143     1.0000 0.87340  0.09910  0.81230  Biso   1.000  C
  H95      1.0000 0.87930  0.15980  0.80830  Biso   1.000  H
  C144     1.0000 0.89630  0.05260  0.84500  Biso   1.000  C
  H96      1.0000 0.91800  0.08230  0.86360  Biso   1.000  H
  Zn13     1.0000 0.19165  0.34970  0.28554  Biso   1.000  Zn
  I25      1.0000 0.25830  0.28594  0.31866  Biso   1.000  I
  I26      1.0000 0.15467  0.30444  0.21198  Biso   1.000  I
  N49      1.0000 0.15060  0.32670  0.32970  Biso   1.000  N
  C145     1.0000 0.16260  0.28140  0.36630  Biso   1.000  C
  H97      1.0000 0.19050  0.25790  0.37150  Biso   1.000  H
  C146     1.0000 0.13590  0.26770  0.39670  Biso   1.000  C
  H98      1.0000 0.14550  0.23680  0.42280  Biso   1.000  H
  C147     1.0000 0.09490  0.29940  0.38890  Biso   1.000  C
  C148     1.0000 0.08230  0.34500  0.35100  Biso   1.000  C
  H99      1.0000 0.05450  0.36860  0.34490  Biso   1.000  H
  C149     1.0000 0.11130  0.35560  0.32180  Biso   1.000  C
  H100     1.0000 0.10240  0.38490  0.29520  Biso   1.000  H
  C150     1.0000 0.06610  0.28820  0.42190  Biso   1.000  C
  N50      1.0000 0.07200  0.21830  0.44740  Biso   1.000  N
  C151     1.0000 0.04330  0.20890  0.47450  Biso   1.000  C
  N51      1.0000 0.01230  0.26660  0.47880  Biso   1.000  N
  C152     1.0000 0.01040  0.33460  0.45180  Biso   1.000  C
  N52      1.0000 0.03520  0.34850  0.42220  Biso   1.000  N
  N53      1.0000 0.05510  0.98370  0.55680  Biso   1.000  N
  C153     1.0000 0.02380  0.04130  0.55770  Biso   1.000  C
  H101     1.0000 0.00470  0.03210  0.57800  Biso   1.000  H
  C154     1.0000 0.01780  0.11370  0.53060  Biso   1.000  C
  H102     1.0000 0.99480  0.15290  0.53210  Biso   1.000  H
  C155     1.0000 0.04560  0.12830  0.50140  Biso   1.000  C
  C156     1.0000 0.07780  0.06680  0.49880  Biso   1.000  C
  H103     1.0000 0.09680  0.07360  0.47810  Biso   1.000  H
  C157     1.0000 0.08140  0.99580  0.52700  Biso   1.000  C
  H104     1.0000 0.10330  0.95380  0.52520  Biso   1.000  H
  Zn14     1.0000 0.06996  0.89095  0.60458  Biso   1.000  Zn
  I27      1.0000 0.11235  0.76836  0.57637  Biso   1.000  I
  I28      1.0000 0.00498  0.86681  0.64285  Biso   1.000  I
  N54      1.0000 0.91180  0.52210  0.45630  Biso   1.000  N
  C158     1.0000 0.93440  0.52190  0.42500  Biso   1.000  C
  H105     1.0000 0.92770  0.56400  0.40240  Biso   1.000  H
  C159     1.0000 0.96750  0.46500  0.42210  Biso   1.000  C
  H106     1.0000 0.98360  0.46900  0.39870  Biso   1.000  H
  C160     1.0000 0.97690  0.40110  0.45440  Biso   1.000  C
  C161     1.0000 0.95370  0.40290  0.48890  Biso   1.000  C
  H107     1.0000 0.96000  0.36220  0.51220  Biso   1.000  H
  C162     1.0000 0.92150  0.46420  0.48950  Biso   1.000  C
  H108     1.0000 0.90610  0.46570  0.51350  Biso   1.000  H
  Zn15     1.0000 0.85813  0.59933  0.44983  Biso   1.000  Zn
  I29      1.0000 0.87688  0.74705  0.41878  Biso   1.000  I
  I30      1.0000 0.82261  0.58340  0.51762  Biso   1.000  I
  N55      1.0000 0.82020  0.53100  0.40230  Biso   1.000  N
  C163     1.0000 0.81380  0.44370  0.40640  Biso   1.000  C
  H109     1.0000 0.82870  0.41340  0.43060  Biso   1.000  H
  C164     1.0000 0.78660  0.39700  0.37690  Biso   1.000  C
  H110     1.0000 0.78330  0.33510  0.38030  Biso   1.000  H
  C165     1.0000 0.76380  0.44070  0.34190  Biso   1.000  C
  C166     1.0000 0.76960  0.53110  0.33840  Biso   1.000  C
  H111     1.0000 0.75350  0.56360  0.31570  Biso   1.000  H
  C167     1.0000 0.79880  0.57310  0.36790  Biso   1.000  C
  H112     1.0000 0.80420  0.63410  0.36400  Biso   1.000  H
  C168     1.0000 0.73270  0.39220  0.30980  Biso   1.000  C
  N56      1.0000 0.72860  0.30540  0.31530  Biso   1.000  N
  C169     1.0000 0.69990  0.26780  0.28660  Biso   1.000  C
  N57      1.0000 0.67500  0.30960  0.25510  Biso   1.000  N
  C170     1.0000 0.68270  0.39460  0.25220  Biso   1.000  C
  N58      1.0000 0.71200  0.43970  0.27780  Biso   1.000  N
  N59      1.0000 0.69410  0.98660  0.28500  Biso   1.000  N
  C171     1.0000 0.67080  0.03250  0.25700  Biso   1.000  C
  H113     1.0000 0.65220  0.00220  0.23540  Biso   1.000  H
  C172     1.0000 0.67080  0.12360  0.25600  Biso   1.000  C
  H114     1.0000 0.65280  0.15460  0.23420  Biso   1.000  H
  C173     1.0000 0.69720  0.16870  0.28710  Biso   1.000  C
  C174     1.0000 0.72280  0.12010  0.31830  Biso   1.000  C
  H115     1.0000 0.74180  0.14870  0.34010  Biso   1.000  H
  C175     1.0000 0.72000  0.02940  0.31650  Biso   1.000  C
  H116     1.0000 0.73670  0.99550  0.33820  Biso   1.000  H
  N60      1.0000 0.61060  0.53330  0.14780  Biso   1.000  N
  C176     1.0000 0.64160  0.57320  0.17350  Biso   1.000  C
  H117     1.0000 0.64690  0.63400  0.16880  Biso   1.000  H
  C177     1.0000 0.66650  0.53030  0.20680  Biso   1.000  C
  H118     1.0000 0.68910  0.56050  0.22380  Biso   1.000  H
  C178     1.0000 0.65830  0.44320  0.21500  Biso   1.000  C
  C179     1.0000 0.62660  0.40090  0.18770  Biso   1.000  C
  H119     1.0000 0.62070  0.34020  0.19170  Biso   1.000  H
  C180     1.0000 0.60370  0.44740  0.15500  Biso   1.000  C
  H120     1.0000 0.58200  0.41770  0.13640  Biso   1.000  H
  Zn16     1.0000 0.69165  0.84970  0.28554  Biso   1.000  Zn
  I31      1.0000 0.75830  0.78594  0.31866  Biso   1.000  I
  I32      1.0000 0.65467  0.80444  0.21198  Biso   1.000  I
  N61      1.0000 0.65060  0.82670  0.32970  Biso   1.000  N
  C181     1.0000 0.66260  0.78140  0.36630  Biso   1.000  C
  H121     1.0000 0.69050  0.75790  0.37150  Biso   1.000  H
  C182     1.0000 0.63590  0.76770  0.39670  Biso   1.000  C
  H122     1.0000 0.64550  0.73680  0.42280  Biso   1.000  H
  C183     1.0000 0.59490  0.79940  0.38890  Biso   1.000  C
  C184     1.0000 0.58230  0.84500  0.35100  Biso   1.000  C
  H123     1.0000 0.55450  0.86860  0.34490  Biso   1.000  H
  C185     1.0000 0.61130  0.85560  0.32180  Biso   1.000  C
  H124     1.0000 0.60240  0.88490  0.29520  Biso   1.000  H
  C186     1.0000 0.56610  0.78820  0.42190  Biso   1.000  C
  N62      1.0000 0.57200  0.71830  0.44740  Biso   1.000  N
  C187     1.0000 0.54330  0.70890  0.47450  Biso   1.000  C
  N63      1.0000 0.51230  0.76660  0.47880  Biso   1.000  N
  C188     1.0000 0.51040  0.83460  0.45180  Biso   1.000  C
  N64      1.0000 0.53520  0.84850  0.42220  Biso   1.000  N
  N65      1.0000 0.55510  0.48370  0.55680  Biso   1.000  N
  C189     1.0000 0.52380  0.54130  0.55770  Biso   1.000  C
  H125     1.0000 0.50470  0.53210  0.57800  Biso   1.000  H
  C190     1.0000 0.51780  0.61370  0.53060  Biso   1.000  C
  H126     1.0000 0.49480  0.65290  0.53210  Biso   1.000  H
  C191     1.0000 0.54560  0.62830  0.50140  Biso   1.000  C
  C192     1.0000 0.57780  0.56680  0.49880  Biso   1.000  C
  H127     1.0000 0.59680  0.57360  0.47810  Biso   1.000  H
  C193     1.0000 0.58140  0.49580  0.52700  Biso   1.000  C
  H128     1.0000 0.60330  0.45380  0.52520  Biso   1.000  H
  Zn17     1.0000 0.56996  0.39095  0.60458  Biso   1.000  Zn
  I33      1.0000 0.61235  0.26836  0.57637  Biso   1.000  I
  I34      1.0000 0.50498  0.36681  0.64285  Biso   1.000  I
  N66      1.0000 0.41180  0.02210  0.45630  Biso   1.000  N
  C194     1.0000 0.43440  0.02190  0.42500  Biso   1.000  C
  H129     1.0000 0.42770  0.06400  0.40240  Biso   1.000  H
  C195     1.0000 0.46750  0.96500  0.42210  Biso   1.000  C
  H130     1.0000 0.48360  0.96900  0.39870  Biso   1.000  H
  C196     1.0000 0.47690  0.90110  0.45440  Biso   1.000  C
  C197     1.0000 0.45370  0.90290  0.48890  Biso   1.000  C
  H131     1.0000 0.46000  0.86220  0.51220  Biso   1.000  H
  C198     1.0000 0.42150  0.96420  0.48950  Biso   1.000  C
  H132     1.0000 0.40610  0.96570  0.51350  Biso   1.000  H
  Zn18     1.0000 0.35813  0.09933  0.44983  Biso   1.000  Zn
  I35      1.0000 0.37688  0.24705  0.41878  Biso   1.000  I
  I36      1.0000 0.32261  0.08340  0.51762  Biso   1.000  I
  N67      1.0000 0.32020  0.03100  0.40230  Biso   1.000  N
  C199     1.0000 0.31380  0.94370  0.40640  Biso   1.000  C
  H133     1.0000 0.32870  0.91340  0.43060  Biso   1.000  H
  C200     1.0000 0.28660  0.89700  0.37690  Biso   1.000  C
  H134     1.0000 0.28330  0.83510  0.38030  Biso   1.000  H
  C201     1.0000 0.26380  0.94070  0.34190  Biso   1.000  C
  C202     1.0000 0.26960  0.03110  0.33840  Biso   1.000  C
  H135     1.0000 0.25350  0.06360  0.31570  Biso   1.000  H
  C203     1.0000 0.29880  0.07310  0.36790  Biso   1.000  C
  H136     1.0000 0.30420  0.13410  0.36400  Biso   1.000  H
  C204     1.0000 0.23270  0.89220  0.30980  Biso   1.000  C
  N68      1.0000 0.22860  0.80540  0.31530  Biso   1.000  N
  C205     1.0000 0.19990  0.76780  0.28660  Biso   1.000  C
  N69      1.0000 0.17500  0.80960  0.25510  Biso   1.000  N
  C206     1.0000 0.18270  0.89460  0.25220  Biso   1.000  C
  N70      1.0000 0.21200  0.93970  0.27780  Biso   1.000  N
  N71      1.0000 0.19410  0.48660  0.28500  Biso   1.000  N
  C207     1.0000 0.17080  0.53250  0.25700  Biso   1.000  C
  H137     1.0000 0.15220  0.50220  0.23540  Biso   1.000  H
  C208     1.0000 0.17080  0.62360  0.25600  Biso   1.000  C
  H138     1.0000 0.15280  0.65460  0.23420  Biso   1.000  H
  C209     1.0000 0.19720  0.66870  0.28710  Biso   1.000  C
  C210     1.0000 0.22280  0.62010  0.31830  Biso   1.000  C
  H139     1.0000 0.24180  0.64870  0.34010  Biso   1.000  H
  C211     1.0000 0.22000  0.52940  0.31650  Biso   1.000  C
  H140     1.0000 0.23670  0.49550  0.33820  Biso   1.000  H
  N72      1.0000 0.11060  0.03330  0.14780  Biso   1.000  N
  C212     1.0000 0.14160  0.07320  0.17350  Biso   1.000  C
  H141     1.0000 0.14690  0.13400  0.16880  Biso   1.000  H
  C213     1.0000 0.16650  0.03030  0.20680  Biso   1.000  C
  H142     1.0000 0.18910  0.06050  0.22380  Biso   1.000  H
  C214     1.0000 0.15830  0.94320  0.21500  Biso   1.000  C
  C215     1.0000 0.12660  0.90090  0.18770  Biso   1.000  C
  H143     1.0000 0.12070  0.84020  0.19170  Biso   1.000  H
  C216     1.0000 0.10370  0.94740  0.15500  Biso   1.000  C
  H144     1.0000 0.08200  0.91770  0.13640  Biso   1.000  H
  Zn19     1.0000 0.19165  0.65030  0.78554  Biso   1.000  Zn
  I37      1.0000 0.25830  0.71406  0.81866  Biso   1.000  I
  I38      1.0000 0.15467  0.69556  0.71198  Biso   1.000  I
  N73      1.0000 0.15060  0.67330  0.82970  Biso   1.000  N
  C217     1.0000 0.16260  0.71860  0.86630  Biso   1.000  C
  H145     1.0000 0.19050  0.74210  0.87150  Biso   1.000  H
  C218     1.0000 0.13590  0.73230  0.89670  Biso   1.000  C
  H146     1.0000 0.14550  0.76320  0.92280  Biso   1.000  H
  C219     1.0000 0.09490  0.70060  0.88890  Biso   1.000  C
  C220     1.0000 0.08230  0.65500  0.85100  Biso   1.000  C
  H147     1.0000 0.05450  0.63140  0.84490  Biso   1.000  H
  C221     1.0000 0.11130  0.64440  0.82180  Biso   1.000  C
  H148     1.0000 0.10240  0.61510  0.79520  Biso   1.000  H
  C222     1.0000 0.06610  0.71180  0.92190  Biso   1.000  C
  N74      1.0000 0.07200  0.78170  0.94740  Biso   1.000  N
  C223     1.0000 0.04330  0.79110  0.97450  Biso   1.000  C
  N75      1.0000 0.01230  0.73340  0.97880  Biso   1.000  N
  C224     1.0000 0.01040  0.66540  0.95180  Biso   1.000  C
  N76      1.0000 0.03520  0.65150  0.92220  Biso   1.000  N
  N77      1.0000 0.05510  0.01630  0.05680  Biso   1.000  N
  C225     1.0000 0.02380  0.95870  0.05770  Biso   1.000  C
  H149     1.0000 0.00470  0.96790  0.07800  Biso   1.000  H
  C226     1.0000 0.01780  0.88630  0.03060  Biso   1.000  C
  H150     1.0000 0.99480  0.84710  0.03210  Biso   1.000  H
  C227     1.0000 0.04560  0.87170  0.00140  Biso   1.000  C
  C228     1.0000 0.07780  0.93320  0.99880  Biso   1.000  C
  H151     1.0000 0.09680  0.92640  0.97810  Biso   1.000  H
  C229     1.0000 0.08140  0.00420  0.02700  Biso   1.000  C
  H152     1.0000 0.10330  0.04620  0.02520  Biso   1.000  H
  Zn20     1.0000 0.06996  0.10905  0.10458  Biso   1.000  Zn
  I39      1.0000 0.11235  0.23164  0.07637  Biso   1.000  I
  I40      1.0000 0.00498  0.13319  0.14285  Biso   1.000  I
  N78      1.0000 0.91180  0.47790  0.95630  Biso   1.000  N
  C230     1.0000 0.93440  0.47810  0.92500  Biso   1.000  C
  H153     1.0000 0.92770  0.43600  0.90240  Biso   1.000  H
  C231     1.0000 0.96750  0.53500  0.92210  Biso   1.000  C
  H154     1.0000 0.98360  0.53100  0.89870  Biso   1.000  H
  C232     1.0000 0.97690  0.59890  0.95440  Biso   1.000  C
  C233     1.0000 0.95370  0.59710  0.98890  Biso   1.000  C
  H155     1.0000 0.96000  0.63780  0.01220  Biso   1.000  H
  C234     1.0000 0.92150  0.53580  0.98950  Biso   1.000  C
  H156     1.0000 0.90610  0.53430  0.01350  Biso   1.000  H
  Zn21     1.0000 0.85813  0.40067  0.94983  Biso   1.000  Zn
  I41      1.0000 0.87688  0.25295  0.91878  Biso   1.000  I
  I42      1.0000 0.82261  0.41660  0.01762  Biso   1.000  I
  N79      1.0000 0.82020  0.46900  0.90230  Biso   1.000  N
  C235     1.0000 0.81380  0.55630  0.90640  Biso   1.000  C
  H157     1.0000 0.82870  0.58660  0.93060  Biso   1.000  H
  C236     1.0000 0.78660  0.60300  0.87690  Biso   1.000  C
  H158     1.0000 0.78330  0.66490  0.88030  Biso   1.000  H
  C237     1.0000 0.76380  0.55930  0.84190  Biso   1.000  C
  C238     1.0000 0.76960  0.46890  0.83840  Biso   1.000  C
  H159     1.0000 0.75350  0.43640  0.81570  Biso   1.000  H
  C239     1.0000 0.79880  0.42690  0.86790  Biso   1.000  C
  H160     1.0000 0.80420  0.36590  0.86400  Biso   1.000  H
  C240     1.0000 0.73270  0.60780  0.80980  Biso   1.000  C
  N80      1.0000 0.72860  0.69460  0.81530  Biso   1.000  N
  C241     1.0000 0.69990  0.73220  0.78660  Biso   1.000  C
  N81      1.0000 0.67500  0.69040  0.75510  Biso   1.000  N
  C242     1.0000 0.68270  0.60540  0.75220  Biso   1.000  C
  N82      1.0000 0.71200  0.56030  0.77780  Biso   1.000  N
  N83      1.0000 0.69410  0.01340  0.78500  Biso   1.000  N
  C243     1.0000 0.67080  0.96750  0.75700  Biso   1.000  C
  H161     1.0000 0.65220  0.99780  0.73540  Biso   1.000  H
  C244     1.0000 0.67080  0.87640  0.75600  Biso   1.000  C
  H162     1.0000 0.65280  0.84540  0.73420  Biso   1.000  H
  C245     1.0000 0.69720  0.83130  0.78710  Biso   1.000  C
  C246     1.0000 0.72280  0.87990  0.81830  Biso   1.000  C
  H163     1.0000 0.74180  0.85130  0.84010  Biso   1.000  H
  C247     1.0000 0.72000  0.97060  0.81650  Biso   1.000  C
  H164     1.0000 0.73670  0.00450  0.83820  Biso   1.000  H
  N84      1.0000 0.61060  0.46670  0.64780  Biso   1.000  N
  C248     1.0000 0.64160  0.42680  0.67350  Biso   1.000  C
  H165     1.0000 0.64690  0.36600  0.66880  Biso   1.000  H
  C249     1.0000 0.66650  0.46970  0.70680  Biso   1.000  C
  H166     1.0000 0.68910  0.43950  0.72380  Biso   1.000  H
  C250     1.0000 0.65830  0.55680  0.71500  Biso   1.000  C
  C251     1.0000 0.62660  0.59910  0.68770  Biso   1.000  C
  H167     1.0000 0.62070  0.65980  0.69170  Biso   1.000  H
  C252     1.0000 0.60370  0.55260  0.65500  Biso   1.000  C
  H168     1.0000 0.58200  0.58230  0.63640  Biso   1.000  H
  Zn22     1.0000 0.69165  0.15030  0.78554  Biso   1.000  Zn
  I43      1.0000 0.75830  0.21406  0.81866  Biso   1.000  I
  I44      1.0000 0.65467  0.19556  0.71198  Biso   1.000  I
  N85      1.0000 0.65060  0.17330  0.82970  Biso   1.000  N
  C253     1.0000 0.66260  0.21860  0.86630  Biso   1.000  C
  H169     1.0000 0.69050  0.24210  0.87150  Biso   1.000  H
  C254     1.0000 0.63590  0.23230  0.89670  Biso   1.000  C
  H170     1.0000 0.64550  0.26320  0.92280  Biso   1.000  H
  C255     1.0000 0.59490  0.20060  0.88890  Biso   1.000  C
  C256     1.0000 0.58230  0.15500  0.85100  Biso   1.000  C
  H171     1.0000 0.55450  0.13140  0.84490  Biso   1.000  H
  C257     1.0000 0.61130  0.14440  0.82180  Biso   1.000  C
  H172     1.0000 0.60240  0.11510  0.79520  Biso   1.000  H
  C258     1.0000 0.56610  0.21180  0.92190  Biso   1.000  C
  N86      1.0000 0.57200  0.28170  0.94740  Biso   1.000  N
  C259     1.0000 0.54330  0.29110  0.97450  Biso   1.000  C
  N87      1.0000 0.51230  0.23340  0.97880  Biso   1.000  N
  C260     1.0000 0.51040  0.16540  0.95180  Biso   1.000  C
  N88      1.0000 0.53520  0.15150  0.92220  Biso   1.000  N
  N89      1.0000 0.55510  0.51630  0.05680  Biso   1.000  N
  C261     1.0000 0.52380  0.45870  0.05770  Biso   1.000  C
  H173     1.0000 0.50470  0.46790  0.07800  Biso   1.000  H
  C262     1.0000 0.51780  0.38630  0.03060  Biso   1.000  C
  H174     1.0000 0.49480  0.34710  0.03210  Biso   1.000  H
  C263     1.0000 0.54560  0.37170  0.00140  Biso   1.000  C
  C264     1.0000 0.57780  0.43320  0.99880  Biso   1.000  C
  H175     1.0000 0.59680  0.42640  0.97810  Biso   1.000  H
  C265     1.0000 0.58140  0.50420  0.02700  Biso   1.000  C
  H176     1.0000 0.60330  0.54620  0.02520  Biso   1.000  H
  Zn23     1.0000 0.56996  0.60905  0.10458  Biso   1.000  Zn
  I45      1.0000 0.61235  0.73164  0.07637  Biso   1.000  I
  I46      1.0000 0.50498  0.63319  0.14285  Biso   1.000  I
  N90      1.0000 0.41180  0.97790  0.95630  Biso   1.000  N
  C266     1.0000 0.43440  0.97810  0.92500  Biso   1.000  C
  H177     1.0000 0.42770  0.93600  0.90240  Biso   1.000  H
  C267     1.0000 0.46750  0.03500  0.92210  Biso   1.000  C
  H178     1.0000 0.48360  0.03100  0.89870  Biso   1.000  H
  C268     1.0000 0.47690  0.09890  0.95440  Biso   1.000  C
  C269     1.0000 0.45370  0.09710  0.98890  Biso   1.000  C
  H179     1.0000 0.46000  0.13780  0.01220  Biso   1.000  H
  C270     1.0000 0.42150  0.03580  0.98950  Biso   1.000  C
  H180     1.0000 0.40610  0.03430  0.01350  Biso   1.000  H
  Zn24     1.0000 0.35813  0.90067  0.94983  Biso   1.000  Zn
  I47      1.0000 0.37688  0.75295  0.91878  Biso   1.000  I
  I48      1.0000 0.32261  0.91660  0.01762  Biso   1.000  I
  N91      1.0000 0.32020  0.96900  0.90230  Biso   1.000  N
  C271     1.0000 0.31380  0.05630  0.90640  Biso   1.000  C
  H181     1.0000 0.32870  0.08660  0.93060  Biso   1.000  H
  C272     1.0000 0.28660  0.10300  0.87690  Biso   1.000  C
  H182     1.0000 0.28330  0.16490  0.88030  Biso   1.000  H
  C273     1.0000 0.26380  0.05930  0.84190  Biso   1.000  C
  C274     1.0000 0.26960  0.96890  0.83840  Biso   1.000  C
  H183     1.0000 0.25350  0.93640  0.81570  Biso   1.000  H
  C275     1.0000 0.29880  0.92690  0.86790  Biso   1.000  C
  H184     1.0000 0.30420  0.86590  0.86400  Biso   1.000  H
  C276     1.0000 0.23270  0.10780  0.80980  Biso   1.000  C
  N92      1.0000 0.22860  0.19460  0.81530  Biso   1.000  N
  C277     1.0000 0.19990  0.23220  0.78660  Biso   1.000  C
  N93      1.0000 0.17500  0.19040  0.75510  Biso   1.000  N
  C278     1.0000 0.18270  0.10540  0.75220  Biso   1.000  C
  N94      1.0000 0.21200  0.06030  0.77780  Biso   1.000  N
  N95      1.0000 0.19410  0.51340  0.78500  Biso   1.000  N
  C279     1.0000 0.17080  0.46750  0.75700  Biso   1.000  C
  H185     1.0000 0.15220  0.49780  0.73540  Biso   1.000  H
  C280     1.0000 0.17080  0.37640  0.75600  Biso   1.000  C
  H186     1.0000 0.15280  0.34540  0.73420  Biso   1.000  H
  C281     1.0000 0.19720  0.33130  0.78710  Biso   1.000  C
  C282     1.0000 0.22280  0.37990  0.81830  Biso   1.000  C
  H187     1.0000 0.24180  0.35130  0.84010  Biso   1.000  H
  C283     1.0000 0.22000  0.47060  0.81650  Biso   1.000  C
  H188     1.0000 0.23670  0.50450  0.83820  Biso   1.000  H
  N96      1.0000 0.11060  0.96670  0.64780  Biso   1.000  N
  C284     1.0000 0.14160  0.92680  0.67350  Biso   1.000  C
  H189     1.0000 0.14690  0.86600  0.66880  Biso   1.000  H
  C285     1.0000 0.16650  0.96970  0.70680  Biso   1.000  C
  H190     1.0000 0.18910  0.93950  0.72380  Biso   1.000  H
  C286     1.0000 0.15830  0.05680  0.71500  Biso   1.000  C
  C287     1.0000 0.12660  0.09910  0.68770  Biso   1.000  C
  H191     1.0000 0.12070  0.15980  0.69170  Biso   1.000  H
  C288     1.0000 0.10370  0.05260  0.65500  Biso   1.000  C
  H192     1.0000 0.08200  0.08230  0.63640  Biso   1.000  H
