data_image0
_cell_length_a       34.307
_cell_length_b       14.392
_cell_length_c       34.931
_cell_angle_alpha    90
_cell_angle_beta     106.22
_cell_angle_gamma    90

_symmetry_space_group_name_H-M    "P 1"
_symmetry_int_tables_number       1

loop_
  _symmetry_equiv_pos_as_xyz
  'x, y, z'

loop_
  _atom_site_label
  _atom_site_occupancy
  _atom_site_fract_x
  _atom_site_fract_y
  _atom_site_fract_z
  _atom_site_thermal_displace_type
  _atom_site_B_iso_or_equiv
  _atom_site_type_symbol
  Zn1      1.0000 0.14103  0.61617  0.07496  Biso   1.000  Zn
  Zn2      1.0000 0.16182  0.84280  0.26128  Biso   1.000  Zn
  Zn3      1.0000 0.88447  0.08701  0.43744  Biso   1.000  Zn
  I1       1.0000 0.08110  0.71761  0.07318  Biso   1.000  I
  I2       1.0000 0.20740  0.67616  0.06510  Biso   1.000  I
  I3       1.0000 0.22696  0.75118  0.28872  Biso   1.000  I
  I4       1.0000 0.11660  0.81707  0.19128  Biso   1.000  I
  I5       1.0000 0.86412  0.07452  0.50127  Biso   1.000  I
  I6       1.0000 0.90123  0.23623  0.40662  Biso   1.000  I
  N1       1.0000 0.15740  0.54970  0.12980  Biso   1.000  N
  C1       1.0000 0.17230  0.59770  0.16360  Biso   1.000  C
  H1       1.0000 0.17290  0.66360  0.16260  Biso   1.000  H
  C2       1.0000 0.18680  0.55390  0.19990  Biso   1.000  C
  H2       1.0000 0.19860  0.58970  0.22310  Biso   1.000  H
  C3       1.0000 0.18440  0.45830  0.20290  Biso   1.000  C
  C4       1.0000 0.16740  0.40840  0.16760  Biso   1.000  C
  H3       1.0000 0.16500  0.34270  0.16810  Biso   1.000  H
  C5       1.0000 0.15450  0.45630  0.13270  Biso   1.000  C
  H4       1.0000 0.14270  0.42210  0.10900  Biso   1.000  H
  N2       1.0000 0.17630  0.98370  0.26840  Biso   1.000  N
  C6       1.0000 0.20500  0.01780  0.29970  Biso   1.000  C
  H5       1.0000 0.21890  0.97570  0.31980  Biso   1.000  H
  C7       1.0000 0.21550  0.10940  0.30410  Biso   1.000  C
  H6       1.0000 0.23580  0.13070  0.32680  Biso   1.000  H
  C8       1.0000 0.19520  0.17180  0.27380  Biso   1.000  C
  C9       1.0000 0.16570  0.13730  0.24160  Biso   1.000  C
  H7       1.0000 0.15190  0.17790  0.22080  Biso   1.000  H
  C10      1.0000 0.15630  0.04390  0.23960  Biso   1.000  C
  H8       1.0000 0.13540  0.02120  0.21760  Biso   1.000  H
  N3       1.0000 0.33960  0.52300  0.39350  Biso   1.000  N
  C11      1.0000 0.33000  0.43240  0.39560  Biso   1.000  C
  H9       1.0000 0.34460  0.39740  0.41800  Biso   1.000  H
  C12      1.0000 0.30010  0.38830  0.36660  Biso   1.000  C
  H10      1.0000 0.29450  0.32440  0.36940  Biso   1.000  H
  C13      1.0000 0.27830  0.43720  0.33380  Biso   1.000  C
  C14      1.0000 0.28760  0.53120  0.33080  Biso   1.000  C
  H11      1.0000 0.27370  0.56700  0.30830  Biso   1.000  H
  C15      1.0000 0.31790  0.57070  0.36180  Biso   1.000  C
  H12      1.0000 0.32350  0.63500  0.36030  Biso   1.000  H
  C16      1.0000 0.20110  0.40700  0.24030  Biso   1.000  C
  N4       1.0000 0.18800  0.32000  0.24230  Biso   1.000  N
  C17      1.0000 0.20710  0.27290  0.27420  Biso   1.000  C
  N5       1.0000 0.23650  0.30390  0.30550  Biso   1.000  N
  C18      1.0000 0.24620  0.39440  0.30110  Biso   1.000  C
  N6       1.0000 0.23000  0.44820  0.26900  Biso   1.000  N
  N7       1.0000 0.13190  0.82420  0.30410  Biso   1.000  N
  C19      1.0000 0.10990  0.89230  0.31380  Biso   1.000  C
  H13      1.0000 0.10650  0.94840  0.29890  Biso   1.000  H
  C20      1.0000 0.09170  0.88520  0.34450  Biso   1.000  C
  H14      1.0000 0.07670  0.93560  0.35090  Biso   1.000  H
  C21      1.0000 0.09580  0.80360  0.36540  Biso   1.000  C
  C22      1.0000 0.11710  0.73000  0.35460  Biso   1.000  C
  H15      1.0000 0.11980  0.67220  0.36820  Biso   1.000  H
  C23      1.0000 0.13390  0.74370  0.32350  Biso   1.000  C
  H16      1.0000 0.14770  0.69330  0.31550  Biso   1.000  H
  N8       1.0000 0.93310  0.00290  0.43810  Biso   1.000  N
  C24      1.0000 0.95270  0.95130  0.46930  Biso   1.000  C
  H17      1.0000 0.94380  0.95290  0.49270  Biso   1.000  H
  C25      1.0000 0.98560  0.89540  0.46890  Biso   1.000  C
  H18      1.0000 0.99880  0.85910  0.49150  Biso   1.000  H
  C26      1.0000 0.99860  0.89350  0.43550  Biso   1.000  C
  C27      1.0000 0.97830  0.94750  0.40230  Biso   1.000  C
  H19      1.0000 0.98660  0.94720  0.37850  Biso   1.000  H
  C28      1.0000 0.94630  0.00010  0.40560  Biso   1.000  C
  H20      1.0000 0.93270  0.03720  0.38350  Biso   1.000  H
  N9       1.0000 0.12050  0.49260  0.53600  Biso   1.000  N
  C29      1.0000 0.08320  0.52560  0.53060  Biso   1.000  C
  H21      1.0000 0.06610  0.49680  0.54440  Biso   1.000  H
  C30      1.0000 0.06800  0.60090  0.50560  Biso   1.000  C
  H22      1.0000 0.04170  0.62500  0.50360  Biso   1.000  H
  C31      1.0000 0.09150  0.63910  0.48400  Biso   1.000  C
  C32      1.0000 0.13150  0.60410  0.48920  Biso   1.000  C
  H23      1.0000 0.14870  0.62990  0.47490  Biso   1.000  H
  C33      1.0000 0.14480  0.53130  0.51580  Biso   1.000  C
  H24      1.0000 0.17150  0.50820  0.51990  Biso   1.000  H
  C34      1.0000 0.07880  0.79170  0.40000  Biso   1.000  C
  N10      1.0000 0.04900  0.84960  0.40200  Biso   1.000  N
  C35      1.0000 0.03350  0.83310  0.43240  Biso   1.000  C
  N11      1.0000 0.04540  0.76580  0.45970  Biso   1.000  N
  C36      1.0000 0.07620  0.71580  0.45470  Biso   1.000  C
  N12      1.0000 0.09400  0.72490  0.42580  Biso   1.000  N
  Zn4      1.0000 0.64103  0.11617  0.07496  Biso   1.000  Zn
  Zn5      1.0000 0.66182  0.34280  0.26128  Biso   1.000  Zn
  Zn6      1.0000 0.38447  0.58701  0.43744  Biso   1.000  Zn
  I7       1.0000 0.58110  0.21761  0.07318  Biso   1.000  I
  I8       1.0000 0.70740  0.17616  0.06510  Biso   1.000  I
  I9       1.0000 0.72696  0.25118  0.28872  Biso   1.000  I
  I10      1.0000 0.61660  0.31707  0.19128  Biso   1.000  I
  I11      1.0000 0.36412  0.57452  0.50127  Biso   1.000  I
  I12      1.0000 0.40123  0.73623  0.40662  Biso   1.000  I
  N13      1.0000 0.65740  0.04970  0.12980  Biso   1.000  N
  C37      1.0000 0.67230  0.09770  0.16360  Biso   1.000  C
  H25      1.0000 0.67290  0.16360  0.16260  Biso   1.000  H
  C38      1.0000 0.68680  0.05390  0.19990  Biso   1.000  C
  H26      1.0000 0.69860  0.08970  0.22310  Biso   1.000  H
  C39      1.0000 0.68440  0.95830  0.20290  Biso   1.000  C
  C40      1.0000 0.66740  0.90840  0.16760  Biso   1.000  C
  H27      1.0000 0.66500  0.84270  0.16810  Biso   1.000  H
  C41      1.0000 0.65450  0.95630  0.13270  Biso   1.000  C
  H28      1.0000 0.64270  0.92210  0.10900  Biso   1.000  H
  N14      1.0000 0.67630  0.48370  0.26840  Biso   1.000  N
  C42      1.0000 0.70500  0.51780  0.29970  Biso   1.000  C
  H29      1.0000 0.71890  0.47570  0.31980  Biso   1.000  H
  C43      1.0000 0.71550  0.60940  0.30410  Biso   1.000  C
  H30      1.0000 0.73580  0.63070  0.32680  Biso   1.000  H
  C44      1.0000 0.69520  0.67180  0.27380  Biso   1.000  C
  C45      1.0000 0.66570  0.63730  0.24160  Biso   1.000  C
  H31      1.0000 0.65190  0.67790  0.22080  Biso   1.000  H
  C46      1.0000 0.65630  0.54390  0.23960  Biso   1.000  C
  H32      1.0000 0.63540  0.52120  0.21760  Biso   1.000  H
  N15      1.0000 0.83960  0.02300  0.39350  Biso   1.000  N
  C47      1.0000 0.83000  0.93240  0.39560  Biso   1.000  C
  H33      1.0000 0.84460  0.89740  0.41800  Biso   1.000  H
  C48      1.0000 0.80010  0.88830  0.36660  Biso   1.000  C
  H34      1.0000 0.79450  0.82440  0.36940  Biso   1.000  H
  C49      1.0000 0.77830  0.93720  0.33380  Biso   1.000  C
  C50      1.0000 0.78760  0.03120  0.33080  Biso   1.000  C
  H35      1.0000 0.77370  0.06700  0.30830  Biso   1.000  H
  C51      1.0000 0.81790  0.07070  0.36180  Biso   1.000  C
  H36      1.0000 0.82350  0.13500  0.36030  Biso   1.000  H
  C52      1.0000 0.70110  0.90700  0.24030  Biso   1.000  C
  N16      1.0000 0.68800  0.82000  0.24230  Biso   1.000  N
  C53      1.0000 0.70710  0.77290  0.27420  Biso   1.000  C
  N17      1.0000 0.73650  0.80390  0.30550  Biso   1.000  N
  C54      1.0000 0.74620  0.89440  0.30110  Biso   1.000  C
  N18      1.0000 0.73000  0.94820  0.26900  Biso   1.000  N
  N19      1.0000 0.63190  0.32420  0.30410  Biso   1.000  N
  C55      1.0000 0.60990  0.39230  0.31380  Biso   1.000  C
  H37      1.0000 0.60650  0.44840  0.29890  Biso   1.000  H
  C56      1.0000 0.59170  0.38520  0.34450  Biso   1.000  C
  H38      1.0000 0.57670  0.43560  0.35090  Biso   1.000  H
  C57      1.0000 0.59580  0.30360  0.36540  Biso   1.000  C
  C58      1.0000 0.61710  0.23000  0.35460  Biso   1.000  C
  H39      1.0000 0.61980  0.17220  0.36820  Biso   1.000  H
  C59      1.0000 0.63390  0.24370  0.32350  Biso   1.000  C
  H40      1.0000 0.64770  0.19330  0.31550  Biso   1.000  H
  N20      1.0000 0.43310  0.50290  0.43810  Biso   1.000  N
  C60      1.0000 0.45270  0.45130  0.46930  Biso   1.000  C
  H41      1.0000 0.44380  0.45290  0.49270  Biso   1.000  H
  C61      1.0000 0.48560  0.39540  0.46890  Biso   1.000  C
  H42      1.0000 0.49880  0.35910  0.49150  Biso   1.000  H
  C62      1.0000 0.49860  0.39350  0.43550  Biso   1.000  C
  C63      1.0000 0.47830  0.44750  0.40230  Biso   1.000  C
  H43      1.0000 0.48660  0.44720  0.37850  Biso   1.000  H
  C64      1.0000 0.44630  0.50010  0.40560  Biso   1.000  C
  H44      1.0000 0.43270  0.53720  0.38350  Biso   1.000  H
  N21      1.0000 0.62050  0.99260  0.53600  Biso   1.000  N
  C65      1.0000 0.58320  0.02560  0.53060  Biso   1.000  C
  H45      1.0000 0.56610  0.99680  0.54440  Biso   1.000  H
  C66      1.0000 0.56800  0.10090  0.50560  Biso   1.000  C
  H46      1.0000 0.54170  0.12500  0.50360  Biso   1.000  H
  C67      1.0000 0.59150  0.13910  0.48400  Biso   1.000  C
  C68      1.0000 0.63150  0.10410  0.48920  Biso   1.000  C
  H47      1.0000 0.64870  0.12990  0.47490  Biso   1.000  H
  C69      1.0000 0.64480  0.03130  0.51580  Biso   1.000  C
  H48      1.0000 0.67150  0.00820  0.51990  Biso   1.000  H
  C70      1.0000 0.57880  0.29170  0.40000  Biso   1.000  C
  N22      1.0000 0.54900  0.34960  0.40200  Biso   1.000  N
  C71      1.0000 0.53350  0.33310  0.43240  Biso   1.000  C
  N23      1.0000 0.54540  0.26580  0.45970  Biso   1.000  N
  C72      1.0000 0.57620  0.21580  0.45470  Biso   1.000  C
  N24      1.0000 0.59400  0.22490  0.42580  Biso   1.000  N
  Zn7      1.0000 0.14103  0.38383  0.57496  Biso   1.000  Zn
  Zn8      1.0000 0.16182  0.15720  0.76128  Biso   1.000  Zn
  Zn9      1.0000 0.88447  0.91299  0.93744  Biso   1.000  Zn
  I13      1.0000 0.08110  0.28239  0.57318  Biso   1.000  I
  I14      1.0000 0.20740  0.32384  0.56510  Biso   1.000  I
  I15      1.0000 0.22696  0.24882  0.78872  Biso   1.000  I
  I16      1.0000 0.11660  0.18293  0.69128  Biso   1.000  I
  I17      1.0000 0.86412  0.92548  0.00127  Biso   1.000  I
  I18      1.0000 0.90123  0.76377  0.90662  Biso   1.000  I
  N25      1.0000 0.15740  0.45030  0.62980  Biso   1.000  N
  C73      1.0000 0.17230  0.40230  0.66360  Biso   1.000  C
  H49      1.0000 0.17290  0.33640  0.66260  Biso   1.000  H
  C74      1.0000 0.18680  0.44610  0.69990  Biso   1.000  C
  H50      1.0000 0.19860  0.41030  0.72310  Biso   1.000  H
  C75      1.0000 0.18440  0.54170  0.70290  Biso   1.000  C
  C76      1.0000 0.16740  0.59160  0.66760  Biso   1.000  C
  H51      1.0000 0.16500  0.65730  0.66810  Biso   1.000  H
  C77      1.0000 0.15450  0.54370  0.63270  Biso   1.000  C
  H52      1.0000 0.14270  0.57790  0.60900  Biso   1.000  H
  N26      1.0000 0.17630  0.01630  0.76840  Biso   1.000  N
  C78      1.0000 0.20500  0.98220  0.79970  Biso   1.000  C
  H53      1.0000 0.21890  0.02430  0.81980  Biso   1.000  H
  C79      1.0000 0.21550  0.89060  0.80410  Biso   1.000  C
  H54      1.0000 0.23580  0.86930  0.82680  Biso   1.000  H
  C80      1.0000 0.19520  0.82820  0.77380  Biso   1.000  C
  C81      1.0000 0.16570  0.86270  0.74160  Biso   1.000  C
  H55      1.0000 0.15190  0.82210  0.72080  Biso   1.000  H
  C82      1.0000 0.15630  0.95610  0.73960  Biso   1.000  C
  H56      1.0000 0.13540  0.97880  0.71760  Biso   1.000  H
  N27      1.0000 0.33960  0.47700  0.89350  Biso   1.000  N
  C83      1.0000 0.33000  0.56760  0.89560  Biso   1.000  C
  H57      1.0000 0.34460  0.60260  0.91800  Biso   1.000  H
  C84      1.0000 0.30010  0.61170  0.86660  Biso   1.000  C
  H58      1.0000 0.29450  0.67560  0.86940  Biso   1.000  H
  C85      1.0000 0.27830  0.56280  0.83380  Biso   1.000  C
  C86      1.0000 0.28760  0.46880  0.83080  Biso   1.000  C
  H59      1.0000 0.27370  0.43300  0.80830  Biso   1.000  H
  C87      1.0000 0.31790  0.42930  0.86180  Biso   1.000  C
  H60      1.0000 0.32350  0.36500  0.86030  Biso   1.000  H
  C88      1.0000 0.20110  0.59300  0.74030  Biso   1.000  C
  N28      1.0000 0.18800  0.68000  0.74230  Biso   1.000  N
  C89      1.0000 0.20710  0.72710  0.77420  Biso   1.000  C
  N29      1.0000 0.23650  0.69610  0.80550  Biso   1.000  N
  C90      1.0000 0.24620  0.60560  0.80110  Biso   1.000  C
  N30      1.0000 0.23000  0.55180  0.76900  Biso   1.000  N
  N31      1.0000 0.13190  0.17580  0.80410  Biso   1.000  N
  C91      1.0000 0.10990  0.10770  0.81380  Biso   1.000  C
  H61      1.0000 0.10650  0.05160  0.79890  Biso   1.000  H
  C92      1.0000 0.09170  0.11480  0.84450  Biso   1.000  C
  H62      1.0000 0.07670  0.06440  0.85090  Biso   1.000  H
  C93      1.0000 0.09580  0.19640  0.86540  Biso   1.000  C
  C94      1.0000 0.11710  0.27000  0.85460  Biso   1.000  C
  H63      1.0000 0.11980  0.32780  0.86820  Biso   1.000  H
  C95      1.0000 0.13390  0.25630  0.82350  Biso   1.000  C
  H64      1.0000 0.14770  0.30670  0.81550  Biso   1.000  H
  N32      1.0000 0.93310  0.99710  0.93810  Biso   1.000  N
  C96      1.0000 0.95270  0.04870  0.96930  Biso   1.000  C
  H65      1.0000 0.94380  0.04710  0.99270  Biso   1.000  H
  C97      1.0000 0.98560  0.10460  0.96890  Biso   1.000  C
  H66      1.0000 0.99880  0.14090  0.99150  Biso   1.000  H
  C98      1.0000 0.99860  0.10650  0.93550  Biso   1.000  C
  C99      1.0000 0.97830  0.05250  0.90230  Biso   1.000  C
  H67      1.0000 0.98660  0.05280  0.87850  Biso   1.000  H
  C100     1.0000 0.94630  0.99990  0.90560  Biso   1.000  C
  H68      1.0000 0.93270  0.96280  0.88350  Biso   1.000  H
  N33      1.0000 0.12050  0.50740  0.03600  Biso   1.000  N
  C101     1.0000 0.08320  0.47440  0.03060  Biso   1.000  C
  H69      1.0000 0.06610  0.50320  0.04440  Biso   1.000  H
  C102     1.0000 0.06800  0.39910  0.00560  Biso   1.000  C
  H70      1.0000 0.04170  0.37500  0.00360  Biso   1.000  H
  C103     1.0000 0.09150  0.36090  0.98400  Biso   1.000  C
  C104     1.0000 0.13150  0.39590  0.98920  Biso   1.000  C
  H71      1.0000 0.14870  0.37010  0.97490  Biso   1.000  H
  C105     1.0000 0.14480  0.46870  0.01580  Biso   1.000  C
  H72      1.0000 0.17150  0.49180  0.01990  Biso   1.000  H
  C106     1.0000 0.07880  0.20830  0.90000  Biso   1.000  C
  N34      1.0000 0.04900  0.15040  0.90200  Biso   1.000  N
  C107     1.0000 0.03350  0.16690  0.93240  Biso   1.000  C
  N35      1.0000 0.04540  0.23420  0.95970  Biso   1.000  N
  C108     1.0000 0.07620  0.28420  0.95470  Biso   1.000  C
  N36      1.0000 0.09400  0.27510  0.92580  Biso   1.000  N
  Zn10     1.0000 0.64103  0.88383  0.57496  Biso   1.000  Zn
  Zn11     1.0000 0.66182  0.65720  0.76128  Biso   1.000  Zn
  Zn12     1.0000 0.38447  0.41299  0.93744  Biso   1.000  Zn
  I19      1.0000 0.58110  0.78239  0.57318  Biso   1.000  I
  I20      1.0000 0.70740  0.82384  0.56510  Biso   1.000  I
  I21      1.0000 0.72696  0.74882  0.78872  Biso   1.000  I
  I22      1.0000 0.61660  0.68293  0.69128  Biso   1.000  I
  I23      1.0000 0.36412  0.42548  0.00127  Biso   1.000  I
  I24      1.0000 0.40123  0.26377  0.90662  Biso   1.000  I
  N37      1.0000 0.65740  0.95030  0.62980  Biso   1.000  N
  C109     1.0000 0.67230  0.90230  0.66360  Biso   1.000  C
  H73      1.0000 0.67290  0.83640  0.66260  Biso   1.000  H
  C110     1.0000 0.68680  0.94610  0.69990  Biso   1.000  C
  H74      1.0000 0.69860  0.91030  0.72310  Biso   1.000  H
  C111     1.0000 0.68440  0.04170  0.70290  Biso   1.000  C
  C112     1.0000 0.66740  0.09160  0.66760  Biso   1.000  C
  H75      1.0000 0.66500  0.15730  0.66810  Biso   1.000  H
  C113     1.0000 0.65450  0.04370  0.63270  Biso   1.000  C
  H76      1.0000 0.64270  0.07790  0.60900  Biso   1.000  H
  N38      1.0000 0.67630  0.51630  0.76840  Biso   1.000  N
  C114     1.0000 0.70500  0.48220  0.79970  Biso   1.000  C
  H77      1.0000 0.71890  0.52430  0.81980  Biso   1.000  H
  C115     1.0000 0.71550  0.39060  0.80410  Biso   1.000  C
  H78      1.0000 0.73580  0.36930  0.82680  Biso   1.000  H
  C116     1.0000 0.69520  0.32820  0.77380  Biso   1.000  C
  C117     1.0000 0.66570  0.36270  0.74160  Biso   1.000  C
  H79      1.0000 0.65190  0.32210  0.72080  Biso   1.000  H
  C118     1.0000 0.65630  0.45610  0.73960  Biso   1.000  C
  H80      1.0000 0.63540  0.47880  0.71760  Biso   1.000  H
  N39      1.0000 0.83960  0.97700  0.89350  Biso   1.000  N
  C119     1.0000 0.83000  0.06760  0.89560  Biso   1.000  C
  H81      1.0000 0.84460  0.10260  0.91800  Biso   1.000  H
  C120     1.0000 0.80010  0.11170  0.86660  Biso   1.000  C
  H82      1.0000 0.79450  0.17560  0.86940  Biso   1.000  H
  C121     1.0000 0.77830  0.06280  0.83380  Biso   1.000  C
  C122     1.0000 0.78760  0.96880  0.83080  Biso   1.000  C
  H83      1.0000 0.77370  0.93300  0.80830  Biso   1.000  H
  C123     1.0000 0.81790  0.92930  0.86180  Biso   1.000  C
  H84      1.0000 0.82350  0.86500  0.86030  Biso   1.000  H
  C124     1.0000 0.70110  0.09300  0.74030  Biso   1.000  C
  N40      1.0000 0.68800  0.18000  0.74230  Biso   1.000  N
  C125     1.0000 0.70710  0.22710  0.77420  Biso   1.000  C
  N41      1.0000 0.73650  0.19610  0.80550  Biso   1.000  N
  C126     1.0000 0.74620  0.10560  0.80110  Biso   1.000  C
  N42      1.0000 0.73000  0.05180  0.76900  Biso   1.000  N
  N43      1.0000 0.63190  0.67580  0.80410  Biso   1.000  N
  C127     1.0000 0.60990  0.60770  0.81380  Biso   1.000  C
  H85      1.0000 0.60650  0.55160  0.79890  Biso   1.000  H
  C128     1.0000 0.59170  0.61480  0.84450  Biso   1.000  C
  H86      1.0000 0.57670  0.56440  0.85090  Biso   1.000  H
  C129     1.0000 0.59580  0.69640  0.86540  Biso   1.000  C
  C130     1.0000 0.61710  0.77000  0.85460  Biso   1.000  C
  H87      1.0000 0.61980  0.82780  0.86820  Biso   1.000  H
  C131     1.0000 0.63390  0.75630  0.82350  Biso   1.000  C
  H88      1.0000 0.64770  0.80670  0.81550  Biso   1.000  H
  N44      1.0000 0.43310  0.49710  0.93810  Biso   1.000  N
  C132     1.0000 0.45270  0.54870  0.96930  Biso   1.000  C
  H89      1.0000 0.44380  0.54710  0.99270  Biso   1.000  H
  C133     1.0000 0.48560  0.60460  0.96890  Biso   1.000  C
  H90      1.0000 0.49880  0.64090  0.99150  Biso   1.000  H
  C134     1.0000 0.49860  0.60650  0.93550  Biso   1.000  C
  C135     1.0000 0.47830  0.55250  0.90230  Biso   1.000  C
  H91      1.0000 0.48660  0.55280  0.87850  Biso   1.000  H
  C136     1.0000 0.44630  0.49990  0.90560  Biso   1.000  C
  H92      1.0000 0.43270  0.46280  0.88350  Biso   1.000  H
  N45      1.0000 0.62050  0.00740  0.03600  Biso   1.000  N
  C137     1.0000 0.58320  0.97440  0.03060  Biso   1.000  C
  H93      1.0000 0.56610  0.00320  0.04440  Biso   1.000  H
  C138     1.0000 0.56800  0.89910  0.00560  Biso   1.000  C
  H94      1.0000 0.54170  0.87500  0.00360  Biso   1.000  H
  C139     1.0000 0.59150  0.86090  0.98400  Biso   1.000  C
  C140     1.0000 0.63150  0.89590  0.98920  Biso   1.000  C
  H95      1.0000 0.64870  0.87010  0.97490  Biso   1.000  H
  C141     1.0000 0.64480  0.96870  0.01580  Biso   1.000  C
  H96      1.0000 0.67150  0.99180  0.01990  Biso   1.000  H
  C142     1.0000 0.57880  0.70830  0.90000  Biso   1.000  C
  N46      1.0000 0.54900  0.65040  0.90200  Biso   1.000  N
  C143     1.0000 0.53350  0.66690  0.93240  Biso   1.000  C
  N47      1.0000 0.54540  0.73420  0.95970  Biso   1.000  N
  C144     1.0000 0.57620  0.78420  0.95470  Biso   1.000  C
  N48      1.0000 0.59400  0.77510  0.92580  Biso   1.000  N
  Zn13     1.0000 0.85897  0.61617  0.42504  Biso   1.000  Zn
  Zn14     1.0000 0.83818  0.84280  0.23872  Biso   1.000  Zn
  Zn15     1.0000 0.11553  0.08701  0.06256  Biso   1.000  Zn
  I25      1.0000 0.91890  0.71761  0.42682  Biso   1.000  I
  I26      1.0000 0.79260  0.67616  0.43490  Biso   1.000  I
  I27      1.0000 0.77304  0.75118  0.21128  Biso   1.000  I
  I28      1.0000 0.88340  0.81707  0.30872  Biso   1.000  I
  I29      1.0000 0.13588  0.07452  0.99873  Biso   1.000  I
  I30      1.0000 0.09877  0.23623  0.09338  Biso   1.000  I
  N49      1.0000 0.84260  0.54970  0.37020  Biso   1.000  N
  C145     1.0000 0.82770  0.59770  0.33640  Biso   1.000  C
  H97      1.0000 0.82710  0.66360  0.33740  Biso   1.000  H
  C146     1.0000 0.81320  0.55390  0.30010  Biso   1.000  C
  H98      1.0000 0.80140  0.58970  0.27690  Biso   1.000  H
  C147     1.0000 0.81560  0.45830  0.29710  Biso   1.000  C
  C148     1.0000 0.83260  0.40840  0.33240  Biso   1.000  C
  H99      1.0000 0.83500  0.34270  0.33190  Biso   1.000  H
  C149     1.0000 0.84550  0.45630  0.36730  Biso   1.000  C
  H100     1.0000 0.85730  0.42210  0.39100  Biso   1.000  H
  N50      1.0000 0.82370  0.98370  0.23160  Biso   1.000  N
  C150     1.0000 0.79500  0.01780  0.20030  Biso   1.000  C
  H101     1.0000 0.78110  0.97570  0.18020  Biso   1.000  H
  C151     1.0000 0.78450  0.10940  0.19590  Biso   1.000  C
  H102     1.0000 0.76420  0.13070  0.17320  Biso   1.000  H
  C152     1.0000 0.80480  0.17180  0.22620  Biso   1.000  C
  C153     1.0000 0.83430  0.13730  0.25840  Biso   1.000  C
  H103     1.0000 0.84810  0.17790  0.27920  Biso   1.000  H
  C154     1.0000 0.84370  0.04390  0.26040  Biso   1.000  C
  H104     1.0000 0.86460  0.02120  0.28240  Biso   1.000  H
  N51      1.0000 0.66040  0.52300  0.10650  Biso   1.000  N
  C155     1.0000 0.67000  0.43240  0.10440  Biso   1.000  C
  H105     1.0000 0.65540  0.39740  0.08200  Biso   1.000  H
  C156     1.0000 0.69990  0.38830  0.13340  Biso   1.000  C
  H106     1.0000 0.70550  0.32440  0.13060  Biso   1.000  H
  C157     1.0000 0.72170  0.43720  0.16620  Biso   1.000  C
  C158     1.0000 0.71240  0.53120  0.16920  Biso   1.000  C
  H107     1.0000 0.72630  0.56700  0.19170  Biso   1.000  H
  C159     1.0000 0.68210  0.57070  0.13820  Biso   1.000  C
  H108     1.0000 0.67650  0.63500  0.13970  Biso   1.000  H
  C160     1.0000 0.79890  0.40700  0.25970  Biso   1.000  C
  N52      1.0000 0.81200  0.32000  0.25770  Biso   1.000  N
  C161     1.0000 0.79290  0.27290  0.22580  Biso   1.000  C
  N53      1.0000 0.76350  0.30390  0.19450  Biso   1.000  N
  C162     1.0000 0.75380  0.39440  0.19890  Biso   1.000  C
  N54      1.0000 0.77000  0.44820  0.23100  Biso   1.000  N
  N55      1.0000 0.86810  0.82420  0.19590  Biso   1.000  N
  C163     1.0000 0.89010  0.89230  0.18620  Biso   1.000  C
  H109     1.0000 0.89350  0.94840  0.20110  Biso   1.000  H
  C164     1.0000 0.90830  0.88520  0.15550  Biso   1.000  C
  H110     1.0000 0.92330  0.93560  0.14910  Biso   1.000  H
  C165     1.0000 0.90420  0.80360  0.13460  Biso   1.000  C
  C166     1.0000 0.88290  0.73000  0.14540  Biso   1.000  C
  H111     1.0000 0.88020  0.67220  0.13180  Biso   1.000  H
  C167     1.0000 0.86610  0.74370  0.17650  Biso   1.000  C
  H112     1.0000 0.85230  0.69330  0.18450  Biso   1.000  H
  N56      1.0000 0.06690  0.00290  0.06190  Biso   1.000  N
  C168     1.0000 0.04730  0.95130  0.03070  Biso   1.000  C
  H113     1.0000 0.05620  0.95290  0.00730  Biso   1.000  H
  C169     1.0000 0.01440  0.89540  0.03110  Biso   1.000  C
  H114     1.0000 0.00120  0.85910  0.00850  Biso   1.000  H
  C170     1.0000 0.00140  0.89350  0.06450  Biso   1.000  C
  C171     1.0000 0.02170  0.94750  0.09770  Biso   1.000  C
  H115     1.0000 0.01340  0.94720  0.12150  Biso   1.000  H
  C172     1.0000 0.05370  0.00010  0.09440  Biso   1.000  C
  H116     1.0000 0.06730  0.03720  0.11650  Biso   1.000  H
  N57      1.0000 0.87950  0.49260  0.96400  Biso   1.000  N
  C173     1.0000 0.91680  0.52560  0.96940  Biso   1.000  C
  H117     1.0000 0.93390  0.49680  0.95560  Biso   1.000  H
  C174     1.0000 0.93200  0.60090  0.99440  Biso   1.000  C
  H118     1.0000 0.95830  0.62500  0.99640  Biso   1.000  H
  C175     1.0000 0.90850  0.63910  0.01600  Biso   1.000  C
  C176     1.0000 0.86850  0.60410  0.01080  Biso   1.000  C
  H119     1.0000 0.85130  0.62990  0.02510  Biso   1.000  H
  C177     1.0000 0.85520  0.53130  0.98420  Biso   1.000  C
  H120     1.0000 0.82850  0.50820  0.98010  Biso   1.000  H
  C178     1.0000 0.92120  0.79170  0.10000  Biso   1.000  C
  N58      1.0000 0.95100  0.84960  0.09800  Biso   1.000  N
  C179     1.0000 0.96650  0.83310  0.06760  Biso   1.000  C
  N59      1.0000 0.95460  0.76580  0.04030  Biso   1.000  N
  C180     1.0000 0.92380  0.71580  0.04530  Biso   1.000  C
  N60      1.0000 0.90600  0.72490  0.07420  Biso   1.000  N
  Zn16     1.0000 0.35897  0.11617  0.42504  Biso   1.000  Zn
  Zn17     1.0000 0.33818  0.34280  0.23872  Biso   1.000  Zn
  Zn18     1.0000 0.61553  0.58701  0.06256  Biso   1.000  Zn
  I31      1.0000 0.41890  0.21761  0.42682  Biso   1.000  I
  I32      1.0000 0.29260  0.17616  0.43490  Biso   1.000  I
  I33      1.0000 0.27304  0.25118  0.21128  Biso   1.000  I
  I34      1.0000 0.38340  0.31707  0.30872  Biso   1.000  I
  I35      1.0000 0.63588  0.57452  0.99873  Biso   1.000  I
  I36      1.0000 0.59877  0.73623  0.09338  Biso   1.000  I
  N61      1.0000 0.34260  0.04970  0.37020  Biso   1.000  N
  C181     1.0000 0.32770  0.09770  0.33640  Biso   1.000  C
  H121     1.0000 0.32710  0.16360  0.33740  Biso   1.000  H
  C182     1.0000 0.31320  0.05390  0.30010  Biso   1.000  C
  H122     1.0000 0.30140  0.08970  0.27690  Biso   1.000  H
  C183     1.0000 0.31560  0.95830  0.29710  Biso   1.000  C
  C184     1.0000 0.33260  0.90840  0.33240  Biso   1.000  C
  H123     1.0000 0.33500  0.84270  0.33190  Biso   1.000  H
  C185     1.0000 0.34550  0.95630  0.36730  Biso   1.000  C
  H124     1.0000 0.35730  0.92210  0.39100  Biso   1.000  H
  N62      1.0000 0.32370  0.48370  0.23160  Biso   1.000  N
  C186     1.0000 0.29500  0.51780  0.20030  Biso   1.000  C
  H125     1.0000 0.28110  0.47570  0.18020  Biso   1.000  H
  C187     1.0000 0.28450  0.60940  0.19590  Biso   1.000  C
  H126     1.0000 0.26420  0.63070  0.17320  Biso   1.000  H
  C188     1.0000 0.30480  0.67180  0.22620  Biso   1.000  C
  C189     1.0000 0.33430  0.63730  0.25840  Biso   1.000  C
  H127     1.0000 0.34810  0.67790  0.27920  Biso   1.000  H
  C190     1.0000 0.34370  0.54390  0.26040  Biso   1.000  C
  H128     1.0000 0.36460  0.52120  0.28240  Biso   1.000  H
  N63      1.0000 0.16040  0.02300  0.10650  Biso   1.000  N
  C191     1.0000 0.17000  0.93240  0.10440  Biso   1.000  C
  H129     1.0000 0.15540  0.89740  0.08200  Biso   1.000  H
  C192     1.0000 0.19990  0.88830  0.13340  Biso   1.000  C
  H130     1.0000 0.20550  0.82440  0.13060  Biso   1.000  H
  C193     1.0000 0.22170  0.93720  0.16620  Biso   1.000  C
  C194     1.0000 0.21240  0.03120  0.16920  Biso   1.000  C
  H131     1.0000 0.22630  0.06700  0.19170  Biso   1.000  H
  C195     1.0000 0.18210  0.07070  0.13820  Biso   1.000  C
  H132     1.0000 0.17650  0.13500  0.13970  Biso   1.000  H
  C196     1.0000 0.29890  0.90700  0.25970  Biso   1.000  C
  N64      1.0000 0.31200  0.82000  0.25770  Biso   1.000  N
  C197     1.0000 0.29290  0.77290  0.22580  Biso   1.000  C
  N65      1.0000 0.26350  0.80390  0.19450  Biso   1.000  N
  C198     1.0000 0.25380  0.89440  0.19890  Biso   1.000  C
  N66      1.0000 0.27000  0.94820  0.23100  Biso   1.000  N
  N67      1.0000 0.36810  0.32420  0.19590  Biso   1.000  N
  C199     1.0000 0.39010  0.39230  0.18620  Biso   1.000  C
  H133     1.0000 0.39350  0.44840  0.20110  Biso   1.000  H
  C200     1.0000 0.40830  0.38520  0.15550  Biso   1.000  C
  H134     1.0000 0.42330  0.43560  0.14910  Biso   1.000  H
  C201     1.0000 0.40420  0.30360  0.13460  Biso   1.000  C
  C202     1.0000 0.38290  0.23000  0.14540  Biso   1.000  C
  H135     1.0000 0.38020  0.17220  0.13180  Biso   1.000  H
  C203     1.0000 0.36610  0.24370  0.17650  Biso   1.000  C
  H136     1.0000 0.35230  0.19330  0.18450  Biso   1.000  H
  N68      1.0000 0.56690  0.50290  0.06190  Biso   1.000  N
  C204     1.0000 0.54730  0.45130  0.03070  Biso   1.000  C
  H137     1.0000 0.55620  0.45290  0.00730  Biso   1.000  H
  C205     1.0000 0.51440  0.39540  0.03110  Biso   1.000  C
  H138     1.0000 0.50120  0.35910  0.00850  Biso   1.000  H
  C206     1.0000 0.50140  0.39350  0.06450  Biso   1.000  C
  C207     1.0000 0.52170  0.44750  0.09770  Biso   1.000  C
  H139     1.0000 0.51340  0.44720  0.12150  Biso   1.000  H
  C208     1.0000 0.55370  0.50010  0.09440  Biso   1.000  C
  H140     1.0000 0.56730  0.53720  0.11650  Biso   1.000  H
  N69      1.0000 0.37950  0.99260  0.96400  Biso   1.000  N
  C209     1.0000 0.41680  0.02560  0.96940  Biso   1.000  C
  H141     1.0000 0.43390  0.99680  0.95560  Biso   1.000  H
  C210     1.0000 0.43200  0.10090  0.99440  Biso   1.000  C
  H142     1.0000 0.45830  0.12500  0.99640  Biso   1.000  H
  C211     1.0000 0.40850  0.13910  0.01600  Biso   1.000  C
  C212     1.0000 0.36850  0.10410  0.01080  Biso   1.000  C
  H143     1.0000 0.35130  0.12990  0.02510  Biso   1.000  H
  C213     1.0000 0.35520  0.03130  0.98420  Biso   1.000  C
  H144     1.0000 0.32850  0.00820  0.98010  Biso   1.000  H
  C214     1.0000 0.42120  0.29170  0.10000  Biso   1.000  C
  N70      1.0000 0.45100  0.34960  0.09800  Biso   1.000  N
  C215     1.0000 0.46650  0.33310  0.06760  Biso   1.000  C
  N71      1.0000 0.45460  0.26580  0.04030  Biso   1.000  N
  C216     1.0000 0.42380  0.21580  0.04530  Biso   1.000  C
  N72      1.0000 0.40600  0.22490  0.07420  Biso   1.000  N
  Zn19     1.0000 0.85897  0.38383  0.92504  Biso   1.000  Zn
  Zn20     1.0000 0.83818  0.15720  0.73872  Biso   1.000  Zn
  Zn21     1.0000 0.11553  0.91299  0.56256  Biso   1.000  Zn
  I37      1.0000 0.91890  0.28239  0.92682  Biso   1.000  I
  I38      1.0000 0.79260  0.32384  0.93490  Biso   1.000  I
  I39      1.0000 0.77304  0.24882  0.71128  Biso   1.000  I
  I40      1.0000 0.88340  0.18293  0.80872  Biso   1.000  I
  I41      1.0000 0.13588  0.92548  0.49873  Biso   1.000  I
  I42      1.0000 0.09877  0.76377  0.59338  Biso   1.000  I
  N73      1.0000 0.84260  0.45030  0.87020  Biso   1.000  N
  C217     1.0000 0.82770  0.40230  0.83640  Biso   1.000  C
  H145     1.0000 0.82710  0.33640  0.83740  Biso   1.000  H
  C218     1.0000 0.81320  0.44610  0.80010  Biso   1.000  C
  H146     1.0000 0.80140  0.41030  0.77690  Biso   1.000  H
  C219     1.0000 0.81560  0.54170  0.79710  Biso   1.000  C
  C220     1.0000 0.83260  0.59160  0.83240  Biso   1.000  C
  H147     1.0000 0.83500  0.65730  0.83190  Biso   1.000  H
  C221     1.0000 0.84550  0.54370  0.86730  Biso   1.000  C
  H148     1.0000 0.85730  0.57790  0.89100  Biso   1.000  H
  N74      1.0000 0.82370  0.01630  0.73160  Biso   1.000  N
  C222     1.0000 0.79500  0.98220  0.70030  Biso   1.000  C
  H149     1.0000 0.78110  0.02430  0.68020  Biso   1.000  H
  C223     1.0000 0.78450  0.89060  0.69590  Biso   1.000  C
  H150     1.0000 0.76420  0.86930  0.67320  Biso   1.000  H
  C224     1.0000 0.80480  0.82820  0.72620  Biso   1.000  C
  C225     1.0000 0.83430  0.86270  0.75840  Biso   1.000  C
  H151     1.0000 0.84810  0.82210  0.77920  Biso   1.000  H
  C226     1.0000 0.84370  0.95610  0.76040  Biso   1.000  C
  H152     1.0000 0.86460  0.97880  0.78240  Biso   1.000  H
  N75      1.0000 0.66040  0.47700  0.60650  Biso   1.000  N
  C227     1.0000 0.67000  0.56760  0.60440  Biso   1.000  C
  H153     1.0000 0.65540  0.60260  0.58200  Biso   1.000  H
  C228     1.0000 0.69990  0.61170  0.63340  Biso   1.000  C
  H154     1.0000 0.70550  0.67560  0.63060  Biso   1.000  H
  C229     1.0000 0.72170  0.56280  0.66620  Biso   1.000  C
  C230     1.0000 0.71240  0.46880  0.66920  Biso   1.000  C
  H155     1.0000 0.72630  0.43300  0.69170  Biso   1.000  H
  C231     1.0000 0.68210  0.42930  0.63820  Biso   1.000  C
  H156     1.0000 0.67650  0.36500  0.63970  Biso   1.000  H
  C232     1.0000 0.79890  0.59300  0.75970  Biso   1.000  C
  N76      1.0000 0.81200  0.68000  0.75770  Biso   1.000  N
  C233     1.0000 0.79290  0.72710  0.72580  Biso   1.000  C
  N77      1.0000 0.76350  0.69610  0.69450  Biso   1.000  N
  C234     1.0000 0.75380  0.60560  0.69890  Biso   1.000  C
  N78      1.0000 0.77000  0.55180  0.73100  Biso   1.000  N
  N79      1.0000 0.86810  0.17580  0.69590  Biso   1.000  N
  C235     1.0000 0.89010  0.10770  0.68620  Biso   1.000  C
  H157     1.0000 0.89350  0.05160  0.70110  Biso   1.000  H
  C236     1.0000 0.90830  0.11480  0.65550  Biso   1.000  C
  H158     1.0000 0.92330  0.06440  0.64910  Biso   1.000  H
  C237     1.0000 0.90420  0.19640  0.63460  Biso   1.000  C
  C238     1.0000 0.88290  0.27000  0.64540  Biso   1.000  C
  H159     1.0000 0.88020  0.32780  0.63180  Biso   1.000  H
  C239     1.0000 0.86610  0.25630  0.67650  Biso   1.000  C
  H160     1.0000 0.85230  0.30670  0.68450  Biso   1.000  H
  N80      1.0000 0.06690  0.99710  0.56190  Biso   1.000  N
  C240     1.0000 0.04730  0.04870  0.53070  Biso   1.000  C
  H161     1.0000 0.05620  0.04710  0.50730  Biso   1.000  H
  C241     1.0000 0.01440  0.10460  0.53110  Biso   1.000  C
  H162     1.0000 0.00120  0.14090  0.50850  Biso   1.000  H
  C242     1.0000 0.00140  0.10650  0.56450  Biso   1.000  C
  C243     1.0000 0.02170  0.05250  0.59770  Biso   1.000  C
  H163     1.0000 0.01340  0.05280  0.62150  Biso   1.000  H
  C244     1.0000 0.05370  0.99990  0.59440  Biso   1.000  C
  H164     1.0000 0.06730  0.96280  0.61650  Biso   1.000  H
  N81      1.0000 0.87950  0.50740  0.46400  Biso   1.000  N
  C245     1.0000 0.91680  0.47440  0.46940  Biso   1.000  C
  H165     1.0000 0.93390  0.50320  0.45560  Biso   1.000  H
  C246     1.0000 0.93200  0.39910  0.49440  Biso   1.000  C
  H166     1.0000 0.95830  0.37500  0.49640  Biso   1.000  H
  C247     1.0000 0.90850  0.36090  0.51600  Biso   1.000  C
  C248     1.0000 0.86850  0.39590  0.51080  Biso   1.000  C
  H167     1.0000 0.85130  0.37010  0.52510  Biso   1.000  H
  C249     1.0000 0.85520  0.46870  0.48420  Biso   1.000  C
  H168     1.0000 0.82850  0.49180  0.48010  Biso   1.000  H
  C250     1.0000 0.92120  0.20830  0.60000  Biso   1.000  C
  N82      1.0000 0.95100  0.15040  0.59800  Biso   1.000  N
  C251     1.0000 0.96650  0.16690  0.56760  Biso   1.000  C
  N83      1.0000 0.95460  0.23420  0.54030  Biso   1.000  N
  C252     1.0000 0.92380  0.28420  0.54530  Biso   1.000  C
  N84      1.0000 0.90600  0.27510  0.57420  Biso   1.000  N
  Zn22     1.0000 0.35897  0.88383  0.92504  Biso   1.000  Zn
  Zn23     1.0000 0.33818  0.65720  0.73872  Biso   1.000  Zn
  Zn24     1.0000 0.61553  0.41299  0.56256  Biso   1.000  Zn
  I43      1.0000 0.41890  0.78239  0.92682  Biso   1.000  I
  I44      1.0000 0.29260  0.82384  0.93490  Biso   1.000  I
  I45      1.0000 0.27304  0.74882  0.71128  Biso   1.000  I
  I46      1.0000 0.38340  0.68293  0.80872  Biso   1.000  I
  I47      1.0000 0.63588  0.42548  0.49873  Biso   1.000  I
  I48      1.0000 0.59877  0.26377  0.59338  Biso   1.000  I
  N85      1.0000 0.34260  0.95030  0.87020  Biso   1.000  N
  C253     1.0000 0.32770  0.90230  0.83640  Biso   1.000  C
  H169     1.0000 0.32710  0.83640  0.83740  Biso   1.000  H
  C254     1.0000 0.31320  0.94610  0.80010  Biso   1.000  C
  H170     1.0000 0.30140  0.91030  0.77690  Biso   1.000  H
  C255     1.0000 0.31560  0.04170  0.79710  Biso   1.000  C
  C256     1.0000 0.33260  0.09160  0.83240  Biso   1.000  C
  H171     1.0000 0.33500  0.15730  0.83190  Biso   1.000  H
  C257     1.0000 0.34550  0.04370  0.86730  Biso   1.000  C
  H172     1.0000 0.35730  0.07790  0.89100  Biso   1.000  H
  N86      1.0000 0.32370  0.51630  0.73160  Biso   1.000  N
  C258     1.0000 0.29500  0.48220  0.70030  Biso   1.000  C
  H173     1.0000 0.28110  0.52430  0.68020  Biso   1.000  H
  C259     1.0000 0.28450  0.39060  0.69590  Biso   1.000  C
  H174     1.0000 0.26420  0.36930  0.67320  Biso   1.000  H
  C260     1.0000 0.30480  0.32820  0.72620  Biso   1.000  C
  C261     1.0000 0.33430  0.36270  0.75840  Biso   1.000  C
  H175     1.0000 0.34810  0.32210  0.77920  Biso   1.000  H
  C262     1.0000 0.34370  0.45610  0.76040  Biso   1.000  C
  H176     1.0000 0.36460  0.47880  0.78240  Biso   1.000  H
  N87      1.0000 0.16040  0.97700  0.60650  Biso   1.000  N
  C263     1.0000 0.17000  0.06760  0.60440  Biso   1.000  C
  H177     1.0000 0.15540  0.10260  0.58200  Biso   1.000  H
  C264     1.0000 0.19990  0.11170  0.63340  Biso   1.000  C
  H178     1.0000 0.20550  0.17560  0.63060  Biso   1.000  H
  C265     1.0000 0.22170  0.06280  0.66620  Biso   1.000  C
  C266     1.0000 0.21240  0.96880  0.66920  Biso   1.000  C
  H179     1.0000 0.22630  0.93300  0.69170  Biso   1.000  H
  C267     1.0000 0.18210  0.92930  0.63820  Biso   1.000  C
  H180     1.0000 0.17650  0.86500  0.63970  Biso   1.000  H
  C268     1.0000 0.29890  0.09300  0.75970  Biso   1.000  C
  N88      1.0000 0.31200  0.18000  0.75770  Biso   1.000  N
  C269     1.0000 0.29290  0.22710  0.72580  Biso   1.000  C
  N89      1.0000 0.26350  0.19610  0.69450  Biso   1.000  N
  C270     1.0000 0.25380  0.10560  0.69890  Biso   1.000  C
  N90      1.0000 0.27000  0.05180  0.73100  Biso   1.000  N
  N91      1.0000 0.36810  0.67580  0.69590  Biso   1.000  N
  C271     1.0000 0.39010  0.60770  0.68620  Biso   1.000  C
  H181     1.0000 0.39350  0.55160  0.70110  Biso   1.000  H
  C272     1.0000 0.40830  0.61480  0.65550  Biso   1.000  C
  H182     1.0000 0.42330  0.56440  0.64910  Biso   1.000  H
  C273     1.0000 0.40420  0.69640  0.63460  Biso   1.000  C
  C274     1.0000 0.38290  0.77000  0.64540  Biso   1.000  C
  H183     1.0000 0.38020  0.82780  0.63180  Biso   1.000  H
  C275     1.0000 0.36610  0.75630  0.67650  Biso   1.000  C
  H184     1.0000 0.35230  0.80670  0.68450  Biso   1.000  H
  N92      1.0000 0.56690  0.49710  0.56190  Biso   1.000  N
  C276     1.0000 0.54730  0.54870  0.53070  Biso   1.000  C
  H185     1.0000 0.55620  0.54710  0.50730  Biso   1.000  H
  C277     1.0000 0.51440  0.60460  0.53110  Biso   1.000  C
  H186     1.0000 0.50120  0.64090  0.50850  Biso   1.000  H
  C278     1.0000 0.50140  0.60650  0.56450  Biso   1.000  C
  C279     1.0000 0.52170  0.55250  0.59770  Biso   1.000  C
  H187     1.0000 0.51340  0.55280  0.62150  Biso   1.000  H
  C280     1.0000 0.55370  0.49990  0.59440  Biso   1.000  C
  H188     1.0000 0.56730  0.46280  0.61650  Biso   1.000  H
  N93      1.0000 0.37950  0.00740  0.46400  Biso   1.000  N
  C281     1.0000 0.41680  0.97440  0.46940  Biso   1.000  C
  H189     1.0000 0.43390  0.00320  0.45560  Biso   1.000  H
  C282     1.0000 0.43200  0.89910  0.49440  Biso   1.000  C
  H190     1.0000 0.45830  0.87500  0.49640  Biso   1.000  H
  C283     1.0000 0.40850  0.86090  0.51600  Biso   1.000  C
  C284     1.0000 0.36850  0.89590  0.51080  Biso   1.000  C
  H191     1.0000 0.35130  0.87010  0.52510  Biso   1.000  H
  C285     1.0000 0.35520  0.96870  0.48420  Biso   1.000  C
  H192     1.0000 0.32850  0.99180  0.48010  Biso   1.000  H
  C286     1.0000 0.42120  0.70830  0.60000  Biso   1.000  C
  N94      1.0000 0.45100  0.65040  0.59800  Biso   1.000  N
  C287     1.0000 0.46650  0.66690  0.56760  Biso   1.000  C
  N95      1.0000 0.45460  0.73420  0.54030  Biso   1.000  N
  C288     1.0000 0.42380  0.78420  0.54530  Biso   1.000  C
  N96      1.0000 0.40600  0.77510  0.57420  Biso   1.000  N
