data_image0
_cell_length_a       15.97
_cell_length_b       28.166
_cell_length_c       23.583
_cell_angle_alpha    90
_cell_angle_beta     108.092
_cell_angle_gamma    90

_symmetry_space_group_name_H-M    "P 1"
_symmetry_int_tables_number       1

loop_
  _symmetry_equiv_pos_as_xyz
  'x, y, z'

loop_
  _atom_site_label
  _atom_site_occupancy
  _atom_site_fract_x
  _atom_site_fract_y
  _atom_site_fract_z
  _atom_site_thermal_displace_type
  _atom_site_B_iso_or_equiv
  _atom_site_type_symbol
  C1       1.0000 0.33180  0.03100  0.76900  Biso   1.000  C
  C2       1.0000 0.36920  0.99270  0.73990  Biso   1.000  C
  C3       1.0000 0.38040  0.94670  0.76310  Biso   1.000  C
  H1       1.0000 0.36880  0.94020  0.79860  Biso   1.000  H
  C4       1.0000 0.38910  0.00100  0.68930  Biso   1.000  C
  H2       1.0000 0.38460  0.03180  0.67460  Biso   1.000  H
  C5       1.0000 0.40840  0.91110  0.73380  Biso   1.000  C
  H3       1.0000 0.41810  0.88070  0.75000  Biso   1.000  H
  C6       1.0000 0.41580  0.96550  0.65850  Biso   1.000  C
  H4       1.0000 0.42920  0.97210  0.62360  Biso   1.000  H
  C7       1.0000 0.42210  0.92070  0.68040  Biso   1.000  C
  C8       1.0000 0.43660  0.83810  0.65850  Biso   1.000  C
  C9       1.0000 0.35470  0.82000  0.65180  Biso   1.000  C
  H5       1.0000 0.30520  0.83930  0.63960  Biso   1.000  H
  C10      1.0000 0.50910  0.80920  0.67490  Biso   1.000  C
  H6       1.0000 0.56460  0.82150  0.67860  Biso   1.000  H
  C11      1.0000 0.34680  0.77300  0.66330  Biso   1.000  C
  H7       1.0000 0.29120  0.76050  0.65860  Biso   1.000  H
  C12      1.0000 0.49930  0.76210  0.68600  Biso   1.000  C
  H8       1.0000 0.54840  0.74230  0.69670  Biso   1.000  H
  C13      1.0000 0.41880  0.74390  0.68150  Biso   1.000  C
  C14      1.0000 0.40880  0.69340  0.69860  Biso   1.000  C
  C15      1.0000 0.29610  0.20630  0.73880  Biso   1.000  C
  C16      1.0000 0.22950  0.24300  0.71070  Biso   1.000  C
  C17      1.0000 0.25600  0.29010  0.71480  Biso   1.000  C
  H9       1.0000 0.31450  0.29790  0.73420  Biso   1.000  H
  C18      1.0000 0.14290  0.23110  0.68060  Biso   1.000  C
  H10      1.0000 0.12540  0.19950  0.67780  Biso   1.000  H
  C19      1.0000 0.19480  0.32590  0.68960  Biso   1.000  C
  H11      1.0000 0.21110  0.35770  0.69230  Biso   1.000  H
  C20      1.0000 0.08280  0.26600  0.65500  Biso   1.000  C
  H12      1.0000 0.02490  0.25810  0.63410  Biso   1.000  H
  C21      1.0000 0.10890  0.31190  0.66040  Biso   1.000  C
  C22      1.0000 0.00750  0.35500  0.58090  Biso   1.000  C
  C23      1.0000 0.93950  0.38760  0.56820  Biso   1.000  C
  H13      1.0000 0.92650  0.40410  0.59860  Biso   1.000  H
  C24      1.0000 0.03150  0.33340  0.53530  Biso   1.000  C
  H14      1.0000 0.07930  0.31280  0.54420  Biso   1.000  H
  C25      1.0000 0.89190  0.39510  0.51000  Biso   1.000  C
  H15      1.0000 0.84400  0.41560  0.50090  Biso   1.000  H
  C26      1.0000 0.98380  0.34270  0.47680  Biso   1.000  C
  H16      1.0000 0.99980  0.32840  0.44620  Biso   1.000  H
  C27      1.0000 0.91390  0.37250  0.46360  Biso   1.000  C
  C28      1.0000 0.85430  0.37960  0.40170  Biso   1.000  C
  C29      1.0000 0.41350  0.11670  0.63570  Biso   1.000  C
  C30      1.0000 0.32640  0.10610  0.59090  Biso   1.000  C
  C31      1.0000 0.25050  0.12190  0.60060  Biso   1.000  C
  H17      1.0000 0.25430  0.13820  0.63560  Biso   1.000  H
  C32      1.0000 0.31940  0.08140  0.53950  Biso   1.000  C
  H18      1.0000 0.37010  0.07040  0.53250  Biso   1.000  H
  C33      1.0000 0.16790  0.11400  0.55890  Biso   1.000  C
  H19      1.0000 0.11720  0.12520  0.56570  Biso   1.000  H
  C34      1.0000 0.23790  0.07260  0.49770  Biso   1.000  C
  H20      1.0000 0.23450  0.05560  0.46330  Biso   1.000  H
  C35      1.0000 0.16260  0.08910  0.50730  Biso   1.000  C
  C36      1.0000 0.04860  0.04480  0.43640  Biso   1.000  C
  C37      1.0000 0.97930  0.05140  0.38410  Biso   1.000  C
  H21      1.0000 0.96020  0.08170  0.37070  Biso   1.000  H
  C38      1.0000 0.07970  0.00110  0.45480  Biso   1.000  C
  H22      1.0000 0.12620  0.99700  0.48980  Biso   1.000  H
  C39      1.0000 0.93950  0.01180  0.35250  Biso   1.000  C
  H23      1.0000 0.89110  0.01580  0.31860  Biso   1.000  H
  C40      1.0000 0.04000  0.96160  0.41970  Biso   1.000  C
  H24      1.0000 0.06250  0.93150  0.43120  Biso   1.000  H
  C41      1.0000 0.96970  0.96660  0.36970  Biso   1.000  C
  C42      1.0000 0.92950  0.92570  0.33240  Biso   1.000  C
  C43      1.0000 0.77230  0.21980  0.68410  Biso   1.000  C
  C44      1.0000 0.75760  0.27110  0.66790  Biso   1.000  C
  C45      1.0000 0.67270  0.28790  0.63930  Biso   1.000  C
  H25      1.0000 0.62540  0.26690  0.63050  Biso   1.000  H
  C46      1.0000 0.82670  0.30270  0.67870  Biso   1.000  C
  H26      1.0000 0.88410  0.29180  0.69530  Biso   1.000  H
  C47      1.0000 0.65770  0.33480  0.62380  Biso   1.000  C
  H27      1.0000 0.60080  0.34530  0.60410  Biso   1.000  H
  C48      1.0000 0.81220  0.35010  0.66520  Biso   1.000  C
  H28      1.0000 0.85940  0.37110  0.67470  Biso   1.000  H
  C49      1.0000 0.72770  0.36690  0.63750  Biso   1.000  C
  C50      1.0000 0.76330  0.44940  0.63830  Biso   1.000  C
  C51      1.0000 0.77570  0.47860  0.59540  Biso   1.000  C
  H29      1.0000 0.74850  0.47200  0.55520  Biso   1.000  H
  C52      1.0000 0.79810  0.45980  0.69740  Biso   1.000  C
  H30      1.0000 0.78640  0.44050  0.72600  Biso   1.000  H
  C53      1.0000 0.82940  0.51810  0.61230  Biso   1.000  C
  H31      1.0000 0.83970  0.53740  0.58310  Biso   1.000  H
  C54      1.0000 0.85120  0.49950  0.71440  Biso   1.000  C
  H32      1.0000 0.87610  0.50640  0.75470  Biso   1.000  H
  C55      1.0000 0.86780  0.52930  0.67190  Biso   1.000  C
  C56      1.0000 0.92880  0.57090  0.68890  Biso   1.000  C
  C57      1.0000 0.73960  0.05780  0.66330  Biso   1.000  C
  C58      1.0000 0.72850  0.00580  0.65410  Biso   1.000  C
  C59      1.0000 0.64470  0.98660  0.63650  Biso   1.000  C
  H33      1.0000 0.59580  0.00610  0.63070  Biso   1.000  H
  C60      1.0000 0.80110  0.97610  0.66360  Biso   1.000  C
  H34      1.0000 0.85740  0.98910  0.67470  Biso   1.000  H
  C61      1.0000 0.63430  0.93860  0.62770  Biso   1.000  C
  H35      1.0000 0.57790  0.92580  0.61470  Biso   1.000  H
  C62      1.0000 0.79090  0.92800  0.65690  Biso   1.000  C
  H36      1.0000 0.83980  0.90820  0.66490  Biso   1.000  H
  C63      1.0000 0.70600  0.90920  0.63780  Biso   1.000  C
  C64      1.0000 0.75260  0.82690  0.64050  Biso   1.000  C
  C65      1.0000 0.78100  0.81270  0.69780  Biso   1.000  C
  H37      1.0000 0.76410  0.82860  0.72700  Biso   1.000  H
  C66      1.0000 0.78110  0.80680  0.59820  Biso   1.000  C
  H38      1.0000 0.76360  0.81870  0.55950  Biso   1.000  H
  C67      1.0000 0.83680  0.77290  0.71210  Biso   1.000  C
  H39      1.0000 0.85590  0.76200  0.75130  Biso   1.000  H
  C68      1.0000 0.83680  0.76820  0.61330  Biso   1.000  C
  H40      1.0000 0.85680  0.75410  0.58420  Biso   1.000  H
  C69      1.0000 0.86350  0.75010  0.66990  Biso   1.000  C
  C70      1.0000 0.92320  0.70850  0.68550  Biso   1.000  C
  C71      1.0000 0.79620  0.12960  0.80850  Biso   1.000  C
  C72      1.0000 0.83460  0.12420  0.87520  Biso   1.000  C
  C73      1.0000 0.78100  0.13260  0.91230  Biso   1.000  C
  H41      1.0000 0.72240  0.14150  0.89580  Biso   1.000  H
  C74      1.0000 0.91950  0.11010  0.90080  Biso   1.000  C
  H42      1.0000 0.95540  0.10390  0.87720  Biso   1.000  H
  C75      1.0000 0.95310  0.10480  0.96420  Biso   1.000  C
  H43      1.0000 0.01050  0.09420  0.98150  Biso   1.000  H
  C76      1.0000 0.81830  0.12710  0.97470  Biso   1.000  C
  H44      1.0000 0.78390  0.13200  0.99950  Biso   1.000  H
  C77      1.0000 0.90410  0.11480  0.99830  Biso   1.000  C
  C78      1.0000 0.94750  0.07070  0.09060  Biso   1.000  C
  C79      1.0000 0.88670  0.03500  0.07060  Biso   1.000  C
  H45      1.0000 0.84340  0.03740  0.03370  Biso   1.000  H
  C80      1.0000 0.01060  0.06770  0.14490  Biso   1.000  C
  H46      1.0000 0.04830  0.09310  0.15950  Biso   1.000  H
  C81      1.0000 0.01790  0.02690  0.17770  Biso   1.000  C
  H47      1.0000 0.06460  0.02340  0.21270  Biso   1.000  H
  C82      1.0000 0.89120  0.99590  0.10610  Biso   1.000  C
  H48      1.0000 0.84900  0.97210  0.09380  Biso   1.000  H
  C83      1.0000 0.95700  0.99130  0.15930  Biso   1.000  C
  C84      1.0000 0.96030  0.94950  0.19860  Biso   1.000  C
  Dy1      1.0000 0.22134  0.10491  0.79003  Biso   1.000  Dy
  Dy2      1.0000 0.44000  0.14055  0.78160  Biso   1.000  Dy
  Dy3      1.0000 0.60670  0.14227  0.69583  Biso   1.000  Dy
  Dy4      1.0000 0.91402  0.13029  0.70754  Biso   1.000  Dy
  O1       1.0000 0.28260  0.02235  0.79960  Biso   1.000  O
  O2       1.0000 0.34740  0.07418  0.75810  Biso   1.000  O
  O3       1.0000 0.44810  0.88562  0.64730  Biso   1.000  O
  O4       1.0000 0.47670  0.67167  0.72700  Biso   1.000  O
  O5       1.0000 0.33220  0.67560  0.68520  Biso   1.000  O
  O6       1.0000 0.27490  0.16224  0.73780  Biso   1.000  O
  O7       1.0000 0.37510  0.21765  0.76100  Biso   1.000  O
  O8       1.0000 0.05040  0.34940  0.64000  Biso   1.000  O
  O9       1.0000 0.87220  0.36181  0.35700  Biso   1.000  O
  O10      1.0000 0.78540  0.40427  0.39350  Biso   1.000  O
  O11      1.0000 0.41540  0.14127  0.68110  Biso   1.000  O
  O12      1.0000 0.48320  0.10283  0.62640  Biso   1.000  O
  O13      1.0000 0.07960  0.08640  0.46690  Biso   1.000  O
  O14      1.0000 0.97600  0.88970  0.33400  Biso   1.000  O
  O15      1.0000 0.85080  0.92850  0.30020  Biso   1.000  O
  O16      1.0000 0.70610  0.19470  0.68070  Biso   1.000  O
  O17      1.0000 0.85020  0.20454  0.69970  Biso   1.000  O
  O18      1.0000 0.70550  0.41215  0.61740  Biso   1.000  O
  O19      1.0000 0.94800  0.58809  0.74160  Biso   1.000  O
  O20      1.0000 0.96150  0.58662  0.65150  Biso   1.000  O
  O21      1.0000 0.67680  0.07979  0.67320  Biso   1.000  O
  O22      1.0000 0.80850  0.07741  0.66020  Biso   1.000  O
  O23      1.0000 0.68770  0.86223  0.62380  Biso   1.000  O
  O24      1.0000 0.94310  0.69098  0.73763  Biso   1.000  O
  O25      1.0000 0.95740  0.69285  0.64840  Biso   1.000  O
  O26      1.0000 0.84820  0.12690  0.77950  Biso   1.000  O
  O27      1.0000 0.71600  0.13739  0.78830  Biso   1.000  O
  O28      1.0000 0.94430  0.11330  0.05870  Biso   1.000  O
  O29      1.0000 0.89190  0.92464  0.18680  Biso   1.000  O
  O30      1.0000 0.02840  0.94085  0.24070  Biso   1.000  O
  C85      1.0000 0.16820  0.53100  0.73100  Biso   1.000  C
  C86      1.0000 0.13080  0.49270  0.76010  Biso   1.000  C
  C87      1.0000 0.11960  0.44670  0.73690  Biso   1.000  C
  H49      1.0000 0.13120  0.44020  0.70140  Biso   1.000  H
  C88      1.0000 0.11090  0.50100  0.81070  Biso   1.000  C
  H50      1.0000 0.11540  0.53180  0.82540  Biso   1.000  H
  C89      1.0000 0.09160  0.41110  0.76620  Biso   1.000  C
  H51      1.0000 0.08190  0.38070  0.75000  Biso   1.000  H
  C90      1.0000 0.08420  0.46550  0.84150  Biso   1.000  C
  H52      1.0000 0.07080  0.47210  0.87640  Biso   1.000  H
  C91      1.0000 0.07790  0.42070  0.81960  Biso   1.000  C
  C92      1.0000 0.06340  0.33810  0.84150  Biso   1.000  C
  C93      1.0000 0.14530  0.32000  0.84820  Biso   1.000  C
  H53      1.0000 0.19480  0.33930  0.86040  Biso   1.000  H
  C94      1.0000 0.99090  0.30920  0.82510  Biso   1.000  C
  H54      1.0000 0.93540  0.32150  0.82140  Biso   1.000  H
  C95      1.0000 0.15320  0.27300  0.83670  Biso   1.000  C
  H55      1.0000 0.20880  0.26050  0.84140  Biso   1.000  H
  C96      1.0000 0.00070  0.26210  0.81400  Biso   1.000  C
  H56      1.0000 0.95160  0.24230  0.80330  Biso   1.000  H
  C97      1.0000 0.08120  0.24390  0.81850  Biso   1.000  C
  C98      1.0000 0.09120  0.19340  0.80140  Biso   1.000  C
  C99      1.0000 0.20390  0.70630  0.76120  Biso   1.000  C
  C100     1.0000 0.27050  0.74300  0.78930  Biso   1.000  C
  C101     1.0000 0.24400  0.79010  0.78520  Biso   1.000  C
  H57      1.0000 0.18550  0.79790  0.76580  Biso   1.000  H
  C102     1.0000 0.35710  0.73110  0.81940  Biso   1.000  C
  H58      1.0000 0.37460  0.69950  0.82220  Biso   1.000  H
  C103     1.0000 0.30520  0.82590  0.81040  Biso   1.000  C
  H59      1.0000 0.28890  0.85770  0.80770  Biso   1.000  H
  C104     1.0000 0.41720  0.76600  0.84500  Biso   1.000  C
  H60      1.0000 0.47510  0.75810  0.86590  Biso   1.000  H
  C105     1.0000 0.39110  0.81190  0.83960  Biso   1.000  C
  C106     1.0000 0.49250  0.85500  0.91910  Biso   1.000  C
  C107     1.0000 0.56050  0.88760  0.93180  Biso   1.000  C
  H61      1.0000 0.57350  0.90410  0.90140  Biso   1.000  H
  C108     1.0000 0.46850  0.83340  0.96470  Biso   1.000  C
  H62      1.0000 0.42070  0.81280  0.95580  Biso   1.000  H
  C109     1.0000 0.60810  0.89510  0.99000  Biso   1.000  C
  H63      1.0000 0.65600  0.91560  0.99910  Biso   1.000  H
  C110     1.0000 0.51620  0.84270  0.02320  Biso   1.000  C
  H64      1.0000 0.50020  0.82840  0.05380  Biso   1.000  H
  C111     1.0000 0.58610  0.87250  0.03640  Biso   1.000  C
  C112     1.0000 0.64570  0.87960  0.09830  Biso   1.000  C
  C113     1.0000 0.08650  0.61670  0.86430  Biso   1.000  C
  C114     1.0000 0.17360  0.60610  0.90910  Biso   1.000  C
  C115     1.0000 0.24950  0.62190  0.89940  Biso   1.000  C
  H65      1.0000 0.24570  0.63820  0.86440  Biso   1.000  H
  C116     1.0000 0.18060  0.58140  0.96050  Biso   1.000  C
  H66      1.0000 0.12990  0.57040  0.96750  Biso   1.000  H
  C117     1.0000 0.33210  0.61400  0.94110  Biso   1.000  C
  H67      1.0000 0.38280  0.62520  0.93430  Biso   1.000  H
  C118     1.0000 0.26210  0.57260  0.00230  Biso   1.000  C
  H68      1.0000 0.26550  0.55560  0.03670  Biso   1.000  H
  C119     1.0000 0.33740  0.58910  0.99270  Biso   1.000  C
  C120     1.0000 0.45140  0.54480  0.06360  Biso   1.000  C
  C121     1.0000 0.52070  0.55140  0.11590  Biso   1.000  C
  H69      1.0000 0.53980  0.58170  0.12930  Biso   1.000  H
  C122     1.0000 0.42030  0.50110  0.04520  Biso   1.000  C
  H70      1.0000 0.37380  0.49700  0.01020  Biso   1.000  H
  C123     1.0000 0.56050  0.51180  0.14750  Biso   1.000  C
  H71      1.0000 0.60890  0.51580  0.18140  Biso   1.000  H
  C124     1.0000 0.46000  0.46160  0.08030  Biso   1.000  C
  H72      1.0000 0.43750  0.43150  0.06880  Biso   1.000  H
  C125     1.0000 0.53030  0.46660  0.13030  Biso   1.000  C
  C126     1.0000 0.57050  0.42570  0.16760  Biso   1.000  C
  C127     1.0000 0.72770  0.71980  0.81590  Biso   1.000  C
  C128     1.0000 0.74240  0.77110  0.83210  Biso   1.000  C
  C129     1.0000 0.82730  0.78790  0.86070  Biso   1.000  C
  H73      1.0000 0.87460  0.76690  0.86950  Biso   1.000  H
  C130     1.0000 0.67330  0.80270  0.82130  Biso   1.000  C
  H74      1.0000 0.61590  0.79180  0.80470  Biso   1.000  H
  C131     1.0000 0.84230  0.83480  0.87620  Biso   1.000  C
  H75      1.0000 0.89920  0.84530  0.89590  Biso   1.000  H
  C132     1.0000 0.68780  0.85010  0.83480  Biso   1.000  C
  H76      1.0000 0.64060  0.87110  0.82530  Biso   1.000  H
  C133     1.0000 0.77230  0.86690  0.86250  Biso   1.000  C
  C134     1.0000 0.73670  0.94940  0.86170  Biso   1.000  C
  C135     1.0000 0.72430  0.97860  0.90460  Biso   1.000  C
  H77      1.0000 0.75150  0.97200  0.94480  Biso   1.000  H
  C136     1.0000 0.70190  0.95980  0.80260  Biso   1.000  C
  H78      1.0000 0.71360  0.94050  0.77400  Biso   1.000  H
  C137     1.0000 0.67060  0.01810  0.88770  Biso   1.000  C
  H79      1.0000 0.66030  0.03740  0.91690  Biso   1.000  H
  C138     1.0000 0.64880  0.99950  0.78560  Biso   1.000  C
  H80      1.0000 0.62390  0.00640  0.74530  Biso   1.000  H
  C139     1.0000 0.63220  0.02930  0.82810  Biso   1.000  C
  C140     1.0000 0.57120  0.07090  0.81110  Biso   1.000  C
  C141     1.0000 0.76040  0.55780  0.83670  Biso   1.000  C
  C142     1.0000 0.77150  0.50580  0.84590  Biso   1.000  C
  C143     1.0000 0.85530  0.48660  0.86350  Biso   1.000  C
  H81      1.0000 0.90420  0.50610  0.86930  Biso   1.000  H
  C144     1.0000 0.69890  0.47610  0.83640  Biso   1.000  C
  H82      1.0000 0.64260  0.48910  0.82530  Biso   1.000  H
  C145     1.0000 0.86570  0.43860  0.87230  Biso   1.000  C
  H83      1.0000 0.92210  0.42580  0.88530  Biso   1.000  H
  C146     1.0000 0.70910  0.42800  0.84310  Biso   1.000  C
  H84      1.0000 0.66020  0.40820  0.83510  Biso   1.000  H
  C147     1.0000 0.79400  0.40920  0.86220  Biso   1.000  C
  C148     1.0000 0.74740  0.32690  0.85950  Biso   1.000  C
  C149     1.0000 0.71900  0.31270  0.80220  Biso   1.000  C
  H85      1.0000 0.73590  0.32860  0.77300  Biso   1.000  H
  C150     1.0000 0.71890  0.30680  0.90180  Biso   1.000  C
  H86      1.0000 0.73640  0.31870  0.94050  Biso   1.000  H
  C151     1.0000 0.66320  0.27290  0.78790  Biso   1.000  C
  H87      1.0000 0.64410  0.26200  0.74870  Biso   1.000  H
  C152     1.0000 0.66320  0.26820  0.88670  Biso   1.000  C
  H88      1.0000 0.64320  0.25410  0.91580  Biso   1.000  H
  C153     1.0000 0.63650  0.25010  0.83010  Biso   1.000  C
  C154     1.0000 0.57680  0.20850  0.81450  Biso   1.000  C
  C155     1.0000 0.70380  0.62960  0.69150  Biso   1.000  C
  C156     1.0000 0.66540  0.62420  0.62480  Biso   1.000  C
  C157     1.0000 0.71900  0.63260  0.58770  Biso   1.000  C
  H89      1.0000 0.77760  0.64150  0.60420  Biso   1.000  H
  C158     1.0000 0.58050  0.61010  0.59920  Biso   1.000  C
  H90      1.0000 0.54460  0.60390  0.62280  Biso   1.000  H
  C159     1.0000 0.54690  0.60480  0.53580  Biso   1.000  C
  H91      1.0000 0.48950  0.59420  0.51850  Biso   1.000  H
  C160     1.0000 0.68170  0.62710  0.52530  Biso   1.000  C
  H92      1.0000 0.71610  0.63200  0.50050  Biso   1.000  H
  C161     1.0000 0.59590  0.61480  0.50170  Biso   1.000  C
  C162     1.0000 0.55250  0.57070  0.40940  Biso   1.000  C
  C163     1.0000 0.61330  0.53500  0.42940  Biso   1.000  C
  H93      1.0000 0.65660  0.53740  0.46630  Biso   1.000  H
  C164     1.0000 0.48940  0.56770  0.35510  Biso   1.000  C
  H94      1.0000 0.45170  0.59310  0.34050  Biso   1.000  H
  C165     1.0000 0.48210  0.52690  0.32230  Biso   1.000  C
  H95      1.0000 0.43540  0.52340  0.28730  Biso   1.000  H
  C166     1.0000 0.60880  0.49590  0.39390  Biso   1.000  C
  H96      1.0000 0.65100  0.47210  0.40620  Biso   1.000  H
  C167     1.0000 0.54300  0.49130  0.34070  Biso   1.000  C
  C168     1.0000 0.53970  0.44950  0.30140  Biso   1.000  C
  Dy5      1.0000 0.27866  0.60491  0.70997  Biso   1.000  Dy
  Dy6      1.0000 0.06000  0.64055  0.71840  Biso   1.000  Dy
  Dy7      1.0000 0.89330  0.64227  0.80417  Biso   1.000  Dy
  Dy8      1.0000 0.58598  0.63029  0.79246  Biso   1.000  Dy
  O31      1.0000 0.21740  0.52235  0.70040  Biso   1.000  O
  O32      1.0000 0.15260  0.57418  0.74190  Biso   1.000  O
  O33      1.0000 0.05190  0.38562  0.85270  Biso   1.000  O
  O34      1.0000 0.02330  0.17167  0.77300  Biso   1.000  O
  O35      1.0000 0.16780  0.17560  0.81480  Biso   1.000  O
  O36      1.0000 0.22510  0.66224  0.76220  Biso   1.000  O
  O37      1.0000 0.12490  0.71765  0.73900  Biso   1.000  O
  O38      1.0000 0.44960  0.84940  0.86000  Biso   1.000  O
  O39      1.0000 0.62780  0.86181  0.14300  Biso   1.000  O
  O40      1.0000 0.71460  0.90427  0.10650  Biso   1.000  O
  O41      1.0000 0.08460  0.64127  0.81890  Biso   1.000  O
  O42      1.0000 0.01680  0.60283  0.87360  Biso   1.000  O
  O43      1.0000 0.42040  0.58640  0.03310  Biso   1.000  O
  O44      1.0000 0.52400  0.38970  0.16600  Biso   1.000  O
  O45      1.0000 0.64920  0.42850  0.19980  Biso   1.000  O
  O46      1.0000 0.79390  0.69470  0.81930  Biso   1.000  O
  O47      1.0000 0.64980  0.70454  0.80030  Biso   1.000  O
  O48      1.0000 0.79450  0.91215  0.88260  Biso   1.000  O
  O49      1.0000 0.55200  0.08809  0.75840  Biso   1.000  O
  O50      1.0000 0.53850  0.08662  0.84850  Biso   1.000  O
  O51      1.0000 0.82320  0.57979  0.82680  Biso   1.000  O
  O52      1.0000 0.69150  0.57741  0.83980  Biso   1.000  O
  O53      1.0000 0.81230  0.36223  0.87620  Biso   1.000  O
  O54      1.0000 0.55690  0.19098  0.76237  Biso   1.000  O
  O55      1.0000 0.54260  0.19285  0.85160  Biso   1.000  O
  O56      1.0000 0.65180  0.62690  0.72050  Biso   1.000  O
  O57      1.0000 0.78400  0.63739  0.71170  Biso   1.000  O
  O58      1.0000 0.55570  0.61330  0.44130  Biso   1.000  O
  O59      1.0000 0.60810  0.42464  0.31320  Biso   1.000  O
  O60      1.0000 0.47160  0.44085  0.25930  Biso   1.000  O
  C169     1.0000 0.66820  0.96900  0.23100  Biso   1.000  C
  C170     1.0000 0.63080  0.00730  0.26010  Biso   1.000  C
  C171     1.0000 0.61960  0.05330  0.23690  Biso   1.000  C
  H97      1.0000 0.63120  0.05980  0.20140  Biso   1.000  H
  C172     1.0000 0.61090  0.99900  0.31070  Biso   1.000  C
  H98      1.0000 0.61540  0.96820  0.32540  Biso   1.000  H
  C173     1.0000 0.59160  0.08890  0.26620  Biso   1.000  C
  H99      1.0000 0.58190  0.11930  0.25000  Biso   1.000  H
  C174     1.0000 0.58420  0.03450  0.34150  Biso   1.000  C
  H100     1.0000 0.57080  0.02790  0.37640  Biso   1.000  H
  C175     1.0000 0.57790  0.07930  0.31960  Biso   1.000  C
  C176     1.0000 0.56340  0.16190  0.34150  Biso   1.000  C
  C177     1.0000 0.64530  0.18000  0.34820  Biso   1.000  C
  H101     1.0000 0.69480  0.16070  0.36040  Biso   1.000  H
  C178     1.0000 0.49090  0.19080  0.32510  Biso   1.000  C
  H102     1.0000 0.43540  0.17850  0.32140  Biso   1.000  H
  C179     1.0000 0.65320  0.22700  0.33670  Biso   1.000  C
  H103     1.0000 0.70880  0.23950  0.34140  Biso   1.000  H
  C180     1.0000 0.50070  0.23790  0.31400  Biso   1.000  C
  H104     1.0000 0.45160  0.25770  0.30330  Biso   1.000  H
  C181     1.0000 0.58120  0.25610  0.31850  Biso   1.000  C
  C182     1.0000 0.59120  0.30660  0.30140  Biso   1.000  C
  C183     1.0000 0.70390  0.79370  0.26120  Biso   1.000  C
  C184     1.0000 0.77050  0.75700  0.28930  Biso   1.000  C
  C185     1.0000 0.74400  0.70990  0.28520  Biso   1.000  C
  H105     1.0000 0.68550  0.70210  0.26580  Biso   1.000  H
  C186     1.0000 0.85710  0.76890  0.31940  Biso   1.000  C
  H106     1.0000 0.87460  0.80050  0.32220  Biso   1.000  H
  C187     1.0000 0.80520  0.67410  0.31040  Biso   1.000  C
  H107     1.0000 0.78890  0.64230  0.30770  Biso   1.000  H
  C188     1.0000 0.91720  0.73400  0.34500  Biso   1.000  C
  H108     1.0000 0.97510  0.74190  0.36590  Biso   1.000  H
  C189     1.0000 0.89110  0.68810  0.33960  Biso   1.000  C
  C190     1.0000 0.99250  0.64500  0.41910  Biso   1.000  C
  C191     1.0000 0.06050  0.61240  0.43180  Biso   1.000  C
  H109     1.0000 0.07350  0.59590  0.40140  Biso   1.000  H
  C192     1.0000 0.96850  0.66660  0.46470  Biso   1.000  C
  H110     1.0000 0.92070  0.68720  0.45580  Biso   1.000  H
  C193     1.0000 0.10810  0.60490  0.49000  Biso   1.000  C
  H111     1.0000 0.15600  0.58440  0.49910  Biso   1.000  H
  C194     1.0000 0.01620  0.65730  0.52320  Biso   1.000  C
  H112     1.0000 0.00020  0.67160  0.55380  Biso   1.000  H
  C195     1.0000 0.08610  0.62750  0.53640  Biso   1.000  C
  C196     1.0000 0.14570  0.62040  0.59830  Biso   1.000  C
  C197     1.0000 0.58650  0.88330  0.36430  Biso   1.000  C
  C198     1.0000 0.67360  0.89390  0.40910  Biso   1.000  C
  C199     1.0000 0.74950  0.87810  0.39940  Biso   1.000  C
  H113     1.0000 0.74570  0.86180  0.36440  Biso   1.000  H
  C200     1.0000 0.68060  0.91860  0.46050  Biso   1.000  C
  H114     1.0000 0.62990  0.92960  0.46750  Biso   1.000  H
  C201     1.0000 0.83210  0.88600  0.44110  Biso   1.000  C
  H115     1.0000 0.88280  0.87480  0.43430  Biso   1.000  H
  C202     1.0000 0.76210  0.92740  0.50230  Biso   1.000  C
  H116     1.0000 0.76550  0.94440  0.53670  Biso   1.000  H
  C203     1.0000 0.83740  0.91090  0.49270  Biso   1.000  C
  C204     1.0000 0.95140  0.95520  0.56360  Biso   1.000  C
  C205     1.0000 0.02070  0.94860  0.61590  Biso   1.000  C
  H117     1.0000 0.03980  0.91830  0.62930  Biso   1.000  H
  C206     1.0000 0.92030  0.99890  0.54520  Biso   1.000  C
  H118     1.0000 0.87380  0.00300  0.51020  Biso   1.000  H
  C207     1.0000 0.06050  0.98820  0.64750  Biso   1.000  C
  H119     1.0000 0.10890  0.98420  0.68140  Biso   1.000  H
  C208     1.0000 0.96000  0.03840  0.58030  Biso   1.000  C
  H120     1.0000 0.93750  0.06850  0.56880  Biso   1.000  H
  C209     1.0000 0.03030  0.03340  0.63030  Biso   1.000  C
  C210     1.0000 0.07050  0.07430  0.66760  Biso   1.000  C
  C211     1.0000 0.22770  0.78020  0.31590  Biso   1.000  C
  C212     1.0000 0.24240  0.72890  0.33210  Biso   1.000  C
  C213     1.0000 0.32730  0.71210  0.36070  Biso   1.000  C
  H121     1.0000 0.37460  0.73310  0.36950  Biso   1.000  H
  C214     1.0000 0.17330  0.69730  0.32130  Biso   1.000  C
  H122     1.0000 0.11590  0.70820  0.30470  Biso   1.000  H
  C215     1.0000 0.34230  0.66520  0.37620  Biso   1.000  C
  H123     1.0000 0.39920  0.65470  0.39590  Biso   1.000  H
  C216     1.0000 0.18780  0.64990  0.33480  Biso   1.000  C
  H124     1.0000 0.14060  0.62890  0.32530  Biso   1.000  H
  C217     1.0000 0.27230  0.63310  0.36250  Biso   1.000  C
  C218     1.0000 0.23670  0.55060  0.36170  Biso   1.000  C
  C219     1.0000 0.22430  0.52140  0.40460  Biso   1.000  C
  H125     1.0000 0.25150  0.52800  0.44480  Biso   1.000  H
  C220     1.0000 0.20190  0.54020  0.30260  Biso   1.000  C
  H126     1.0000 0.21360  0.55950  0.27400  Biso   1.000  H
  C221     1.0000 0.17060  0.48190  0.38770  Biso   1.000  C
  H127     1.0000 0.16030  0.46260  0.41690  Biso   1.000  H
  C222     1.0000 0.14880  0.50050  0.28560  Biso   1.000  C
  H128     1.0000 0.12390  0.49360  0.24530  Biso   1.000  H
  C223     1.0000 0.13220  0.47070  0.32810  Biso   1.000  C
  C224     1.0000 0.07120  0.42910  0.31110  Biso   1.000  C
  C225     1.0000 0.26040  0.94220  0.33670  Biso   1.000  C
  C226     1.0000 0.27150  0.99420  0.34590  Biso   1.000  C
  C227     1.0000 0.35530  0.01340  0.36350  Biso   1.000  C
  H129     1.0000 0.40420  0.99390  0.36930  Biso   1.000  H
  C228     1.0000 0.19890  0.02390  0.33640  Biso   1.000  C
  H130     1.0000 0.14260  0.01090  0.32530  Biso   1.000  H
  C229     1.0000 0.36570  0.06140  0.37230  Biso   1.000  C
  H131     1.0000 0.42210  0.07420  0.38530  Biso   1.000  H
  C230     1.0000 0.20910  0.07200  0.34310  Biso   1.000  C
  H132     1.0000 0.16020  0.09180  0.33510  Biso   1.000  H
  C231     1.0000 0.29400  0.09080  0.36220  Biso   1.000  C
  C232     1.0000 0.24740  0.17310  0.35950  Biso   1.000  C
  C233     1.0000 0.21900  0.18730  0.30220  Biso   1.000  C
  H133     1.0000 0.23590  0.17140  0.27300  Biso   1.000  H
  C234     1.0000 0.21890  0.19320  0.40180  Biso   1.000  C
  H134     1.0000 0.23640  0.18130  0.44050  Biso   1.000  H
  C235     1.0000 0.16320  0.22710  0.28790  Biso   1.000  C
  H135     1.0000 0.14410  0.23800  0.24870  Biso   1.000  H
  C236     1.0000 0.16320  0.23180  0.38670  Biso   1.000  C
  H136     1.0000 0.14320  0.24590  0.41580  Biso   1.000  H
  C237     1.0000 0.13650  0.24990  0.33010  Biso   1.000  C
  C238     1.0000 0.07680  0.29150  0.31450  Biso   1.000  C
  C239     1.0000 0.20380  0.87040  0.19150  Biso   1.000  C
  C240     1.0000 0.16540  0.87580  0.12480  Biso   1.000  C
  C241     1.0000 0.21900  0.86740  0.08770  Biso   1.000  C
  H137     1.0000 0.27760  0.85850  0.10420  Biso   1.000  H
  C242     1.0000 0.08050  0.88990  0.09920  Biso   1.000  C
  H138     1.0000 0.04460  0.89610  0.12280  Biso   1.000  H
  C243     1.0000 0.04690  0.89520  0.03580  Biso   1.000  C
  H139     1.0000 0.98950  0.90580  0.01850  Biso   1.000  H
  C244     1.0000 0.18170  0.87290  0.02530  Biso   1.000  C
  H140     1.0000 0.21610  0.86800  0.00050  Biso   1.000  H
  C245     1.0000 0.09590  0.88520  0.00170  Biso   1.000  C
  C246     1.0000 0.05250  0.92930  0.90940  Biso   1.000  C
  C247     1.0000 0.11330  0.96500  0.92940  Biso   1.000  C
  H141     1.0000 0.15660  0.96260  0.96630  Biso   1.000  H
  C248     1.0000 0.98940  0.93230  0.85510  Biso   1.000  C
  H142     1.0000 0.95170  0.90690  0.84050  Biso   1.000  H
  C249     1.0000 0.98210  0.97310  0.82230  Biso   1.000  C
  H143     1.0000 0.93540  0.97660  0.78730  Biso   1.000  H
  C250     1.0000 0.10880  0.00410  0.89390  Biso   1.000  C
  H144     1.0000 0.15100  0.02790  0.90620  Biso   1.000  H
  C251     1.0000 0.04300  0.00870  0.84070  Biso   1.000  C
  C252     1.0000 0.03970  0.05050  0.80140  Biso   1.000  C
  Dy9      1.0000 0.77866  0.89509  0.20997  Biso   1.000  Dy
  Dy10     1.0000 0.56000  0.85945  0.21840  Biso   1.000  Dy
  Dy11     1.0000 0.39330  0.85773  0.30417  Biso   1.000  Dy
  Dy12     1.0000 0.08598  0.86971  0.29246  Biso   1.000  Dy
  O61      1.0000 0.71740  0.97765  0.20040  Biso   1.000  O
  O62      1.0000 0.65260  0.92582  0.24190  Biso   1.000  O
  O63      1.0000 0.55190  0.11438  0.35270  Biso   1.000  O
  O64      1.0000 0.52330  0.32833  0.27300  Biso   1.000  O
  O65      1.0000 0.66780  0.32440  0.31480  Biso   1.000  O
  O66      1.0000 0.72510  0.83776  0.26220  Biso   1.000  O
  O67      1.0000 0.62490  0.78235  0.23900  Biso   1.000  O
  O68      1.0000 0.94960  0.65060  0.36000  Biso   1.000  O
  O69      1.0000 0.12780  0.63819  0.64300  Biso   1.000  O
  O70      1.0000 0.21460  0.59573  0.60650  Biso   1.000  O
  O71      1.0000 0.58460  0.85873  0.31890  Biso   1.000  O
  O72      1.0000 0.51680  0.89717  0.37360  Biso   1.000  O
  O73      1.0000 0.92040  0.91360  0.53310  Biso   1.000  O
  O74      1.0000 0.02400  0.11030  0.66600  Biso   1.000  O
  O75      1.0000 0.14920  0.07150  0.69980  Biso   1.000  O
  O76      1.0000 0.29390  0.80530  0.31930  Biso   1.000  O
  O77      1.0000 0.14980  0.79546  0.30030  Biso   1.000  O
  O78      1.0000 0.29450  0.58785  0.38260  Biso   1.000  O
  O79      1.0000 0.05200  0.41191  0.25840  Biso   1.000  O
  O80      1.0000 0.03850  0.41338  0.34850  Biso   1.000  O
  O81      1.0000 0.32320  0.92021  0.32680  Biso   1.000  O
  O82      1.0000 0.19150  0.92259  0.33980  Biso   1.000  O
  O83      1.0000 0.31230  0.13777  0.37620  Biso   1.000  O
  O84      1.0000 0.05690  0.30902  0.26237  Biso   1.000  O
  O85      1.0000 0.04260  0.30715  0.35160  Biso   1.000  O
  O86      1.0000 0.15180  0.87310  0.22050  Biso   1.000  O
  O87      1.0000 0.28400  0.86261  0.21170  Biso   1.000  O
  O88      1.0000 0.05570  0.88670  0.94130  Biso   1.000  O
  O89      1.0000 0.10810  0.07536  0.81320  Biso   1.000  O
  O90      1.0000 0.97160  0.05915  0.75930  Biso   1.000  O
  C253     1.0000 0.83180  0.46900  0.26900  Biso   1.000  C
  C254     1.0000 0.86920  0.50730  0.23990  Biso   1.000  C
  C255     1.0000 0.88040  0.55330  0.26310  Biso   1.000  C
  H145     1.0000 0.86880  0.55980  0.29860  Biso   1.000  H
  C256     1.0000 0.88910  0.49900  0.18930  Biso   1.000  C
  H146     1.0000 0.88460  0.46820  0.17460  Biso   1.000  H
  C257     1.0000 0.90840  0.58890  0.23380  Biso   1.000  C
  H147     1.0000 0.91810  0.61930  0.25000  Biso   1.000  H
  C258     1.0000 0.91580  0.53450  0.15850  Biso   1.000  C
  H148     1.0000 0.92920  0.52790  0.12360  Biso   1.000  H
  C259     1.0000 0.92210  0.57930  0.18040  Biso   1.000  C
  C260     1.0000 0.93660  0.66190  0.15850  Biso   1.000  C
  C261     1.0000 0.85470  0.68000  0.15180  Biso   1.000  C
  H149     1.0000 0.80520  0.66070  0.13960  Biso   1.000  H
  C262     1.0000 0.00910  0.69080  0.17490  Biso   1.000  C
  H150     1.0000 0.06460  0.67850  0.17860  Biso   1.000  H
  C263     1.0000 0.84680  0.72700  0.16330  Biso   1.000  C
  H151     1.0000 0.79120  0.73950  0.15860  Biso   1.000  H
  C264     1.0000 0.99930  0.73790  0.18600  Biso   1.000  C
  H152     1.0000 0.04840  0.75770  0.19670  Biso   1.000  H
  C265     1.0000 0.91880  0.75610  0.18150  Biso   1.000  C
  C266     1.0000 0.90880  0.80660  0.19860  Biso   1.000  C
  C267     1.0000 0.79610  0.29370  0.23880  Biso   1.000  C
  C268     1.0000 0.72950  0.25700  0.21070  Biso   1.000  C
  C269     1.0000 0.75600  0.20990  0.21480  Biso   1.000  C
  H153     1.0000 0.81450  0.20210  0.23420  Biso   1.000  H
  C270     1.0000 0.64290  0.26890  0.18060  Biso   1.000  C
  H154     1.0000 0.62540  0.30050  0.17780  Biso   1.000  H
  C271     1.0000 0.69480  0.17410  0.18960  Biso   1.000  C
  H155     1.0000 0.71110  0.14230  0.19230  Biso   1.000  H
  C272     1.0000 0.58280  0.23400  0.15500  Biso   1.000  C
  H156     1.0000 0.52490  0.24190  0.13410  Biso   1.000  H
  C273     1.0000 0.60890  0.18810  0.16040  Biso   1.000  C
  C274     1.0000 0.50750  0.14500  0.08090  Biso   1.000  C
  C275     1.0000 0.43950  0.11240  0.06820  Biso   1.000  C
  H157     1.0000 0.42650  0.09590  0.09860  Biso   1.000  H
  C276     1.0000 0.53150  0.16660  0.03530  Biso   1.000  C
  H158     1.0000 0.57930  0.18720  0.04420  Biso   1.000  H
  C277     1.0000 0.39190  0.10490  0.01000  Biso   1.000  C
  H159     1.0000 0.34400  0.08440  0.00090  Biso   1.000  H
  C278     1.0000 0.48380  0.15730  0.97680  Biso   1.000  C
  H160     1.0000 0.49980  0.17160  0.94620  Biso   1.000  H
  C279     1.0000 0.41390  0.12750  0.96360  Biso   1.000  C
  C280     1.0000 0.35430  0.12040  0.90170  Biso   1.000  C
  C281     1.0000 0.91350  0.38330  0.13570  Biso   1.000  C
  C282     1.0000 0.82640  0.39390  0.09090  Biso   1.000  C
  C283     1.0000 0.75050  0.37810  0.10060  Biso   1.000  C
  H161     1.0000 0.75430  0.36180  0.13560  Biso   1.000  H
  C284     1.0000 0.81940  0.41860  0.03950  Biso   1.000  C
  H162     1.0000 0.87010  0.42960  0.03250  Biso   1.000  H
  C285     1.0000 0.66790  0.38600  0.05890  Biso   1.000  C
  H163     1.0000 0.61720  0.37480  0.06570  Biso   1.000  H
  C286     1.0000 0.73790  0.42740  0.99770  Biso   1.000  C
  H164     1.0000 0.73450  0.44440  0.96330  Biso   1.000  H
  C287     1.0000 0.66260  0.41090  0.00730  Biso   1.000  C
  C288     1.0000 0.54860  0.45520  0.93640  Biso   1.000  C
  C289     1.0000 0.47930  0.44860  0.88410  Biso   1.000  C
  H165     1.0000 0.46020  0.41830  0.87070  Biso   1.000  H
  C290     1.0000 0.57970  0.49890  0.95480  Biso   1.000  C
  H166     1.0000 0.62620  0.50300  0.98980  Biso   1.000  H
  C291     1.0000 0.43950  0.48820  0.85250  Biso   1.000  C
  H167     1.0000 0.39110  0.48420  0.81860  Biso   1.000  H
  C292     1.0000 0.54000  0.53840  0.91970  Biso   1.000  C
  H168     1.0000 0.56250  0.56850  0.93120  Biso   1.000  H
  C293     1.0000 0.46970  0.53340  0.86970  Biso   1.000  C
  C294     1.0000 0.42950  0.57430  0.83240  Biso   1.000  C
  C295     1.0000 0.27230  0.28020  0.18410  Biso   1.000  C
  C296     1.0000 0.25760  0.22890  0.16790  Biso   1.000  C
  C297     1.0000 0.17270  0.21210  0.13930  Biso   1.000  C
  H169     1.0000 0.12540  0.23310  0.13050  Biso   1.000  H
  C298     1.0000 0.32670  0.19730  0.17870  Biso   1.000  C
  H170     1.0000 0.38410  0.20820  0.19530  Biso   1.000  H
  C299     1.0000 0.15770  0.16520  0.12380  Biso   1.000  C
  H171     1.0000 0.10080  0.15470  0.10410  Biso   1.000  H
  C300     1.0000 0.31220  0.14990  0.16520  Biso   1.000  C
  H172     1.0000 0.35940  0.12890  0.17470  Biso   1.000  H
  C301     1.0000 0.22770  0.13310  0.13750  Biso   1.000  C
  C302     1.0000 0.26330  0.05060  0.13830  Biso   1.000  C
  C303     1.0000 0.27570  0.02140  0.09540  Biso   1.000  C
  H173     1.0000 0.24850  0.02800  0.05520  Biso   1.000  H
  C304     1.0000 0.29810  0.04020  0.19740  Biso   1.000  C
  H174     1.0000 0.28640  0.05950  0.22600  Biso   1.000  H
  C305     1.0000 0.32940  0.98190  0.11230  Biso   1.000  C
  H175     1.0000 0.33970  0.96260  0.08310  Biso   1.000  H
  C306     1.0000 0.35120  0.00050  0.21440  Biso   1.000  C
  H176     1.0000 0.37610  0.99360  0.25470  Biso   1.000  H
  C307     1.0000 0.36780  0.97070  0.17190  Biso   1.000  C
  C308     1.0000 0.42880  0.92910  0.18890  Biso   1.000  C
  C309     1.0000 0.23960  0.44220  0.16330  Biso   1.000  C
  C310     1.0000 0.22850  0.49420  0.15410  Biso   1.000  C
  C311     1.0000 0.14470  0.51340  0.13650  Biso   1.000  C
  H177     1.0000 0.09580  0.49390  0.13070  Biso   1.000  H
  C312     1.0000 0.30110  0.52390  0.16360  Biso   1.000  C
  H178     1.0000 0.35740  0.51090  0.17470  Biso   1.000  H
  C313     1.0000 0.13430  0.56140  0.12770  Biso   1.000  C
  H179     1.0000 0.07790  0.57420  0.11470  Biso   1.000  H
  C314     1.0000 0.29090  0.57200  0.15690  Biso   1.000  C
  H180     1.0000 0.33980  0.59180  0.16490  Biso   1.000  H
  C315     1.0000 0.20600  0.59080  0.13780  Biso   1.000  C
  C316     1.0000 0.25260  0.67310  0.14050  Biso   1.000  C
  C317     1.0000 0.28100  0.68730  0.19780  Biso   1.000  C
  H181     1.0000 0.26410  0.67140  0.22700  Biso   1.000  H
  C318     1.0000 0.28110  0.69320  0.09820  Biso   1.000  C
  H182     1.0000 0.26360  0.68130  0.05950  Biso   1.000  H
  C319     1.0000 0.33680  0.72710  0.21210  Biso   1.000  C
  H183     1.0000 0.35590  0.73800  0.25130  Biso   1.000  H
  C320     1.0000 0.33680  0.73180  0.11330  Biso   1.000  C
  H184     1.0000 0.35680  0.74590  0.08420  Biso   1.000  H
  C321     1.0000 0.36350  0.74990  0.16990  Biso   1.000  C
  C322     1.0000 0.42320  0.79150  0.18550  Biso   1.000  C
  C323     1.0000 0.29620  0.37040  0.30850  Biso   1.000  C
  C324     1.0000 0.33460  0.37580  0.37520  Biso   1.000  C
  C325     1.0000 0.28100  0.36740  0.41230  Biso   1.000  C
  H185     1.0000 0.22240  0.35850  0.39580  Biso   1.000  H
  C326     1.0000 0.41950  0.38990  0.40080  Biso   1.000  C
  H186     1.0000 0.45540  0.39610  0.37720  Biso   1.000  H
  C327     1.0000 0.45310  0.39520  0.46420  Biso   1.000  C
  H187     1.0000 0.51050  0.40580  0.48150  Biso   1.000  H
  C328     1.0000 0.31830  0.37290  0.47470  Biso   1.000  C
  H188     1.0000 0.28390  0.36800  0.49950  Biso   1.000  H
  C329     1.0000 0.40410  0.38520  0.49830  Biso   1.000  C
  C330     1.0000 0.44750  0.42930  0.59060  Biso   1.000  C
  C331     1.0000 0.38670  0.46500  0.57060  Biso   1.000  C
  H189     1.0000 0.34340  0.46260  0.53370  Biso   1.000  H
  C332     1.0000 0.51060  0.43230  0.64490  Biso   1.000  C
  H190     1.0000 0.54830  0.40690  0.65950  Biso   1.000  H
  C333     1.0000 0.51790  0.47310  0.67770  Biso   1.000  C
  H191     1.0000 0.56460  0.47660  0.71270  Biso   1.000  H
  C334     1.0000 0.39120  0.50410  0.60610  Biso   1.000  C
  H192     1.0000 0.34900  0.52790  0.59380  Biso   1.000  H
  C335     1.0000 0.45700  0.50870  0.65930  Biso   1.000  C
  C336     1.0000 0.46030  0.55050  0.69860  Biso   1.000  C
  Dy13     1.0000 0.72134  0.39509  0.29003  Biso   1.000  Dy
  Dy14     1.0000 0.94000  0.35945  0.28160  Biso   1.000  Dy
  Dy15     1.0000 0.10670  0.35773  0.19583  Biso   1.000  Dy
  Dy16     1.0000 0.41402  0.36971  0.20754  Biso   1.000  Dy
  O91      1.0000 0.78260  0.47765  0.29960  Biso   1.000  O
  O92      1.0000 0.84740  0.42582  0.25810  Biso   1.000  O
  O93      1.0000 0.94810  0.61438  0.14730  Biso   1.000  O
  O94      1.0000 0.97670  0.82833  0.22700  Biso   1.000  O
  O95      1.0000 0.83220  0.82440  0.18520  Biso   1.000  O
  O96      1.0000 0.77490  0.33776  0.23780  Biso   1.000  O
  O97      1.0000 0.87510  0.28235  0.26100  Biso   1.000  O
  O98      1.0000 0.55040  0.15060  0.14000  Biso   1.000  O
  O99      1.0000 0.37220  0.13819  0.85700  Biso   1.000  O
  O100     1.0000 0.28540  0.09573  0.89350  Biso   1.000  O
  O101     1.0000 0.91540  0.35873  0.18110  Biso   1.000  O
  O102     1.0000 0.98320  0.39717  0.12640  Biso   1.000  O
  O103     1.0000 0.57960  0.41360  0.96690  Biso   1.000  O
  O104     1.0000 0.47600  0.61030  0.83400  Biso   1.000  O
  O105     1.0000 0.35080  0.57150  0.80020  Biso   1.000  O
  O106     1.0000 0.20610  0.30530  0.18070  Biso   1.000  O
  O107     1.0000 0.35020  0.29546  0.19970  Biso   1.000  O
  O108     1.0000 0.20550  0.08785  0.11740  Biso   1.000  O
  O109     1.0000 0.44800  0.91191  0.24160  Biso   1.000  O
  O110     1.0000 0.46150  0.91338  0.15150  Biso   1.000  O
  O111     1.0000 0.17680  0.42021  0.17320  Biso   1.000  O
  O112     1.0000 0.30850  0.42259  0.16020  Biso   1.000  O
  O113     1.0000 0.18770  0.63777  0.12380  Biso   1.000  O
  O114     1.0000 0.44310  0.80902  0.23763  Biso   1.000  O
  O115     1.0000 0.45740  0.80715  0.14840  Biso   1.000  O
  O116     1.0000 0.34820  0.37310  0.27950  Biso   1.000  O
  O117     1.0000 0.21600  0.36261  0.28830  Biso   1.000  O
  O118     1.0000 0.44430  0.38670  0.55870  Biso   1.000  O
  O119     1.0000 0.39190  0.57536  0.68680  Biso   1.000  O
  O120     1.0000 0.52840  0.55915  0.74070  Biso   1.000  O
