data_image0
_cell_length_a       24.98
_cell_length_b       19.327
_cell_length_c       21.407
_cell_angle_alpha    90
_cell_angle_beta     96.019
_cell_angle_gamma    90

_symmetry_space_group_name_H-M    "P 1"
_symmetry_int_tables_number       1

loop_
  _symmetry_equiv_pos_as_xyz
  'x, y, z'

loop_
  _atom_site_label
  _atom_site_occupancy
  _atom_site_fract_x
  _atom_site_fract_y
  _atom_site_fract_z
  _atom_site_thermal_displace_type
  _atom_site_B_iso_or_equiv
  _atom_site_type_symbol
  Ag1      1.0000 0.98943  0.20635  0.27645  Biso   1.000  Ag
  Ag2      1.0000 0.05897  0.51842  0.23451  Biso   1.000  Ag
  Ag3      1.0000 0.73334  0.32836  0.92530  Biso   1.000  Ag
  Ag4      1.0000 0.59344  0.21858  0.87476  Biso   1.000  Ag
  Ag5      1.0000 0.53719  0.28686  0.71546  Biso   1.000  Ag
  Ag6      1.0000 0.55325  0.48102  0.73053  Biso   1.000  Ag
  Ag7      1.0000 0.49125  0.56715  0.56602  Biso   1.000  Ag
  Ag8      1.0000 0.19452  0.71268  0.44801  Biso   1.000  Ag
  Ag9      1.0000 0.92169  0.29205  0.12249  Biso   1.000  Ag
  C1       1.0000 0.51400  0.63360  0.76380  Biso   1.000  C
  C2       1.0000 0.53280  0.62590  0.82960  Biso   1.000  C
  C3       1.0000 0.55870  0.68030  0.86210  Biso   1.000  C
  H1       1.0000 0.56270  0.72190  0.84120  Biso   1.000  H
  C4       1.0000 0.57860  0.67470  0.92440  Biso   1.000  C
  C5       1.0000 0.57110  0.61330  0.95440  Biso   1.000  C
  H2       1.0000 0.58540  0.60820  0.99600  Biso   1.000  H
  C6       1.0000 0.54310  0.55900  0.92530  Biso   1.000  C
  H3       1.0000 0.53700  0.51890  0.94750  Biso   1.000  H
  C7       1.0000 0.52410  0.56490  0.86230  Biso   1.000  C
  H4       1.0000 0.50560  0.52830  0.84180  Biso   1.000  H
  C8       1.0000 0.60910  0.73410  0.95760  Biso   1.000  C
  H5       1.0000 0.62010  0.72130  0.00030  Biso   1.000  H
  H6       1.0000 0.58620  0.77400  0.95690  Biso   1.000  H
  H7       1.0000 0.64020  0.74450  0.93660  Biso   1.000  H
  C9       1.0000 0.52990  0.34350  0.56700  Biso   1.000  C
  C10      1.0000 0.53910  0.27690  0.53780  Biso   1.000  C
  C11      1.0000 0.57660  0.23190  0.56750  Biso   1.000  C
  H8       1.0000 0.59460  0.24330  0.60630  Biso   1.000  H
  C12      1.0000 0.58750  0.16830  0.53820  Biso   1.000  C
  H9       1.0000 0.61370  0.13880  0.55710  Biso   1.000  H
  C13      1.0000 0.56010  0.15050  0.48350  Biso   1.000  C
  H10      1.0000 0.56730  0.10820  0.46550  Biso   1.000  H
  C14      1.0000 0.52140  0.19320  0.45310  Biso   1.000  C
  C15      1.0000 0.51150  0.25710  0.48050  Biso   1.000  C
  H11      1.0000 0.48610  0.28690  0.46020  Biso   1.000  H
  C16      1.0000 0.48620  0.16910  0.39500  Biso   1.000  C
  H12      1.0000 0.49840  0.12470  0.38230  Biso   1.000  H
  H13      1.0000 0.48840  0.20180  0.36170  Biso   1.000  H
  H14      1.0000 0.44960  0.16560  0.40440  Biso   1.000  H
  C17      1.0000 0.64130  0.42550  0.84720  Biso   1.000  C
  C18      1.0000 0.66500  0.49040  0.87320  Biso   1.000  C
  C19      1.0000 0.66430  0.54890  0.83470  Biso   1.000  C
  H15      1.0000 0.64750  0.54710  0.79380  Biso   1.000  H
  C20      1.0000 0.68900  0.61070  0.85790  Biso   1.000  C
  C21      1.0000 0.71180  0.61020  0.91980  Biso   1.000  C
  H16      1.0000 0.72800  0.65040  0.93650  Biso   1.000  H
  C22      1.0000 0.71160  0.55300  0.95720  Biso   1.000  C
  H17      1.0000 0.72720  0.55510  0.99860  Biso   1.000  H
  C23      1.0000 0.68870  0.49310  0.93460  Biso   1.000  C
  H18      1.0000 0.68890  0.45410  0.96010  Biso   1.000  H
  C24      1.0000 0.68720  0.67140  0.81430  Biso   1.000  C
  H19      1.0000 0.70470  0.71020  0.83570  Biso   1.000  H
  H20      1.0000 0.65040  0.68300  0.80090  Biso   1.000  H
  H21      1.0000 0.70540  0.65990  0.77840  Biso   1.000  H
  C25      1.0000 0.84920  0.40370  0.96480  Biso   1.000  C
  C26      1.0000 0.84430  0.46080  0.92020  Biso   1.000  C
  C27      1.0000 0.85970  0.53060  0.93810  Biso   1.000  C
  H22      1.0000 0.87410  0.53880  0.97930  Biso   1.000  H
  C28      1.0000 0.85420  0.58420  0.89820  Biso   1.000  C
  C29      1.0000 0.83410  0.56950  0.83600  Biso   1.000  C
  H23      1.0000 0.82920  0.60520  0.80680  Biso   1.000  H
  C30      1.0000 0.82130  0.50080  0.81740  Biso   1.000  C
  H24      1.0000 0.81090  0.49060  0.77540  Biso   1.000  H
  C31      1.0000 0.82430  0.45030  0.86090  Biso   1.000  C
  H25      1.0000 0.81180  0.40640  0.84910  Biso   1.000  H
  C32      1.0000 0.86770  0.65750  0.91630  Biso   1.000  C
  H26      1.0000 0.88140  0.65930  0.95990  Biso   1.000  H
  H27      1.0000 0.83590  0.68550  0.90960  Biso   1.000  H
  H28      1.0000 0.89440  0.67470  0.89120  Biso   1.000  H
  C33      1.0000 0.03290  0.36140  0.25770  Biso   1.000  C
  C34      1.0000 0.05000  0.36950  0.32540  Biso   1.000  C
  C35      1.0000 0.03420  0.42600  0.35790  Biso   1.000  C
  H29      1.0000 0.01110  0.45890  0.33810  Biso   1.000  H
  C36      1.0000 0.05370  0.43290  0.42130  Biso   1.000  C
  H30      1.0000 0.04390  0.47110  0.44400  Biso   1.000  H
  C37      1.0000 0.08680  0.38440  0.44980  Biso   1.000  C
  H31      1.0000 0.09870  0.38960  0.49220  Biso   1.000  H
  C38      1.0000 0.10240  0.33030  0.41970  Biso   1.000  C
  C39      1.0000 0.08220  0.32060  0.35650  Biso   1.000  C
  H32      1.0000 0.09080  0.28050  0.33570  Biso   1.000  H
  C40      1.0000 0.13930  0.27820  0.45480  Biso   1.000  C
  H33      1.0000 0.14850  0.29380  0.49710  Biso   1.000  H
  H34      1.0000 0.17150  0.27350  0.43430  Biso   1.000  H
  H35      1.0000 0.12140  0.23430  0.45520  Biso   1.000  H
  C41      1.0000 0.13680  0.59290  0.35040  Biso   1.000  C
  C42      1.0000 0.16720  0.53480  0.38030  Biso   1.000  C
  C43      1.0000 0.19110  0.53920  0.44040  Biso   1.000  C
  H36      1.0000 0.18560  0.57810  0.46440  Biso   1.000  H
  C44      1.0000 0.22280  0.48710  0.46550  Biso   1.000  C
  H37      1.0000 0.23930  0.49060  0.50640  Biso   1.000  H
  C45      1.0000 0.23050  0.42870  0.43010  Biso   1.000  C
  H38      1.0000 0.25230  0.39320  0.44760  Biso   1.000  H
  C46      1.0000 0.20690  0.42230  0.37010  Biso   1.000  C
  C47      1.0000 0.17510  0.47440  0.34600  Biso   1.000  C
  H39      1.0000 0.15790  0.47010  0.30550  Biso   1.000  H
  C48      1.0000 0.21770  0.36200  0.33150  Biso   1.000  C
  H40      1.0000 0.19810  0.36660  0.29070  Biso   1.000  H
  H41      1.0000 0.20640  0.32070  0.35120  Biso   1.000  H
  H42      1.0000 0.25550  0.35950  0.32730  Biso   1.000  H
  C49      1.0000 0.68210  0.15240  0.04280  Biso   1.000  C
  C50      1.0000 0.69730  0.12840  0.11010  Biso   1.000  C
  C51      1.0000 0.72620  0.16790  0.15620  Biso   1.000  C
  H43      1.0000 0.73900  0.21140  0.14630  Biso   1.000  H
  C52      1.0000 0.73610  0.14260  0.21710  Biso   1.000  C
  C53      1.0000 0.71710  0.07760  0.23180  Biso   1.000  C
  H44      1.0000 0.72380  0.06060  0.27250  Biso   1.000  H
  C54      1.0000 0.68820  0.03800  0.18570  Biso   1.000  C
  H45      1.0000 0.67550  0.99460  0.19550  Biso   1.000  H
  C55      1.0000 0.67830  0.06340  0.12480  Biso   1.000  C
  H46      1.0000 0.65900  0.03700  0.09390  Biso   1.000  H
  C56      1.0000 0.77490  0.19300  0.26310  Biso   1.000  C
  H47      1.0000 0.78060  0.17290  0.30420  Biso   1.000  H
  H48      1.0000 0.75810  0.23750  0.26560  Biso   1.000  H
  H49      1.0000 0.80890  0.19840  0.24640  Biso   1.000  H
  N1       1.0000 0.49000  0.68920  0.73820  Biso   1.000  N
  N2       1.0000 0.47890  0.67520  0.67640  Biso   1.000  N
  N3       1.0000 0.49680  0.61420  0.66500  Biso   1.000  N
  N4       1.0000 0.51880  0.58540  0.71920  Biso   1.000  N
  N5       1.0000 0.52020  0.40320  0.53520  Biso   1.000  N
  N6       1.0000 0.51740  0.45130  0.58100  Biso   1.000  N
  N7       1.0000 0.52570  0.42230  0.63540  Biso   1.000  N
  N8       1.0000 0.53380  0.35350  0.62940  Biso   1.000  N
  N9       1.0000 0.60160  0.41770  0.80080  Biso   1.000  N
  N10      1.0000 0.59400  0.34890  0.79380  Biso   1.000  N
  N11      1.0000 0.62770  0.31530  0.83370  Biso   1.000  N
  N12      1.0000 0.65890  0.36200  0.86810  Biso   1.000  N
  N13      1.0000 0.81950  0.34870  0.95990  Biso   1.000  N
  N14      1.0000 0.83830  0.30830  0.00780  Biso   1.000  N
  N15      1.0000 0.87830  0.34080  0.04000  Biso   1.000  N
  N16      1.0000 0.88690  0.39950  0.01440  Biso   1.000  N
  N17      1.0000 0.03420  0.41090  0.21640  Biso   1.000  N
  N18      1.0000 0.01490  0.38300  0.16140  Biso   1.000  N
  N19      1.0000 0.00350  0.31810  0.17020  Biso   1.000  N
  N20      1.0000 0.01470  0.30220  0.23240  Biso   1.000  N
  N21      1.0000 0.14280  0.65660  0.37380  Biso   1.000  N
  N22      1.0000 0.10930  0.69710  0.33590  Biso   1.000  N
  N23      1.0000 0.08540  0.65820  0.29080  Biso   1.000  N
  N24      1.0000 0.10200  0.59410  0.29930  Biso   1.000  N
  N25      1.0000 0.64040  0.14850  0.00030  Biso   1.000  N
  N26      1.0000 0.64880  0.19640  0.95860  Biso   1.000  N
  N27      1.0000 0.69350  0.22630  0.97490  Biso   1.000  N
  N28      1.0000 0.71650  0.19920  0.02840  Biso   1.000  N
  Ag10     1.0000 0.02115  0.93605  0.43958  Biso   1.000  Ag
  C57      1.0000 0.98520  0.15830  0.42540  Biso   1.000  C
  C58      1.0000 0.97230  0.22800  0.44870  Biso   1.000  C
  C59      1.0000 0.99560  0.25020  0.50790  Biso   1.000  C
  H50      1.0000 0.01980  0.22230  0.53230  Biso   1.000  H
  C60      1.0000 0.98130  0.31560  0.52930  Biso   1.000  C
  C61      1.0000 0.94330  0.35380  0.49220  Biso   1.000  C
  H51      1.0000 0.93300  0.39670  0.50660  Biso   1.000  H
  C62      1.0000 0.92010  0.33040  0.43440  Biso   1.000  C
  H52      1.0000 0.89510  0.35730  0.41010  Biso   1.000  H
  C63      1.0000 0.93450  0.26790  0.41390  Biso   1.000  C
  H53      1.0000 0.91860  0.25140  0.37560  Biso   1.000  H
  C64      1.0000 0.01120  0.34280  0.59120  Biso   1.000  C
  H54      1.0000 0.99770  0.38780  0.60030  Biso   1.000  H
  H55      1.0000 0.00560  0.31160  0.62480  Biso   1.000  H
  H56      1.0000 0.04900  0.34590  0.58690  Biso   1.000  H
  N29      1.0000 0.00040  0.10380  0.46080  Biso   1.000  N
  N30      1.0000 0.00530  0.05140  0.41850  Biso   1.000  N
  N31      1.0000 0.99530  0.07500  0.36250  Biso   1.000  N
  N32      1.0000 0.98310  0.14340  0.36410  Biso   1.000  N
  Ag11     1.0000 0.06928  0.97930  0.44327  Biso   1.000  Ag
  Ag12     1.0000 0.97042  0.91280  0.43647  Biso   1.000  Ag
  Ag13     1.0000 0.01057  0.70635  0.22355  Biso   1.000  Ag
  Ag14     1.0000 0.94103  0.01842  0.26549  Biso   1.000  Ag
  Ag15     1.0000 0.26666  0.82836  0.57470  Biso   1.000  Ag
  Ag16     1.0000 0.40656  0.71858  0.62524  Biso   1.000  Ag
  Ag17     1.0000 0.46281  0.78686  0.78454  Biso   1.000  Ag
  Ag18     1.0000 0.44675  0.98102  0.76947  Biso   1.000  Ag
  Ag19     1.0000 0.50875  0.06715  0.93398  Biso   1.000  Ag
  Ag20     1.0000 0.80548  0.21268  0.05199  Biso   1.000  Ag
  Ag21     1.0000 0.07831  0.79205  0.37751  Biso   1.000  Ag
  C65      1.0000 0.48600  0.13360  0.73620  Biso   1.000  C
  C66      1.0000 0.46720  0.12590  0.67040  Biso   1.000  C
  C67      1.0000 0.44130  0.18030  0.63790  Biso   1.000  C
  H57      1.0000 0.43730  0.22190  0.65880  Biso   1.000  H
  C68      1.0000 0.42140  0.17470  0.57560  Biso   1.000  C
  C69      1.0000 0.42890  0.11330  0.54560  Biso   1.000  C
  H58      1.0000 0.41460  0.10820  0.50400  Biso   1.000  H
  C70      1.0000 0.45690  0.05900  0.57470  Biso   1.000  C
  H59      1.0000 0.46300  0.01890  0.55250  Biso   1.000  H
  C71      1.0000 0.47590  0.06490  0.63770  Biso   1.000  C
  H60      1.0000 0.49440  0.02830  0.65820  Biso   1.000  H
  C72      1.0000 0.39090  0.23410  0.54240  Biso   1.000  C
  H61      1.0000 0.37990  0.22130  0.49970  Biso   1.000  H
  H62      1.0000 0.41380  0.27400  0.54310  Biso   1.000  H
  H63      1.0000 0.35980  0.24450  0.56340  Biso   1.000  H
  C73      1.0000 0.47010  0.84350  0.93300  Biso   1.000  C
  C74      1.0000 0.46090  0.77690  0.96220  Biso   1.000  C
  C75      1.0000 0.42340  0.73190  0.93250  Biso   1.000  C
  H64      1.0000 0.40540  0.74330  0.89370  Biso   1.000  H
  C76      1.0000 0.41250  0.66830  0.96180  Biso   1.000  C
  H65      1.0000 0.38630  0.63880  0.94290  Biso   1.000  H
  C77      1.0000 0.43990  0.65050  0.01650  Biso   1.000  C
  H66      1.0000 0.43270  0.60820  0.03450  Biso   1.000  H
  C78      1.0000 0.47860  0.69320  0.04690  Biso   1.000  C
  C79      1.0000 0.48850  0.75710  0.01950  Biso   1.000  C
  H67      1.0000 0.51390  0.78690  0.03980  Biso   1.000  H
  C80      1.0000 0.51380  0.66910  0.10500  Biso   1.000  C
  H68      1.0000 0.50160  0.62470  0.11770  Biso   1.000  H
  H69      1.0000 0.51160  0.70180  0.13830  Biso   1.000  H
  H70      1.0000 0.55040  0.66560  0.09560  Biso   1.000  H
  C81      1.0000 0.35870  0.92550  0.65280  Biso   1.000  C
  C82      1.0000 0.33500  0.99040  0.62680  Biso   1.000  C
  C83      1.0000 0.33570  0.04890  0.66530  Biso   1.000  C
  H71      1.0000 0.35250  0.04710  0.70620  Biso   1.000  H
  C84      1.0000 0.31100  0.11070  0.64210  Biso   1.000  C
  C85      1.0000 0.28820  0.11020  0.58020  Biso   1.000  C
  H72      1.0000 0.27200  0.15040  0.56350  Biso   1.000  H
  C86      1.0000 0.28840  0.05300  0.54280  Biso   1.000  C
  H73      1.0000 0.27280  0.05510  0.50140  Biso   1.000  H
  C87      1.0000 0.31130  0.99310  0.56540  Biso   1.000  C
  H74      1.0000 0.31110  0.95410  0.53990  Biso   1.000  H
  C88      1.0000 0.31280  0.17140  0.68570  Biso   1.000  C
  H75      1.0000 0.29530  0.21020  0.66430  Biso   1.000  H
  H76      1.0000 0.34960  0.18300  0.69910  Biso   1.000  H
  H77      1.0000 0.29460  0.15990  0.72160  Biso   1.000  H
  C89      1.0000 0.15080  0.90370  0.53520  Biso   1.000  C
  C90      1.0000 0.15570  0.96080  0.57980  Biso   1.000  C
  C91      1.0000 0.14030  0.03060  0.56190  Biso   1.000  C
  H78      1.0000 0.12590  0.03880  0.52070  Biso   1.000  H
  C92      1.0000 0.14580  0.08420  0.60180  Biso   1.000  C
  C93      1.0000 0.16590  0.06950  0.66400  Biso   1.000  C
  H79      1.0000 0.17080  0.10520  0.69320  Biso   1.000  H
  C94      1.0000 0.17870  0.00080  0.68260  Biso   1.000  C
  H80      1.0000 0.18910  0.99060  0.72460  Biso   1.000  H
  C95      1.0000 0.17570  0.95030  0.63910  Biso   1.000  C
  H81      1.0000 0.18820  0.90640  0.65090  Biso   1.000  H
  C96      1.0000 0.13230  0.15750  0.58370  Biso   1.000  C
  H82      1.0000 0.11860  0.15930  0.54010  Biso   1.000  H
  H83      1.0000 0.16410  0.18550  0.59040  Biso   1.000  H
  H84      1.0000 0.10560  0.17470  0.60880  Biso   1.000  H
  C97      1.0000 0.96710  0.86140  0.24230  Biso   1.000  C
  C98      1.0000 0.95000  0.86950  0.17460  Biso   1.000  C
  C99      1.0000 0.96580  0.92600  0.14210  Biso   1.000  C
  H85      1.0000 0.98890  0.95890  0.16190  Biso   1.000  H
  C100     1.0000 0.94630  0.93290  0.07870  Biso   1.000  C
  H86      1.0000 0.95610  0.97110  0.05600  Biso   1.000  H
  C101     1.0000 0.91320  0.88440  0.05020  Biso   1.000  C
  H87      1.0000 0.90130  0.88960  0.00780  Biso   1.000  H
  C102     1.0000 0.89760  0.83030  0.08030  Biso   1.000  C
  C103     1.0000 0.91780  0.82060  0.14350  Biso   1.000  C
  H88      1.0000 0.90920  0.78050  0.16430  Biso   1.000  H
  C104     1.0000 0.86070  0.77820  0.04520  Biso   1.000  C
  H89      1.0000 0.85150  0.79380  0.00290  Biso   1.000  H
  H90      1.0000 0.82850  0.77350  0.06570  Biso   1.000  H
  H91      1.0000 0.87860  0.73430  0.04480  Biso   1.000  H
  C105     1.0000 0.86320  0.09290  0.14960  Biso   1.000  C
  C106     1.0000 0.83280  0.03480  0.11970  Biso   1.000  C
  C107     1.0000 0.80890  0.03920  0.05960  Biso   1.000  C
  H92      1.0000 0.81440  0.07810  0.03560  Biso   1.000  H
  C108     1.0000 0.77720  0.98710  0.03450  Biso   1.000  C
  H93      1.0000 0.76070  0.99060  0.99360  Biso   1.000  H
  C109     1.0000 0.76950  0.92870  0.06990  Biso   1.000  C
  H94      1.0000 0.74770  0.89320  0.05240  Biso   1.000  H
  C110     1.0000 0.79310  0.92230  0.12990  Biso   1.000  C
  C111     1.0000 0.82490  0.97440  0.15400  Biso   1.000  C
  H95      1.0000 0.84210  0.97010  0.19450  Biso   1.000  H
  C112     1.0000 0.78230  0.86200  0.16850  Biso   1.000  C
  H96      1.0000 0.80190  0.86660  0.20930  Biso   1.000  H
  H97      1.0000 0.79360  0.82070  0.14880  Biso   1.000  H
  H98      1.0000 0.74450  0.85950  0.17270  Biso   1.000  H
  C113     1.0000 0.31790  0.65240  0.45720  Biso   1.000  C
  C114     1.0000 0.30270  0.62840  0.38990  Biso   1.000  C
  C115     1.0000 0.27380  0.66790  0.34380  Biso   1.000  C
  H99      1.0000 0.26100  0.71140  0.35370  Biso   1.000  H
  C116     1.0000 0.26390  0.64260  0.28290  Biso   1.000  C
  C117     1.0000 0.28290  0.57760  0.26820  Biso   1.000  C
  H100     1.0000 0.27620  0.56060  0.22750  Biso   1.000  H
  C118     1.0000 0.31180  0.53800  0.31430  Biso   1.000  C
  H101     1.0000 0.32450  0.49460  0.30450  Biso   1.000  H
  C119     1.0000 0.32170  0.56340  0.37520  Biso   1.000  C
  H102     1.0000 0.34100  0.53700  0.40610  Biso   1.000  H
  C120     1.0000 0.22510  0.69300  0.23690  Biso   1.000  C
  H103     1.0000 0.21940  0.67290  0.19580  Biso   1.000  H
  H104     1.0000 0.24190  0.73750  0.23440  Biso   1.000  H
  H105     1.0000 0.19110  0.69840  0.25360  Biso   1.000  H
  N33      1.0000 0.51000  0.18920  0.76180  Biso   1.000  N
  N34      1.0000 0.52110  0.17520  0.82360  Biso   1.000  N
  N35      1.0000 0.50320  0.11420  0.83500  Biso   1.000  N
  N36      1.0000 0.48120  0.08540  0.78080  Biso   1.000  N
  N37      1.0000 0.47980  0.90320  0.96480  Biso   1.000  N
  N38      1.0000 0.48260  0.95130  0.91900  Biso   1.000  N
  N39      1.0000 0.47430  0.92230  0.86460  Biso   1.000  N
  N40      1.0000 0.46620  0.85350  0.87060  Biso   1.000  N
  N41      1.0000 0.39840  0.91770  0.69920  Biso   1.000  N
  N42      1.0000 0.40600  0.84890  0.70620  Biso   1.000  N
  N43      1.0000 0.37230  0.81530  0.66630  Biso   1.000  N
  N44      1.0000 0.34110  0.86200  0.63190  Biso   1.000  N
  N45      1.0000 0.18050  0.84870  0.54010  Biso   1.000  N
  N46      1.0000 0.16170  0.80830  0.49220  Biso   1.000  N
  N47      1.0000 0.12170  0.84080  0.46000  Biso   1.000  N
  N48      1.0000 0.11310  0.89950  0.48560  Biso   1.000  N
  N49      1.0000 0.96580  0.91090  0.28360  Biso   1.000  N
  N50      1.0000 0.98510  0.88300  0.33860  Biso   1.000  N
  N51      1.0000 0.99650  0.81810  0.32980  Biso   1.000  N
  N52      1.0000 0.98530  0.80220  0.26760  Biso   1.000  N
  N53      1.0000 0.85720  0.15660  0.12620  Biso   1.000  N
  N54      1.0000 0.89070  0.19710  0.16410  Biso   1.000  N
  N55      1.0000 0.91460  0.15820  0.20920  Biso   1.000  N
  N56      1.0000 0.89800  0.09410  0.20070  Biso   1.000  N
  N57      1.0000 0.35960  0.64850  0.49970  Biso   1.000  N
  N58      1.0000 0.35120  0.69640  0.54140  Biso   1.000  N
  N59      1.0000 0.30650  0.72630  0.52510  Biso   1.000  N
  N60      1.0000 0.28350  0.69920  0.47160  Biso   1.000  N
  Ag22     1.0000 0.97885  0.43605  0.06042  Biso   1.000  Ag
  C121     1.0000 0.01480  0.65830  0.07460  Biso   1.000  C
  C122     1.0000 0.02770  0.72800  0.05130  Biso   1.000  C
  C123     1.0000 0.00440  0.75020  0.99210  Biso   1.000  C
  H106     1.0000 0.98020  0.72230  0.96770  Biso   1.000  H
  C124     1.0000 0.01870  0.81560  0.97070  Biso   1.000  C
  C125     1.0000 0.05670  0.85380  0.00780  Biso   1.000  C
  H107     1.0000 0.06700  0.89670  0.99340  Biso   1.000  H
  C126     1.0000 0.07990  0.83040  0.06560  Biso   1.000  C
  H108     1.0000 0.10490  0.85730  0.08990  Biso   1.000  H
  C127     1.0000 0.06550  0.76790  0.08610  Biso   1.000  C
  H109     1.0000 0.08140  0.75140  0.12440  Biso   1.000  H
  C128     1.0000 0.98880  0.84280  0.90880  Biso   1.000  C
  H110     1.0000 0.00230  0.88780  0.89970  Biso   1.000  H
  H111     1.0000 0.99440  0.81160  0.87520  Biso   1.000  H
  H112     1.0000 0.95100  0.84590  0.91310  Biso   1.000  H
  N61      1.0000 0.99960  0.60380  0.03920  Biso   1.000  N
  N62      1.0000 0.99470  0.55140  0.08150  Biso   1.000  N
  N63      1.0000 0.00470  0.57500  0.13750  Biso   1.000  N
  N64      1.0000 0.01690  0.64340  0.13590  Biso   1.000  N
  Ag23     1.0000 0.93072  0.47930  0.05673  Biso   1.000  Ag
  Ag24     1.0000 0.02958  0.41280  0.06353  Biso   1.000  Ag
  Ag25     1.0000 0.01057  0.79365  0.72355  Biso   1.000  Ag
  Ag26     1.0000 0.94103  0.48158  0.76549  Biso   1.000  Ag
  Ag27     1.0000 0.26666  0.67164  0.07470  Biso   1.000  Ag
  Ag28     1.0000 0.40656  0.78142  0.12524  Biso   1.000  Ag
  Ag29     1.0000 0.46281  0.71314  0.28454  Biso   1.000  Ag
  Ag30     1.0000 0.44675  0.51898  0.26947  Biso   1.000  Ag
  Ag31     1.0000 0.50875  0.43285  0.43398  Biso   1.000  Ag
  Ag32     1.0000 0.80548  0.28732  0.55199  Biso   1.000  Ag
  Ag33     1.0000 0.07831  0.70795  0.87751  Biso   1.000  Ag
  C129     1.0000 0.48600  0.36640  0.23620  Biso   1.000  C
  C130     1.0000 0.46720  0.37410  0.17040  Biso   1.000  C
  C131     1.0000 0.44130  0.31970  0.13790  Biso   1.000  C
  H113     1.0000 0.43730  0.27810  0.15880  Biso   1.000  H
  C132     1.0000 0.42140  0.32530  0.07560  Biso   1.000  C
  C133     1.0000 0.42890  0.38670  0.04560  Biso   1.000  C
  H114     1.0000 0.41460  0.39180  0.00400  Biso   1.000  H
  C134     1.0000 0.45690  0.44100  0.07470  Biso   1.000  C
  H115     1.0000 0.46300  0.48110  0.05250  Biso   1.000  H
  C135     1.0000 0.47590  0.43510  0.13770  Biso   1.000  C
  H116     1.0000 0.49440  0.47170  0.15820  Biso   1.000  H
  C136     1.0000 0.39090  0.26590  0.04240  Biso   1.000  C
  H117     1.0000 0.37990  0.27870  0.99970  Biso   1.000  H
  H118     1.0000 0.41380  0.22600  0.04310  Biso   1.000  H
  H119     1.0000 0.35980  0.25550  0.06340  Biso   1.000  H
  C137     1.0000 0.47010  0.65650  0.43300  Biso   1.000  C
  C138     1.0000 0.46090  0.72310  0.46220  Biso   1.000  C
  C139     1.0000 0.42340  0.76810  0.43250  Biso   1.000  C
  H120     1.0000 0.40540  0.75670  0.39370  Biso   1.000  H
  C140     1.0000 0.41250  0.83170  0.46180  Biso   1.000  C
  H121     1.0000 0.38630  0.86120  0.44290  Biso   1.000  H
  C141     1.0000 0.43990  0.84950  0.51650  Biso   1.000  C
  H122     1.0000 0.43270  0.89180  0.53450  Biso   1.000  H
  C142     1.0000 0.47860  0.80680  0.54690  Biso   1.000  C
  C143     1.0000 0.48850  0.74290  0.51950  Biso   1.000  C
  H123     1.0000 0.51390  0.71310  0.53980  Biso   1.000  H
  C144     1.0000 0.51380  0.83090  0.60500  Biso   1.000  C
  H124     1.0000 0.50160  0.87530  0.61770  Biso   1.000  H
  H125     1.0000 0.51160  0.79820  0.63830  Biso   1.000  H
  H126     1.0000 0.55040  0.83440  0.59560  Biso   1.000  H
  C145     1.0000 0.35870  0.57450  0.15280  Biso   1.000  C
  C146     1.0000 0.33500  0.50960  0.12680  Biso   1.000  C
  C147     1.0000 0.33570  0.45110  0.16530  Biso   1.000  C
  H127     1.0000 0.35250  0.45290  0.20620  Biso   1.000  H
  C148     1.0000 0.31100  0.38930  0.14210  Biso   1.000  C
  C149     1.0000 0.28820  0.38980  0.08020  Biso   1.000  C
  H128     1.0000 0.27200  0.34960  0.06350  Biso   1.000  H
  C150     1.0000 0.28840  0.44700  0.04280  Biso   1.000  C
  H129     1.0000 0.27280  0.44490  0.00140  Biso   1.000  H
  C151     1.0000 0.31130  0.50690  0.06540  Biso   1.000  C
  H130     1.0000 0.31110  0.54590  0.03990  Biso   1.000  H
  C152     1.0000 0.31280  0.32860  0.18570  Biso   1.000  C
  H131     1.0000 0.29530  0.28980  0.16430  Biso   1.000  H
  H132     1.0000 0.34960  0.31700  0.19910  Biso   1.000  H
  H133     1.0000 0.29460  0.34010  0.22160  Biso   1.000  H
  C153     1.0000 0.15080  0.59630  0.03520  Biso   1.000  C
  C154     1.0000 0.15570  0.53920  0.07980  Biso   1.000  C
  C155     1.0000 0.14030  0.46940  0.06190  Biso   1.000  C
  H134     1.0000 0.12590  0.46120  0.02070  Biso   1.000  H
  C156     1.0000 0.14580  0.41580  0.10180  Biso   1.000  C
  C157     1.0000 0.16590  0.43050  0.16400  Biso   1.000  C
  H135     1.0000 0.17080  0.39480  0.19320  Biso   1.000  H
  C158     1.0000 0.17870  0.49920  0.18260  Biso   1.000  C
  H136     1.0000 0.18910  0.50940  0.22460  Biso   1.000  H
  C159     1.0000 0.17570  0.54970  0.13910  Biso   1.000  C
  H137     1.0000 0.18820  0.59360  0.15090  Biso   1.000  H
  C160     1.0000 0.13230  0.34250  0.08370  Biso   1.000  C
  H138     1.0000 0.11860  0.34070  0.04010  Biso   1.000  H
  H139     1.0000 0.16410  0.31450  0.09040  Biso   1.000  H
  H140     1.0000 0.10560  0.32530  0.10880  Biso   1.000  H
  C161     1.0000 0.96710  0.63860  0.74230  Biso   1.000  C
  C162     1.0000 0.95000  0.63050  0.67460  Biso   1.000  C
  C163     1.0000 0.96580  0.57400  0.64210  Biso   1.000  C
  H141     1.0000 0.98890  0.54110  0.66190  Biso   1.000  H
  C164     1.0000 0.94630  0.56710  0.57870  Biso   1.000  C
  H142     1.0000 0.95610  0.52890  0.55600  Biso   1.000  H
  C165     1.0000 0.91320  0.61560  0.55020  Biso   1.000  C
  H143     1.0000 0.90130  0.61040  0.50780  Biso   1.000  H
  C166     1.0000 0.89760  0.66970  0.58030  Biso   1.000  C
  C167     1.0000 0.91780  0.67940  0.64350  Biso   1.000  C
  H144     1.0000 0.90920  0.71950  0.66430  Biso   1.000  H
  C168     1.0000 0.86070  0.72180  0.54520  Biso   1.000  C
  H145     1.0000 0.85150  0.70620  0.50290  Biso   1.000  H
  H146     1.0000 0.82850  0.72650  0.56570  Biso   1.000  H
  H147     1.0000 0.87860  0.76570  0.54480  Biso   1.000  H
  C169     1.0000 0.86320  0.40710  0.64960  Biso   1.000  C
  C170     1.0000 0.83280  0.46520  0.61970  Biso   1.000  C
  C171     1.0000 0.80890  0.46080  0.55960  Biso   1.000  C
  H148     1.0000 0.81440  0.42190  0.53560  Biso   1.000  H
  C172     1.0000 0.77720  0.51290  0.53450  Biso   1.000  C
  H149     1.0000 0.76070  0.50940  0.49360  Biso   1.000  H
  C173     1.0000 0.76950  0.57130  0.56990  Biso   1.000  C
  H150     1.0000 0.74770  0.60680  0.55240  Biso   1.000  H
  C174     1.0000 0.79310  0.57770  0.62990  Biso   1.000  C
  C175     1.0000 0.82490  0.52560  0.65400  Biso   1.000  C
  H151     1.0000 0.84210  0.52990  0.69450  Biso   1.000  H
  C176     1.0000 0.78230  0.63800  0.66850  Biso   1.000  C
  H152     1.0000 0.80190  0.63340  0.70930  Biso   1.000  H
  H153     1.0000 0.79360  0.67930  0.64880  Biso   1.000  H
  H154     1.0000 0.74450  0.64050  0.67270  Biso   1.000  H
  C177     1.0000 0.31790  0.84760  0.95720  Biso   1.000  C
  C178     1.0000 0.30270  0.87160  0.88990  Biso   1.000  C
  C179     1.0000 0.27380  0.83210  0.84380  Biso   1.000  C
  H155     1.0000 0.26100  0.78860  0.85370  Biso   1.000  H
  C180     1.0000 0.26390  0.85740  0.78290  Biso   1.000  C
  C181     1.0000 0.28290  0.92240  0.76820  Biso   1.000  C
  H156     1.0000 0.27620  0.93940  0.72750  Biso   1.000  H
  C182     1.0000 0.31180  0.96200  0.81430  Biso   1.000  C
  H157     1.0000 0.32450  0.00540  0.80450  Biso   1.000  H
  C183     1.0000 0.32170  0.93660  0.87520  Biso   1.000  C
  H158     1.0000 0.34100  0.96300  0.90610  Biso   1.000  H
  C184     1.0000 0.22510  0.80700  0.73690  Biso   1.000  C
  H159     1.0000 0.21940  0.82710  0.69580  Biso   1.000  H
  H160     1.0000 0.24190  0.76250  0.73440  Biso   1.000  H
  H161     1.0000 0.19110  0.80160  0.75360  Biso   1.000  H
  N65      1.0000 0.51000  0.31080  0.26180  Biso   1.000  N
  N66      1.0000 0.52110  0.32480  0.32360  Biso   1.000  N
  N67      1.0000 0.50320  0.38580  0.33500  Biso   1.000  N
  N68      1.0000 0.48120  0.41460  0.28080  Biso   1.000  N
  N69      1.0000 0.47980  0.59680  0.46480  Biso   1.000  N
  N70      1.0000 0.48260  0.54870  0.41900  Biso   1.000  N
  N71      1.0000 0.47430  0.57770  0.36460  Biso   1.000  N
  N72      1.0000 0.46620  0.64650  0.37060  Biso   1.000  N
  N73      1.0000 0.39840  0.58230  0.19920  Biso   1.000  N
  N74      1.0000 0.40600  0.65110  0.20620  Biso   1.000  N
  N75      1.0000 0.37230  0.68470  0.16630  Biso   1.000  N
  N76      1.0000 0.34110  0.63800  0.13190  Biso   1.000  N
  N77      1.0000 0.18050  0.65130  0.04010  Biso   1.000  N
  N78      1.0000 0.16170  0.69170  0.99220  Biso   1.000  N
  N79      1.0000 0.12170  0.65920  0.96000  Biso   1.000  N
  N80      1.0000 0.11310  0.60050  0.98560  Biso   1.000  N
  N81      1.0000 0.96580  0.58910  0.78360  Biso   1.000  N
  N82      1.0000 0.98510  0.61700  0.83860  Biso   1.000  N
  N83      1.0000 0.99650  0.68190  0.82980  Biso   1.000  N
  N84      1.0000 0.98530  0.69780  0.76760  Biso   1.000  N
  N85      1.0000 0.85720  0.34340  0.62620  Biso   1.000  N
  N86      1.0000 0.89070  0.30290  0.66410  Biso   1.000  N
  N87      1.0000 0.91460  0.34180  0.70920  Biso   1.000  N
  N88      1.0000 0.89800  0.40590  0.70070  Biso   1.000  N
  N89      1.0000 0.35960  0.85150  0.99970  Biso   1.000  N
  N90      1.0000 0.35120  0.80360  0.04140  Biso   1.000  N
  N91      1.0000 0.30650  0.77370  0.02510  Biso   1.000  N
  N92      1.0000 0.28350  0.80080  0.97160  Biso   1.000  N
  Ag34     1.0000 0.97885  0.06395  0.56042  Biso   1.000  Ag
  C185     1.0000 0.01480  0.84170  0.57460  Biso   1.000  C
  C186     1.0000 0.02770  0.77200  0.55130  Biso   1.000  C
  C187     1.0000 0.00440  0.74980  0.49210  Biso   1.000  C
  H162     1.0000 0.98020  0.77770  0.46770  Biso   1.000  H
  C188     1.0000 0.01870  0.68440  0.47070  Biso   1.000  C
  C189     1.0000 0.05670  0.64620  0.50780  Biso   1.000  C
  H163     1.0000 0.06700  0.60330  0.49340  Biso   1.000  H
  C190     1.0000 0.07990  0.66960  0.56560  Biso   1.000  C
  H164     1.0000 0.10490  0.64270  0.58990  Biso   1.000  H
  C191     1.0000 0.06550  0.73210  0.58610  Biso   1.000  C
  H165     1.0000 0.08140  0.74860  0.62440  Biso   1.000  H
  C192     1.0000 0.98880  0.65720  0.40880  Biso   1.000  C
  H166     1.0000 0.00230  0.61220  0.39970  Biso   1.000  H
  H167     1.0000 0.99440  0.68840  0.37520  Biso   1.000  H
  H168     1.0000 0.95100  0.65410  0.41310  Biso   1.000  H
  N93      1.0000 0.99960  0.89620  0.53920  Biso   1.000  N
  N94      1.0000 0.99470  0.94860  0.58150  Biso   1.000  N
  N95      1.0000 0.00470  0.92500  0.63750  Biso   1.000  N
  N96      1.0000 0.01690  0.85660  0.63590  Biso   1.000  N
  Ag35     1.0000 0.93072  0.02070  0.55673  Biso   1.000  Ag
  Ag36     1.0000 0.02958  0.08720  0.56353  Biso   1.000  Ag
  Ag37     1.0000 0.98943  0.29365  0.77645  Biso   1.000  Ag
  Ag38     1.0000 0.05897  0.98158  0.73451  Biso   1.000  Ag
  Ag39     1.0000 0.73334  0.17164  0.42530  Biso   1.000  Ag
  Ag40     1.0000 0.59344  0.28142  0.37476  Biso   1.000  Ag
  Ag41     1.0000 0.53719  0.21314  0.21546  Biso   1.000  Ag
  Ag42     1.0000 0.55325  0.01898  0.23053  Biso   1.000  Ag
  Ag43     1.0000 0.49125  0.93285  0.06602  Biso   1.000  Ag
  Ag44     1.0000 0.19452  0.78732  0.94801  Biso   1.000  Ag
  Ag45     1.0000 0.92169  0.20795  0.62249  Biso   1.000  Ag
  C193     1.0000 0.51400  0.86640  0.26380  Biso   1.000  C
  C194     1.0000 0.53280  0.87410  0.32960  Biso   1.000  C
  C195     1.0000 0.55870  0.81970  0.36210  Biso   1.000  C
  H169     1.0000 0.56270  0.77810  0.34120  Biso   1.000  H
  C196     1.0000 0.57860  0.82530  0.42440  Biso   1.000  C
  C197     1.0000 0.57110  0.88670  0.45440  Biso   1.000  C
  H170     1.0000 0.58540  0.89180  0.49600  Biso   1.000  H
  C198     1.0000 0.54310  0.94100  0.42530  Biso   1.000  C
  H171     1.0000 0.53700  0.98110  0.44750  Biso   1.000  H
  C199     1.0000 0.52410  0.93510  0.36230  Biso   1.000  C
  H172     1.0000 0.50560  0.97170  0.34180  Biso   1.000  H
  C200     1.0000 0.60910  0.76590  0.45760  Biso   1.000  C
  H173     1.0000 0.62010  0.77870  0.50030  Biso   1.000  H
  H174     1.0000 0.58620  0.72600  0.45690  Biso   1.000  H
  H175     1.0000 0.64020  0.75550  0.43660  Biso   1.000  H
  C201     1.0000 0.52990  0.15650  0.06700  Biso   1.000  C
  C202     1.0000 0.53910  0.22310  0.03780  Biso   1.000  C
  C203     1.0000 0.57660  0.26810  0.06750  Biso   1.000  C
  H176     1.0000 0.59460  0.25670  0.10630  Biso   1.000  H
  C204     1.0000 0.58750  0.33170  0.03820  Biso   1.000  C
  H177     1.0000 0.61370  0.36120  0.05710  Biso   1.000  H
  C205     1.0000 0.56010  0.34950  0.98350  Biso   1.000  C
  H178     1.0000 0.56730  0.39180  0.96550  Biso   1.000  H
  C206     1.0000 0.52140  0.30680  0.95310  Biso   1.000  C
  C207     1.0000 0.51150  0.24290  0.98050  Biso   1.000  C
  H179     1.0000 0.48610  0.21310  0.96020  Biso   1.000  H
  C208     1.0000 0.48620  0.33090  0.89500  Biso   1.000  C
  H180     1.0000 0.49840  0.37530  0.88230  Biso   1.000  H
  H181     1.0000 0.48840  0.29820  0.86170  Biso   1.000  H
  H182     1.0000 0.44960  0.33440  0.90440  Biso   1.000  H
  C209     1.0000 0.64130  0.07450  0.34720  Biso   1.000  C
  C210     1.0000 0.66500  0.00960  0.37320  Biso   1.000  C
  C211     1.0000 0.66430  0.95110  0.33470  Biso   1.000  C
  H183     1.0000 0.64750  0.95290  0.29380  Biso   1.000  H
  C212     1.0000 0.68900  0.88930  0.35790  Biso   1.000  C
  C213     1.0000 0.71180  0.88980  0.41980  Biso   1.000  C
  H184     1.0000 0.72800  0.84960  0.43650  Biso   1.000  H
  C214     1.0000 0.71160  0.94700  0.45720  Biso   1.000  C
  H185     1.0000 0.72720  0.94490  0.49860  Biso   1.000  H
  C215     1.0000 0.68870  0.00690  0.43460  Biso   1.000  C
  H186     1.0000 0.68890  0.04590  0.46010  Biso   1.000  H
  C216     1.0000 0.68720  0.82860  0.31430  Biso   1.000  C
  H187     1.0000 0.70470  0.78980  0.33570  Biso   1.000  H
  H188     1.0000 0.65040  0.81700  0.30090  Biso   1.000  H
  H189     1.0000 0.70540  0.84010  0.27840  Biso   1.000  H
  C217     1.0000 0.84920  0.09630  0.46480  Biso   1.000  C
  C218     1.0000 0.84430  0.03920  0.42020  Biso   1.000  C
  C219     1.0000 0.85970  0.96940  0.43810  Biso   1.000  C
  H190     1.0000 0.87410  0.96120  0.47930  Biso   1.000  H
  C220     1.0000 0.85420  0.91580  0.39820  Biso   1.000  C
  C221     1.0000 0.83410  0.93050  0.33600  Biso   1.000  C
  H191     1.0000 0.82920  0.89480  0.30680  Biso   1.000  H
  C222     1.0000 0.82130  0.99920  0.31740  Biso   1.000  C
  H192     1.0000 0.81090  0.00940  0.27540  Biso   1.000  H
  C223     1.0000 0.82430  0.04970  0.36090  Biso   1.000  C
  H193     1.0000 0.81180  0.09360  0.34910  Biso   1.000  H
  C224     1.0000 0.86770  0.84250  0.41630  Biso   1.000  C
  H194     1.0000 0.88140  0.84070  0.45990  Biso   1.000  H
  H195     1.0000 0.83590  0.81450  0.40960  Biso   1.000  H
  H196     1.0000 0.89440  0.82530  0.39120  Biso   1.000  H
  C225     1.0000 0.03290  0.13860  0.75770  Biso   1.000  C
  C226     1.0000 0.05000  0.13050  0.82540  Biso   1.000  C
  C227     1.0000 0.03420  0.07400  0.85790  Biso   1.000  C
  H197     1.0000 0.01110  0.04110  0.83810  Biso   1.000  H
  C228     1.0000 0.05370  0.06710  0.92130  Biso   1.000  C
  H198     1.0000 0.04390  0.02890  0.94400  Biso   1.000  H
  C229     1.0000 0.08680  0.11560  0.94980  Biso   1.000  C
  H199     1.0000 0.09870  0.11040  0.99220  Biso   1.000  H
  C230     1.0000 0.10240  0.16970  0.91970  Biso   1.000  C
  C231     1.0000 0.08220  0.17940  0.85650  Biso   1.000  C
  H200     1.0000 0.09080  0.21950  0.83570  Biso   1.000  H
  C232     1.0000 0.13930  0.22180  0.95480  Biso   1.000  C
  H201     1.0000 0.14850  0.20620  0.99710  Biso   1.000  H
  H202     1.0000 0.17150  0.22650  0.93430  Biso   1.000  H
  H203     1.0000 0.12140  0.26570  0.95520  Biso   1.000  H
  C233     1.0000 0.13680  0.90710  0.85040  Biso   1.000  C
  C234     1.0000 0.16720  0.96520  0.88030  Biso   1.000  C
  C235     1.0000 0.19110  0.96080  0.94040  Biso   1.000  C
  H204     1.0000 0.18560  0.92190  0.96440  Biso   1.000  H
  C236     1.0000 0.22280  0.01290  0.96550  Biso   1.000  C
  H205     1.0000 0.23930  0.00940  0.00640  Biso   1.000  H
  C237     1.0000 0.23050  0.07130  0.93010  Biso   1.000  C
  H206     1.0000 0.25230  0.10680  0.94760  Biso   1.000  H
  C238     1.0000 0.20690  0.07770  0.87010  Biso   1.000  C
  C239     1.0000 0.17510  0.02560  0.84600  Biso   1.000  C
  H207     1.0000 0.15790  0.02990  0.80550  Biso   1.000  H
  C240     1.0000 0.21770  0.13800  0.83150  Biso   1.000  C
  H208     1.0000 0.19810  0.13340  0.79070  Biso   1.000  H
  H209     1.0000 0.20640  0.17930  0.85120  Biso   1.000  H
  H210     1.0000 0.25550  0.14050  0.82730  Biso   1.000  H
  C241     1.0000 0.68210  0.34760  0.54280  Biso   1.000  C
  C242     1.0000 0.69730  0.37160  0.61010  Biso   1.000  C
  C243     1.0000 0.72620  0.33210  0.65620  Biso   1.000  C
  H211     1.0000 0.73900  0.28860  0.64630  Biso   1.000  H
  C244     1.0000 0.73610  0.35740  0.71710  Biso   1.000  C
  C245     1.0000 0.71710  0.42240  0.73180  Biso   1.000  C
  H212     1.0000 0.72380  0.43940  0.77250  Biso   1.000  H
  C246     1.0000 0.68820  0.46200  0.68570  Biso   1.000  C
  H213     1.0000 0.67550  0.50540  0.69550  Biso   1.000  H
  C247     1.0000 0.67830  0.43660  0.62480  Biso   1.000  C
  H214     1.0000 0.65900  0.46300  0.59390  Biso   1.000  H
  C248     1.0000 0.77490  0.30700  0.76310  Biso   1.000  C
  H215     1.0000 0.78060  0.32710  0.80420  Biso   1.000  H
  H216     1.0000 0.75810  0.26250  0.76560  Biso   1.000  H
  H217     1.0000 0.80890  0.30160  0.74640  Biso   1.000  H
  N97      1.0000 0.49000  0.81080  0.23820  Biso   1.000  N
  N98      1.0000 0.47890  0.82480  0.17640  Biso   1.000  N
  N99      1.0000 0.49680  0.88580  0.16500  Biso   1.000  N
  N100     1.0000 0.51880  0.91460  0.21920  Biso   1.000  N
  N101     1.0000 0.52020  0.09680  0.03520  Biso   1.000  N
  N102     1.0000 0.51740  0.04870  0.08100  Biso   1.000  N
  N103     1.0000 0.52570  0.07770  0.13540  Biso   1.000  N
  N104     1.0000 0.53380  0.14650  0.12940  Biso   1.000  N
  N105     1.0000 0.60160  0.08230  0.30080  Biso   1.000  N
  N106     1.0000 0.59400  0.15110  0.29380  Biso   1.000  N
  N107     1.0000 0.62770  0.18470  0.33370  Biso   1.000  N
  N108     1.0000 0.65890  0.13800  0.36810  Biso   1.000  N
  N109     1.0000 0.81950  0.15130  0.45990  Biso   1.000  N
  N110     1.0000 0.83830  0.19170  0.50780  Biso   1.000  N
  N111     1.0000 0.87830  0.15920  0.54000  Biso   1.000  N
  N112     1.0000 0.88690  0.10050  0.51440  Biso   1.000  N
  N113     1.0000 0.03420  0.08910  0.71640  Biso   1.000  N
  N114     1.0000 0.01490  0.11700  0.66140  Biso   1.000  N
  N115     1.0000 0.00350  0.18190  0.67020  Biso   1.000  N
  N116     1.0000 0.01470  0.19780  0.73240  Biso   1.000  N
  N117     1.0000 0.14280  0.84340  0.87380  Biso   1.000  N
  N118     1.0000 0.10930  0.80290  0.83590  Biso   1.000  N
  N119     1.0000 0.08540  0.84180  0.79080  Biso   1.000  N
  N120     1.0000 0.10200  0.90590  0.79930  Biso   1.000  N
  N121     1.0000 0.64040  0.35150  0.50030  Biso   1.000  N
  N122     1.0000 0.64880  0.30360  0.45860  Biso   1.000  N
  N123     1.0000 0.69350  0.27370  0.47490  Biso   1.000  N
  N124     1.0000 0.71650  0.30080  0.52840  Biso   1.000  N
  Ag46     1.0000 0.02115  0.56395  0.93958  Biso   1.000  Ag
  C249     1.0000 0.98520  0.34170  0.92540  Biso   1.000  C
  C250     1.0000 0.97230  0.27200  0.94870  Biso   1.000  C
  C251     1.0000 0.99560  0.24980  0.00790  Biso   1.000  C
  H218     1.0000 0.01980  0.27770  0.03230  Biso   1.000  H
  C252     1.0000 0.98130  0.18440  0.02930  Biso   1.000  C
  C253     1.0000 0.94330  0.14620  0.99220  Biso   1.000  C
  H219     1.0000 0.93300  0.10330  0.00660  Biso   1.000  H
  C254     1.0000 0.92010  0.16960  0.93440  Biso   1.000  C
  H220     1.0000 0.89510  0.14270  0.91010  Biso   1.000  H
  C255     1.0000 0.93450  0.23210  0.91390  Biso   1.000  C
  H221     1.0000 0.91860  0.24860  0.87560  Biso   1.000  H
  C256     1.0000 0.01120  0.15720  0.09120  Biso   1.000  C
  H222     1.0000 0.99770  0.11220  0.10030  Biso   1.000  H
  H223     1.0000 0.00560  0.18840  0.12480  Biso   1.000  H
  H224     1.0000 0.04900  0.15410  0.08690  Biso   1.000  H
  N125     1.0000 0.00040  0.39620  0.96080  Biso   1.000  N
  N126     1.0000 0.00530  0.44860  0.91850  Biso   1.000  N
  N127     1.0000 0.99530  0.42500  0.86250  Biso   1.000  N
  N128     1.0000 0.98310  0.35660  0.86410  Biso   1.000  N
  Ag47     1.0000 0.06928  0.52070  0.94327  Biso   1.000  Ag
  Ag48     1.0000 0.97042  0.58720  0.93647  Biso   1.000  Ag
