data_image0
_cell_length_a       38.7269
_cell_length_b       14.9496
_cell_length_c       31.7789
_cell_angle_alpha    90
_cell_angle_beta     90.794
_cell_angle_gamma    90

_symmetry_space_group_name_H-M    "P 1"
_symmetry_int_tables_number       1

loop_
  _symmetry_equiv_pos_as_xyz
  'x, y, z'

loop_
  _atom_site_label
  _atom_site_occupancy
  _atom_site_fract_x
  _atom_site_fract_y
  _atom_site_fract_z
  _atom_site_thermal_displace_type
  _atom_site_B_iso_or_equiv
  _atom_site_type_symbol
  In1      1.0000 0.21832  0.02187  0.20056  Biso   1.000  In
  O1       1.0000 0.24523  0.90010  0.23335  Biso   1.000  O
  O2       1.0000 0.26119  0.03730  0.24795  Biso   1.000  O
  O3       1.0000 0.67473  0.48040  0.24478  Biso   1.000  O
  O4       1.0000 0.68970  0.62110  0.24035  Biso   1.000  O
  O5       1.0000 0.69116  0.59260  0.66272  Biso   1.000  O
  O6       1.0000 0.67526  0.45220  0.65423  Biso   1.000  O
  O7       1.0000 0.25875  0.99750  0.65282  Biso   1.000  O
  O8       1.0000 0.24504  0.85960  0.66771  Biso   1.000  O
  C1       1.0000 0.26454  0.95630  0.25266  Biso   1.000  C
  C2       1.0000 0.29306  0.91950  0.28032  Biso   1.000  C
  C3       1.0000 0.29704  0.83060  0.28700  Biso   1.000  C
  H1       1.0000 0.28130  0.79070  0.27520  Biso   1.000  H
  C4       1.0000 0.32476  0.79790  0.31166  Biso   1.000  C
  H2       1.0000 0.32740  0.73670  0.31590  Biso   1.000  H
  C5       1.0000 0.34831  0.85830  0.32972  Biso   1.000  C
  C6       1.0000 0.34337  0.94800  0.32410  Biso   1.000  C
  H3       1.0000 0.35860  0.98810  0.33690  Biso   1.000  H
  C7       1.0000 0.31619  0.98060  0.29960  Biso   1.000  C
  H4       1.0000 0.31320  0.04190  0.29600  Biso   1.000  H
  C8       1.0000 0.37830  0.82500  0.35601  Biso   1.000  C
  C9       1.0000 0.39337  0.74540  0.34565  Biso   1.000  C
  H5       1.0000 0.38460  0.71280  0.32300  Biso   1.000  H
  C10      1.0000 0.42142  0.71220  0.36824  Biso   1.000  C
  H6       1.0000 0.43180  0.65870  0.36040  Biso   1.000  H
  C11      1.0000 0.43447  0.76190  0.40443  Biso   1.000  C
  C12      1.0000 0.41791  0.84340  0.41236  Biso   1.000  C
  H7       1.0000 0.42600  0.87830  0.43460  Biso   1.000  H
  C13      1.0000 0.39041  0.87420  0.38900  Biso   1.000  C
  H8       1.0000 0.38010  0.92840  0.39570  Biso   1.000  H
  C14      1.0000 0.46437  0.72850  0.42939  Biso   1.000  C
  C15      1.0000 0.49468  0.70090  0.40391  Biso   1.000  C
  C16      1.0000 0.50735  0.75870  0.37350  Biso   1.000  C
  H9       1.0000 0.49660  0.81370  0.36910  Biso   1.000  H
  C17      1.0000 0.53599  0.73550  0.34940  Biso   1.000  C
  H10      1.0000 0.54420  0.77550  0.32960  Biso   1.000  H
  C18      1.0000 0.55197  0.65510  0.35475  Biso   1.000  C
  C19      1.0000 0.53724  0.59350  0.38200  Biso   1.000  C
  H11      1.0000 0.54610  0.53580  0.38400  Biso   1.000  H
  C20      1.0000 0.50909  0.61830  0.40630  Biso   1.000  C
  H12      1.0000 0.49990  0.57680  0.42480  Biso   1.000  H
  C21      1.0000 0.58259  0.63080  0.32907  Biso   1.000  C
  C22      1.0000 0.60470  0.69740  0.31410  Biso   1.000  C
  H13      1.0000 0.60070  0.75700  0.32080  Biso   1.000  H
  C23      1.0000 0.63255  0.67450  0.28910  Biso   1.000  C
  H14      1.0000 0.64630  0.71930  0.27790  Biso   1.000  H
  C24      1.0000 0.63999  0.58600  0.28075  Biso   1.000  C
  C25      1.0000 0.61750  0.51970  0.29560  Biso   1.000  C
  H15      1.0000 0.62130  0.45990  0.28910  Biso   1.000  H
  C26      1.0000 0.58982  0.54360  0.31980  Biso   1.000  C
  H16      1.0000 0.57560  0.49900  0.33020  Biso   1.000  H
  C27      1.0000 0.46442  0.72500  0.47147  Biso   1.000  C
  C28      1.0000 0.43403  0.74800  0.49677  Biso   1.000  C
  C29      1.0000 0.40240  0.70110  0.49271  Biso   1.000  C
  H17      1.0000 0.40070  0.65330  0.47410  Biso   1.000  H
  C30      1.0000 0.37442  0.72510  0.51580  Biso   1.000  C
  H18      1.0000 0.35380  0.69350  0.51280  Biso   1.000  H
  C31      1.0000 0.37655  0.79830  0.54458  Biso   1.000  C
  C32      1.0000 0.40723  0.84260  0.54760  Biso   1.000  C
  H19      1.0000 0.40890  0.89260  0.56490  Biso   1.000  H
  C33      1.0000 0.43571  0.81560  0.52580  Biso   1.000  C
  H20      1.0000 0.45670  0.84390  0.53080  Biso   1.000  H
  C34      1.0000 0.34628  0.82770  0.57033  Biso   1.000  C
  C35      1.0000 0.32426  0.76540  0.58759  Biso   1.000  C
  H21      1.0000 0.32780  0.70490  0.58260  Biso   1.000  H
  C36      1.0000 0.29651  0.79270  0.61273  Biso   1.000  C
  H22      1.0000 0.28190  0.75030  0.62430  Biso   1.000  H
  C37      1.0000 0.29101  0.88220  0.62012  Biso   1.000  C
  C38      1.0000 0.31345  0.94490  0.60150  Biso   1.000  C
  H23      1.0000 0.30990  0.00570  0.60580  Biso   1.000  H
  C39      1.0000 0.34048  0.91730  0.57690  Biso   1.000  C
  H24      1.0000 0.35490  0.95950  0.56470  Biso   1.000  H
  C40      1.0000 0.49567  0.69830  0.49682  Biso   1.000  C
  C41      1.0000 0.49334  0.63410  0.52770  Biso   1.000  C
  H25      1.0000 0.47200  0.60830  0.53310  Biso   1.000  H
  C42      1.0000 0.52167  0.60700  0.55080  Biso   1.000  C
  H26      1.0000 0.51930  0.56110  0.57030  Biso   1.000  H
  C43      1.0000 0.55384  0.64670  0.54555  Biso   1.000  C
  C44      1.0000 0.55574  0.71440  0.51460  Biso   1.000  C
  H27      1.0000 0.57670  0.74300  0.51020  Biso   1.000  H
  C45      1.0000 0.52731  0.73910  0.49070  Biso   1.000  C
  H28      1.0000 0.52940  0.78350  0.47040  Biso   1.000  H
  C46      1.0000 0.58470  0.61680  0.57077  Biso   1.000  C
  C47      1.0000 0.59003  0.52780  0.58025  Biso   1.000  C
  H29      1.0000 0.57420  0.48560  0.57050  Biso   1.000  H
  C48      1.0000 0.61837  0.49930  0.60391  Biso   1.000  C
  H30      1.0000 0.62160  0.43900  0.61010  Biso   1.000  H
  C49      1.0000 0.64207  0.56370  0.61831  Biso   1.000  C
  C50      1.0000 0.63718  0.65220  0.60798  Biso   1.000  C
  H31      1.0000 0.65330  0.69440  0.61700  Biso   1.000  H
  C51      1.0000 0.60904  0.67940  0.58465  Biso   1.000  C
  H32      1.0000 0.60620  0.73950  0.57810  Biso   1.000  H
  C52      1.0000 0.67016  0.56250  0.25395  Biso   1.000  C
  C53      1.0000 0.67144  0.53420  0.64618  Biso   1.000  C
  C54      1.0000 0.26339  0.91490  0.64824  Biso   1.000  C
  In2      1.0000 0.71832  0.52187  0.20056  Biso   1.000  In
  O9       1.0000 0.74523  0.40010  0.23335  Biso   1.000  O
  O10      1.0000 0.76119  0.53730  0.24795  Biso   1.000  O
  O11      1.0000 0.17473  0.98040  0.24478  Biso   1.000  O
  O12      1.0000 0.18970  0.12110  0.24035  Biso   1.000  O
  O13      1.0000 0.19116  0.09260  0.66272  Biso   1.000  O
  O14      1.0000 0.17526  0.95220  0.65423  Biso   1.000  O
  O15      1.0000 0.75875  0.49750  0.65282  Biso   1.000  O
  O16      1.0000 0.74504  0.35960  0.66771  Biso   1.000  O
  C55      1.0000 0.76454  0.45630  0.25266  Biso   1.000  C
  C56      1.0000 0.79306  0.41950  0.28032  Biso   1.000  C
  C57      1.0000 0.79704  0.33060  0.28700  Biso   1.000  C
  H33      1.0000 0.78130  0.29070  0.27520  Biso   1.000  H
  C58      1.0000 0.82476  0.29790  0.31166  Biso   1.000  C
  H34      1.0000 0.82740  0.23670  0.31590  Biso   1.000  H
  C59      1.0000 0.84831  0.35830  0.32972  Biso   1.000  C
  C60      1.0000 0.84337  0.44800  0.32410  Biso   1.000  C
  H35      1.0000 0.85860  0.48810  0.33690  Biso   1.000  H
  C61      1.0000 0.81619  0.48060  0.29960  Biso   1.000  C
  H36      1.0000 0.81320  0.54190  0.29600  Biso   1.000  H
  C62      1.0000 0.87830  0.32500  0.35601  Biso   1.000  C
  C63      1.0000 0.89337  0.24540  0.34565  Biso   1.000  C
  H37      1.0000 0.88460  0.21280  0.32300  Biso   1.000  H
  C64      1.0000 0.92142  0.21220  0.36824  Biso   1.000  C
  H38      1.0000 0.93180  0.15870  0.36040  Biso   1.000  H
  C65      1.0000 0.93447  0.26190  0.40443  Biso   1.000  C
  C66      1.0000 0.91791  0.34340  0.41236  Biso   1.000  C
  H39      1.0000 0.92600  0.37830  0.43460  Biso   1.000  H
  C67      1.0000 0.89041  0.37420  0.38900  Biso   1.000  C
  H40      1.0000 0.88010  0.42840  0.39570  Biso   1.000  H
  C68      1.0000 0.96437  0.22850  0.42939  Biso   1.000  C
  C69      1.0000 0.99468  0.20090  0.40391  Biso   1.000  C
  C70      1.0000 0.00735  0.25870  0.37350  Biso   1.000  C
  H41      1.0000 0.99660  0.31370  0.36910  Biso   1.000  H
  C71      1.0000 0.03599  0.23550  0.34940  Biso   1.000  C
  H42      1.0000 0.04420  0.27550  0.32960  Biso   1.000  H
  C72      1.0000 0.05197  0.15510  0.35475  Biso   1.000  C
  C73      1.0000 0.03724  0.09350  0.38200  Biso   1.000  C
  H43      1.0000 0.04610  0.03580  0.38400  Biso   1.000  H
  C74      1.0000 0.00909  0.11830  0.40630  Biso   1.000  C
  H44      1.0000 0.99990  0.07680  0.42480  Biso   1.000  H
  C75      1.0000 0.08259  0.13080  0.32907  Biso   1.000  C
  C76      1.0000 0.10470  0.19740  0.31410  Biso   1.000  C
  H45      1.0000 0.10070  0.25700  0.32080  Biso   1.000  H
  C77      1.0000 0.13255  0.17450  0.28910  Biso   1.000  C
  H46      1.0000 0.14630  0.21930  0.27790  Biso   1.000  H
  C78      1.0000 0.13999  0.08600  0.28075  Biso   1.000  C
  C79      1.0000 0.11750  0.01970  0.29560  Biso   1.000  C
  H47      1.0000 0.12130  0.95990  0.28910  Biso   1.000  H
  C80      1.0000 0.08982  0.04360  0.31980  Biso   1.000  C
  H48      1.0000 0.07560  0.99900  0.33020  Biso   1.000  H
  C81      1.0000 0.96442  0.22500  0.47147  Biso   1.000  C
  C82      1.0000 0.93403  0.24800  0.49677  Biso   1.000  C
  C83      1.0000 0.90240  0.20110  0.49271  Biso   1.000  C
  H49      1.0000 0.90070  0.15330  0.47410  Biso   1.000  H
  C84      1.0000 0.87442  0.22510  0.51580  Biso   1.000  C
  H50      1.0000 0.85380  0.19350  0.51280  Biso   1.000  H
  C85      1.0000 0.87655  0.29830  0.54458  Biso   1.000  C
  C86      1.0000 0.90723  0.34260  0.54760  Biso   1.000  C
  H51      1.0000 0.90890  0.39260  0.56490  Biso   1.000  H
  C87      1.0000 0.93571  0.31560  0.52580  Biso   1.000  C
  H52      1.0000 0.95670  0.34390  0.53080  Biso   1.000  H
  C88      1.0000 0.84628  0.32770  0.57033  Biso   1.000  C
  C89      1.0000 0.82426  0.26540  0.58759  Biso   1.000  C
  H53      1.0000 0.82780  0.20490  0.58260  Biso   1.000  H
  C90      1.0000 0.79651  0.29270  0.61273  Biso   1.000  C
  H54      1.0000 0.78190  0.25030  0.62430  Biso   1.000  H
  C91      1.0000 0.79101  0.38220  0.62012  Biso   1.000  C
  C92      1.0000 0.81345  0.44490  0.60150  Biso   1.000  C
  H55      1.0000 0.80990  0.50570  0.60580  Biso   1.000  H
  C93      1.0000 0.84048  0.41730  0.57690  Biso   1.000  C
  H56      1.0000 0.85490  0.45950  0.56470  Biso   1.000  H
  C94      1.0000 0.99567  0.19830  0.49682  Biso   1.000  C
  C95      1.0000 0.99334  0.13410  0.52770  Biso   1.000  C
  H57      1.0000 0.97200  0.10830  0.53310  Biso   1.000  H
  C96      1.0000 0.02167  0.10700  0.55080  Biso   1.000  C
  H58      1.0000 0.01930  0.06110  0.57030  Biso   1.000  H
  C97      1.0000 0.05384  0.14670  0.54555  Biso   1.000  C
  C98      1.0000 0.05574  0.21440  0.51460  Biso   1.000  C
  H59      1.0000 0.07670  0.24300  0.51020  Biso   1.000  H
  C99      1.0000 0.02731  0.23910  0.49070  Biso   1.000  C
  H60      1.0000 0.02940  0.28350  0.47040  Biso   1.000  H
  C100     1.0000 0.08470  0.11680  0.57077  Biso   1.000  C
  C101     1.0000 0.09003  0.02780  0.58025  Biso   1.000  C
  H61      1.0000 0.07420  0.98560  0.57050  Biso   1.000  H
  C102     1.0000 0.11837  0.99930  0.60391  Biso   1.000  C
  H62      1.0000 0.12160  0.93900  0.61010  Biso   1.000  H
  C103     1.0000 0.14207  0.06370  0.61831  Biso   1.000  C
  C104     1.0000 0.13718  0.15220  0.60798  Biso   1.000  C
  H63      1.0000 0.15330  0.19440  0.61700  Biso   1.000  H
  C105     1.0000 0.10904  0.17940  0.58465  Biso   1.000  C
  H64      1.0000 0.10620  0.23950  0.57810  Biso   1.000  H
  C106     1.0000 0.17016  0.06250  0.25395  Biso   1.000  C
  C107     1.0000 0.17144  0.03420  0.64618  Biso   1.000  C
  C108     1.0000 0.76339  0.41490  0.64824  Biso   1.000  C
  In3      1.0000 0.21832  0.97813  0.70056  Biso   1.000  In
  O17      1.0000 0.24523  0.09990  0.73335  Biso   1.000  O
  O18      1.0000 0.26119  0.96270  0.74795  Biso   1.000  O
  O19      1.0000 0.67473  0.51960  0.74478  Biso   1.000  O
  O20      1.0000 0.68970  0.37890  0.74035  Biso   1.000  O
  O21      1.0000 0.69116  0.40740  0.16272  Biso   1.000  O
  O22      1.0000 0.67526  0.54780  0.15423  Biso   1.000  O
  O23      1.0000 0.25875  0.00250  0.15282  Biso   1.000  O
  O24      1.0000 0.24504  0.14040  0.16771  Biso   1.000  O
  C109     1.0000 0.26454  0.04370  0.75266  Biso   1.000  C
  C110     1.0000 0.29306  0.08050  0.78032  Biso   1.000  C
  C111     1.0000 0.29704  0.16940  0.78700  Biso   1.000  C
  H65      1.0000 0.28130  0.20930  0.77520  Biso   1.000  H
  C112     1.0000 0.32476  0.20210  0.81166  Biso   1.000  C
  H66      1.0000 0.32740  0.26330  0.81590  Biso   1.000  H
  C113     1.0000 0.34831  0.14170  0.82972  Biso   1.000  C
  C114     1.0000 0.34337  0.05200  0.82410  Biso   1.000  C
  H67      1.0000 0.35860  0.01190  0.83690  Biso   1.000  H
  C115     1.0000 0.31619  0.01940  0.79960  Biso   1.000  C
  H68      1.0000 0.31320  0.95810  0.79600  Biso   1.000  H
  C116     1.0000 0.37830  0.17500  0.85601  Biso   1.000  C
  C117     1.0000 0.39337  0.25460  0.84565  Biso   1.000  C
  H69      1.0000 0.38460  0.28720  0.82300  Biso   1.000  H
  C118     1.0000 0.42142  0.28780  0.86824  Biso   1.000  C
  H70      1.0000 0.43180  0.34130  0.86040  Biso   1.000  H
  C119     1.0000 0.43447  0.23810  0.90443  Biso   1.000  C
  C120     1.0000 0.41791  0.15660  0.91236  Biso   1.000  C
  H71      1.0000 0.42600  0.12170  0.93460  Biso   1.000  H
  C121     1.0000 0.39041  0.12580  0.88900  Biso   1.000  C
  H72      1.0000 0.38010  0.07160  0.89570  Biso   1.000  H
  C122     1.0000 0.46437  0.27150  0.92939  Biso   1.000  C
  C123     1.0000 0.49468  0.29910  0.90391  Biso   1.000  C
  C124     1.0000 0.50735  0.24130  0.87350  Biso   1.000  C
  H73      1.0000 0.49660  0.18630  0.86910  Biso   1.000  H
  C125     1.0000 0.53599  0.26450  0.84940  Biso   1.000  C
  H74      1.0000 0.54420  0.22450  0.82960  Biso   1.000  H
  C126     1.0000 0.55197  0.34490  0.85475  Biso   1.000  C
  C127     1.0000 0.53724  0.40650  0.88200  Biso   1.000  C
  H75      1.0000 0.54610  0.46420  0.88400  Biso   1.000  H
  C128     1.0000 0.50909  0.38170  0.90630  Biso   1.000  C
  H76      1.0000 0.49990  0.42320  0.92480  Biso   1.000  H
  C129     1.0000 0.58259  0.36920  0.82907  Biso   1.000  C
  C130     1.0000 0.60470  0.30260  0.81410  Biso   1.000  C
  H77      1.0000 0.60070  0.24300  0.82080  Biso   1.000  H
  C131     1.0000 0.63255  0.32550  0.78910  Biso   1.000  C
  H78      1.0000 0.64630  0.28070  0.77790  Biso   1.000  H
  C132     1.0000 0.63999  0.41400  0.78075  Biso   1.000  C
  C133     1.0000 0.61750  0.48030  0.79560  Biso   1.000  C
  H79      1.0000 0.62130  0.54010  0.78910  Biso   1.000  H
  C134     1.0000 0.58982  0.45640  0.81980  Biso   1.000  C
  H80      1.0000 0.57560  0.50100  0.83020  Biso   1.000  H
  C135     1.0000 0.46442  0.27500  0.97147  Biso   1.000  C
  C136     1.0000 0.43403  0.25200  0.99677  Biso   1.000  C
  C137     1.0000 0.40240  0.29890  0.99271  Biso   1.000  C
  H81      1.0000 0.40070  0.34670  0.97410  Biso   1.000  H
  C138     1.0000 0.37442  0.27490  0.01580  Biso   1.000  C
  H82      1.0000 0.35380  0.30650  0.01280  Biso   1.000  H
  C139     1.0000 0.37655  0.20170  0.04458  Biso   1.000  C
  C140     1.0000 0.40723  0.15740  0.04760  Biso   1.000  C
  H83      1.0000 0.40890  0.10740  0.06490  Biso   1.000  H
  C141     1.0000 0.43571  0.18440  0.02580  Biso   1.000  C
  H84      1.0000 0.45670  0.15610  0.03080  Biso   1.000  H
  C142     1.0000 0.34628  0.17230  0.07033  Biso   1.000  C
  C143     1.0000 0.32426  0.23460  0.08759  Biso   1.000  C
  H85      1.0000 0.32780  0.29510  0.08260  Biso   1.000  H
  C144     1.0000 0.29651  0.20730  0.11273  Biso   1.000  C
  H86      1.0000 0.28190  0.24970  0.12430  Biso   1.000  H
  C145     1.0000 0.29101  0.11780  0.12012  Biso   1.000  C
  C146     1.0000 0.31345  0.05510  0.10150  Biso   1.000  C
  H87      1.0000 0.30990  0.99430  0.10580  Biso   1.000  H
  C147     1.0000 0.34048  0.08270  0.07690  Biso   1.000  C
  H88      1.0000 0.35490  0.04050  0.06470  Biso   1.000  H
  C148     1.0000 0.49567  0.30170  0.99682  Biso   1.000  C
  C149     1.0000 0.49334  0.36590  0.02770  Biso   1.000  C
  H89      1.0000 0.47200  0.39170  0.03310  Biso   1.000  H
  C150     1.0000 0.52167  0.39300  0.05080  Biso   1.000  C
  H90      1.0000 0.51930  0.43890  0.07030  Biso   1.000  H
  C151     1.0000 0.55384  0.35330  0.04555  Biso   1.000  C
  C152     1.0000 0.55574  0.28560  0.01460  Biso   1.000  C
  H91      1.0000 0.57670  0.25700  0.01020  Biso   1.000  H
  C153     1.0000 0.52731  0.26090  0.99070  Biso   1.000  C
  H92      1.0000 0.52940  0.21650  0.97040  Biso   1.000  H
  C154     1.0000 0.58470  0.38320  0.07077  Biso   1.000  C
  C155     1.0000 0.59003  0.47220  0.08025  Biso   1.000  C
  H93      1.0000 0.57420  0.51440  0.07050  Biso   1.000  H
  C156     1.0000 0.61837  0.50070  0.10391  Biso   1.000  C
  H94      1.0000 0.62160  0.56100  0.11010  Biso   1.000  H
  C157     1.0000 0.64207  0.43630  0.11831  Biso   1.000  C
  C158     1.0000 0.63718  0.34780  0.10798  Biso   1.000  C
  H95      1.0000 0.65330  0.30560  0.11700  Biso   1.000  H
  C159     1.0000 0.60904  0.32060  0.08465  Biso   1.000  C
  H96      1.0000 0.60620  0.26050  0.07810  Biso   1.000  H
  C160     1.0000 0.67016  0.43750  0.75395  Biso   1.000  C
  C161     1.0000 0.67144  0.46580  0.14618  Biso   1.000  C
  C162     1.0000 0.26339  0.08510  0.14824  Biso   1.000  C
  In4      1.0000 0.71832  0.47813  0.70056  Biso   1.000  In
  O25      1.0000 0.74523  0.59990  0.73335  Biso   1.000  O
  O26      1.0000 0.76119  0.46270  0.74795  Biso   1.000  O
  O27      1.0000 0.17473  0.01960  0.74478  Biso   1.000  O
  O28      1.0000 0.18970  0.87890  0.74035  Biso   1.000  O
  O29      1.0000 0.19116  0.90740  0.16272  Biso   1.000  O
  O30      1.0000 0.17526  0.04780  0.15423  Biso   1.000  O
  O31      1.0000 0.75875  0.50250  0.15282  Biso   1.000  O
  O32      1.0000 0.74504  0.64040  0.16771  Biso   1.000  O
  C163     1.0000 0.76454  0.54370  0.75266  Biso   1.000  C
  C164     1.0000 0.79306  0.58050  0.78032  Biso   1.000  C
  C165     1.0000 0.79704  0.66940  0.78700  Biso   1.000  C
  H97      1.0000 0.78130  0.70930  0.77520  Biso   1.000  H
  C166     1.0000 0.82476  0.70210  0.81166  Biso   1.000  C
  H98      1.0000 0.82740  0.76330  0.81590  Biso   1.000  H
  C167     1.0000 0.84831  0.64170  0.82972  Biso   1.000  C
  C168     1.0000 0.84337  0.55200  0.82410  Biso   1.000  C
  H99      1.0000 0.85860  0.51190  0.83690  Biso   1.000  H
  C169     1.0000 0.81619  0.51940  0.79960  Biso   1.000  C
  H100     1.0000 0.81320  0.45810  0.79600  Biso   1.000  H
  C170     1.0000 0.87830  0.67500  0.85601  Biso   1.000  C
  C171     1.0000 0.89337  0.75460  0.84565  Biso   1.000  C
  H101     1.0000 0.88460  0.78720  0.82300  Biso   1.000  H
  C172     1.0000 0.92142  0.78780  0.86824  Biso   1.000  C
  H102     1.0000 0.93180  0.84130  0.86040  Biso   1.000  H
  C173     1.0000 0.93447  0.73810  0.90443  Biso   1.000  C
  C174     1.0000 0.91791  0.65660  0.91236  Biso   1.000  C
  H103     1.0000 0.92600  0.62170  0.93460  Biso   1.000  H
  C175     1.0000 0.89041  0.62580  0.88900  Biso   1.000  C
  H104     1.0000 0.88010  0.57160  0.89570  Biso   1.000  H
  C176     1.0000 0.96437  0.77150  0.92939  Biso   1.000  C
  C177     1.0000 0.99468  0.79910  0.90391  Biso   1.000  C
  C178     1.0000 0.00735  0.74130  0.87350  Biso   1.000  C
  H105     1.0000 0.99660  0.68630  0.86910  Biso   1.000  H
  C179     1.0000 0.03599  0.76450  0.84940  Biso   1.000  C
  H106     1.0000 0.04420  0.72450  0.82960  Biso   1.000  H
  C180     1.0000 0.05197  0.84490  0.85475  Biso   1.000  C
  C181     1.0000 0.03724  0.90650  0.88200  Biso   1.000  C
  H107     1.0000 0.04610  0.96420  0.88400  Biso   1.000  H
  C182     1.0000 0.00909  0.88170  0.90630  Biso   1.000  C
  H108     1.0000 0.99990  0.92320  0.92480  Biso   1.000  H
  C183     1.0000 0.08259  0.86920  0.82907  Biso   1.000  C
  C184     1.0000 0.10470  0.80260  0.81410  Biso   1.000  C
  H109     1.0000 0.10070  0.74300  0.82080  Biso   1.000  H
  C185     1.0000 0.13255  0.82550  0.78910  Biso   1.000  C
  H110     1.0000 0.14630  0.78070  0.77790  Biso   1.000  H
  C186     1.0000 0.13999  0.91400  0.78075  Biso   1.000  C
  C187     1.0000 0.11750  0.98030  0.79560  Biso   1.000  C
  H111     1.0000 0.12130  0.04010  0.78910  Biso   1.000  H
  C188     1.0000 0.08982  0.95640  0.81980  Biso   1.000  C
  H112     1.0000 0.07560  0.00100  0.83020  Biso   1.000  H
  C189     1.0000 0.96442  0.77500  0.97147  Biso   1.000  C
  C190     1.0000 0.93403  0.75200  0.99677  Biso   1.000  C
  C191     1.0000 0.90240  0.79890  0.99271  Biso   1.000  C
  H113     1.0000 0.90070  0.84670  0.97410  Biso   1.000  H
  C192     1.0000 0.87442  0.77490  0.01580  Biso   1.000  C
  H114     1.0000 0.85380  0.80650  0.01280  Biso   1.000  H
  C193     1.0000 0.87655  0.70170  0.04458  Biso   1.000  C
  C194     1.0000 0.90723  0.65740  0.04760  Biso   1.000  C
  H115     1.0000 0.90890  0.60740  0.06490  Biso   1.000  H
  C195     1.0000 0.93571  0.68440  0.02580  Biso   1.000  C
  H116     1.0000 0.95670  0.65610  0.03080  Biso   1.000  H
  C196     1.0000 0.84628  0.67230  0.07033  Biso   1.000  C
  C197     1.0000 0.82426  0.73460  0.08759  Biso   1.000  C
  H117     1.0000 0.82780  0.79510  0.08260  Biso   1.000  H
  C198     1.0000 0.79651  0.70730  0.11273  Biso   1.000  C
  H118     1.0000 0.78190  0.74970  0.12430  Biso   1.000  H
  C199     1.0000 0.79101  0.61780  0.12012  Biso   1.000  C
  C200     1.0000 0.81345  0.55510  0.10150  Biso   1.000  C
  H119     1.0000 0.80990  0.49430  0.10580  Biso   1.000  H
  C201     1.0000 0.84048  0.58270  0.07690  Biso   1.000  C
  H120     1.0000 0.85490  0.54050  0.06470  Biso   1.000  H
  C202     1.0000 0.99567  0.80170  0.99682  Biso   1.000  C
  C203     1.0000 0.99334  0.86590  0.02770  Biso   1.000  C
  H121     1.0000 0.97200  0.89170  0.03310  Biso   1.000  H
  C204     1.0000 0.02167  0.89300  0.05080  Biso   1.000  C
  H122     1.0000 0.01930  0.93890  0.07030  Biso   1.000  H
  C205     1.0000 0.05384  0.85330  0.04555  Biso   1.000  C
  C206     1.0000 0.05574  0.78560  0.01460  Biso   1.000  C
  H123     1.0000 0.07670  0.75700  0.01020  Biso   1.000  H
  C207     1.0000 0.02731  0.76090  0.99070  Biso   1.000  C
  H124     1.0000 0.02940  0.71650  0.97040  Biso   1.000  H
  C208     1.0000 0.08470  0.88320  0.07077  Biso   1.000  C
  C209     1.0000 0.09003  0.97220  0.08025  Biso   1.000  C
  H125     1.0000 0.07420  0.01440  0.07050  Biso   1.000  H
  C210     1.0000 0.11837  0.00070  0.10391  Biso   1.000  C
  H126     1.0000 0.12160  0.06100  0.11010  Biso   1.000  H
  C211     1.0000 0.14207  0.93630  0.11831  Biso   1.000  C
  C212     1.0000 0.13718  0.84780  0.10798  Biso   1.000  C
  H127     1.0000 0.15330  0.80560  0.11700  Biso   1.000  H
  C213     1.0000 0.10904  0.82060  0.08465  Biso   1.000  C
  H128     1.0000 0.10620  0.76050  0.07810  Biso   1.000  H
  C214     1.0000 0.17016  0.93750  0.75395  Biso   1.000  C
  C215     1.0000 0.17144  0.96580  0.14618  Biso   1.000  C
  C216     1.0000 0.76339  0.58510  0.14824  Biso   1.000  C
  In5      1.0000 0.78168  0.02187  0.29944  Biso   1.000  In
  O33      1.0000 0.75477  0.90010  0.26665  Biso   1.000  O
  O34      1.0000 0.73881  0.03730  0.25205  Biso   1.000  O
  O35      1.0000 0.32527  0.48040  0.25522  Biso   1.000  O
  O36      1.0000 0.31030  0.62110  0.25965  Biso   1.000  O
  O37      1.0000 0.30884  0.59260  0.83728  Biso   1.000  O
  O38      1.0000 0.32474  0.45220  0.84577  Biso   1.000  O
  O39      1.0000 0.74125  0.99750  0.84718  Biso   1.000  O
  O40      1.0000 0.75496  0.85960  0.83229  Biso   1.000  O
  C217     1.0000 0.73546  0.95630  0.24734  Biso   1.000  C
  C218     1.0000 0.70694  0.91950  0.21968  Biso   1.000  C
  C219     1.0000 0.70296  0.83060  0.21300  Biso   1.000  C
  H129     1.0000 0.71870  0.79070  0.22480  Biso   1.000  H
  C220     1.0000 0.67524  0.79790  0.18834  Biso   1.000  C
  H130     1.0000 0.67260  0.73670  0.18410  Biso   1.000  H
  C221     1.0000 0.65169  0.85830  0.17028  Biso   1.000  C
  C222     1.0000 0.65663  0.94800  0.17590  Biso   1.000  C
  H131     1.0000 0.64140  0.98810  0.16310  Biso   1.000  H
  C223     1.0000 0.68381  0.98060  0.20040  Biso   1.000  C
  H132     1.0000 0.68680  0.04190  0.20400  Biso   1.000  H
  C224     1.0000 0.62170  0.82500  0.14399  Biso   1.000  C
  C225     1.0000 0.60663  0.74540  0.15435  Biso   1.000  C
  H133     1.0000 0.61540  0.71280  0.17700  Biso   1.000  H
  C226     1.0000 0.57858  0.71220  0.13176  Biso   1.000  C
  H134     1.0000 0.56820  0.65870  0.13960  Biso   1.000  H
  C227     1.0000 0.56553  0.76190  0.09557  Biso   1.000  C
  C228     1.0000 0.58209  0.84340  0.08764  Biso   1.000  C
  H135     1.0000 0.57400  0.87830  0.06540  Biso   1.000  H
  C229     1.0000 0.60959  0.87420  0.11100  Biso   1.000  C
  H136     1.0000 0.61990  0.92840  0.10430  Biso   1.000  H
  C230     1.0000 0.53563  0.72850  0.07061  Biso   1.000  C
  C231     1.0000 0.50532  0.70090  0.09609  Biso   1.000  C
  C232     1.0000 0.49265  0.75870  0.12650  Biso   1.000  C
  H137     1.0000 0.50340  0.81370  0.13090  Biso   1.000  H
  C233     1.0000 0.46401  0.73550  0.15060  Biso   1.000  C
  H138     1.0000 0.45580  0.77550  0.17040  Biso   1.000  H
  C234     1.0000 0.44803  0.65510  0.14525  Biso   1.000  C
  C235     1.0000 0.46276  0.59350  0.11800  Biso   1.000  C
  H139     1.0000 0.45390  0.53580  0.11600  Biso   1.000  H
  C236     1.0000 0.49091  0.61830  0.09370  Biso   1.000  C
  H140     1.0000 0.50010  0.57680  0.07520  Biso   1.000  H
  C237     1.0000 0.41741  0.63080  0.17093  Biso   1.000  C
  C238     1.0000 0.39530  0.69740  0.18590  Biso   1.000  C
  H141     1.0000 0.39930  0.75700  0.17920  Biso   1.000  H
  C239     1.0000 0.36745  0.67450  0.21090  Biso   1.000  C
  H142     1.0000 0.35370  0.71930  0.22210  Biso   1.000  H
  C240     1.0000 0.36001  0.58600  0.21925  Biso   1.000  C
  C241     1.0000 0.38250  0.51970  0.20440  Biso   1.000  C
  H143     1.0000 0.37870  0.45990  0.21090  Biso   1.000  H
  C242     1.0000 0.41018  0.54360  0.18020  Biso   1.000  C
  H144     1.0000 0.42440  0.49900  0.16980  Biso   1.000  H
  C243     1.0000 0.53558  0.72500  0.02853  Biso   1.000  C
  C244     1.0000 0.56597  0.74800  0.00323  Biso   1.000  C
  C245     1.0000 0.59760  0.70110  0.00729  Biso   1.000  C
  H145     1.0000 0.59930  0.65330  0.02590  Biso   1.000  H
  C246     1.0000 0.62558  0.72510  0.98420  Biso   1.000  C
  H146     1.0000 0.64620  0.69350  0.98720  Biso   1.000  H
  C247     1.0000 0.62345  0.79830  0.95542  Biso   1.000  C
  C248     1.0000 0.59277  0.84260  0.95240  Biso   1.000  C
  H147     1.0000 0.59110  0.89260  0.93510  Biso   1.000  H
  C249     1.0000 0.56429  0.81560  0.97420  Biso   1.000  C
  H148     1.0000 0.54330  0.84390  0.96920  Biso   1.000  H
  C250     1.0000 0.65372  0.82770  0.92967  Biso   1.000  C
  C251     1.0000 0.67574  0.76540  0.91241  Biso   1.000  C
  H149     1.0000 0.67220  0.70490  0.91740  Biso   1.000  H
  C252     1.0000 0.70349  0.79270  0.88727  Biso   1.000  C
  H150     1.0000 0.71810  0.75030  0.87570  Biso   1.000  H
  C253     1.0000 0.70899  0.88220  0.87988  Biso   1.000  C
  C254     1.0000 0.68655  0.94490  0.89850  Biso   1.000  C
  H151     1.0000 0.69010  0.00570  0.89420  Biso   1.000  H
  C255     1.0000 0.65952  0.91730  0.92310  Biso   1.000  C
  H152     1.0000 0.64510  0.95950  0.93530  Biso   1.000  H
  C256     1.0000 0.50433  0.69830  0.00318  Biso   1.000  C
  C257     1.0000 0.50666  0.63410  0.97230  Biso   1.000  C
  H153     1.0000 0.52800  0.60830  0.96690  Biso   1.000  H
  C258     1.0000 0.47833  0.60700  0.94920  Biso   1.000  C
  H154     1.0000 0.48070  0.56110  0.92970  Biso   1.000  H
  C259     1.0000 0.44616  0.64670  0.95445  Biso   1.000  C
  C260     1.0000 0.44426  0.71440  0.98540  Biso   1.000  C
  H155     1.0000 0.42330  0.74300  0.98980  Biso   1.000  H
  C261     1.0000 0.47269  0.73910  0.00930  Biso   1.000  C
  H156     1.0000 0.47060  0.78350  0.02960  Biso   1.000  H
  C262     1.0000 0.41530  0.61680  0.92923  Biso   1.000  C
  C263     1.0000 0.40997  0.52780  0.91975  Biso   1.000  C
  H157     1.0000 0.42580  0.48560  0.92950  Biso   1.000  H
  C264     1.0000 0.38163  0.49930  0.89609  Biso   1.000  C
  H158     1.0000 0.37840  0.43900  0.88990  Biso   1.000  H
  C265     1.0000 0.35793  0.56370  0.88169  Biso   1.000  C
  C266     1.0000 0.36282  0.65220  0.89202  Biso   1.000  C
  H159     1.0000 0.34670  0.69440  0.88300  Biso   1.000  H
  C267     1.0000 0.39096  0.67940  0.91535  Biso   1.000  C
  H160     1.0000 0.39380  0.73950  0.92190  Biso   1.000  H
  C268     1.0000 0.32984  0.56250  0.24605  Biso   1.000  C
  C269     1.0000 0.32856  0.53420  0.85382  Biso   1.000  C
  C270     1.0000 0.73661  0.91490  0.85176  Biso   1.000  C
  In6      1.0000 0.28168  0.52187  0.29944  Biso   1.000  In
  O41      1.0000 0.25477  0.40010  0.26665  Biso   1.000  O
  O42      1.0000 0.23881  0.53730  0.25205  Biso   1.000  O
  O43      1.0000 0.82527  0.98040  0.25522  Biso   1.000  O
  O44      1.0000 0.81030  0.12110  0.25965  Biso   1.000  O
  O45      1.0000 0.80884  0.09260  0.83728  Biso   1.000  O
  O46      1.0000 0.82474  0.95220  0.84577  Biso   1.000  O
  O47      1.0000 0.24125  0.49750  0.84718  Biso   1.000  O
  O48      1.0000 0.25496  0.35960  0.83229  Biso   1.000  O
  C271     1.0000 0.23546  0.45630  0.24734  Biso   1.000  C
  C272     1.0000 0.20694  0.41950  0.21968  Biso   1.000  C
  C273     1.0000 0.20296  0.33060  0.21300  Biso   1.000  C
  H161     1.0000 0.21870  0.29070  0.22480  Biso   1.000  H
  C274     1.0000 0.17524  0.29790  0.18834  Biso   1.000  C
  H162     1.0000 0.17260  0.23670  0.18410  Biso   1.000  H
  C275     1.0000 0.15169  0.35830  0.17028  Biso   1.000  C
  C276     1.0000 0.15663  0.44800  0.17590  Biso   1.000  C
  H163     1.0000 0.14140  0.48810  0.16310  Biso   1.000  H
  C277     1.0000 0.18381  0.48060  0.20040  Biso   1.000  C
  H164     1.0000 0.18680  0.54190  0.20400  Biso   1.000  H
  C278     1.0000 0.12170  0.32500  0.14399  Biso   1.000  C
  C279     1.0000 0.10663  0.24540  0.15435  Biso   1.000  C
  H165     1.0000 0.11540  0.21280  0.17700  Biso   1.000  H
  C280     1.0000 0.07858  0.21220  0.13176  Biso   1.000  C
  H166     1.0000 0.06820  0.15870  0.13960  Biso   1.000  H
  C281     1.0000 0.06553  0.26190  0.09557  Biso   1.000  C
  C282     1.0000 0.08209  0.34340  0.08764  Biso   1.000  C
  H167     1.0000 0.07400  0.37830  0.06540  Biso   1.000  H
  C283     1.0000 0.10959  0.37420  0.11100  Biso   1.000  C
  H168     1.0000 0.11990  0.42840  0.10430  Biso   1.000  H
  C284     1.0000 0.03563  0.22850  0.07061  Biso   1.000  C
  C285     1.0000 0.00532  0.20090  0.09609  Biso   1.000  C
  C286     1.0000 0.99265  0.25870  0.12650  Biso   1.000  C
  H169     1.0000 0.00340  0.31370  0.13090  Biso   1.000  H
  C287     1.0000 0.96401  0.23550  0.15060  Biso   1.000  C
  H170     1.0000 0.95580  0.27550  0.17040  Biso   1.000  H
  C288     1.0000 0.94803  0.15510  0.14525  Biso   1.000  C
  C289     1.0000 0.96276  0.09350  0.11800  Biso   1.000  C
  H171     1.0000 0.95390  0.03580  0.11600  Biso   1.000  H
  C290     1.0000 0.99091  0.11830  0.09370  Biso   1.000  C
  H172     1.0000 0.00010  0.07680  0.07520  Biso   1.000  H
  C291     1.0000 0.91741  0.13080  0.17093  Biso   1.000  C
  C292     1.0000 0.89530  0.19740  0.18590  Biso   1.000  C
  H173     1.0000 0.89930  0.25700  0.17920  Biso   1.000  H
  C293     1.0000 0.86745  0.17450  0.21090  Biso   1.000  C
  H174     1.0000 0.85370  0.21930  0.22210  Biso   1.000  H
  C294     1.0000 0.86001  0.08600  0.21925  Biso   1.000  C
  C295     1.0000 0.88250  0.01970  0.20440  Biso   1.000  C
  H175     1.0000 0.87870  0.95990  0.21090  Biso   1.000  H
  C296     1.0000 0.91018  0.04360  0.18020  Biso   1.000  C
  H176     1.0000 0.92440  0.99900  0.16980  Biso   1.000  H
  C297     1.0000 0.03558  0.22500  0.02853  Biso   1.000  C
  C298     1.0000 0.06597  0.24800  0.00323  Biso   1.000  C
  C299     1.0000 0.09760  0.20110  0.00729  Biso   1.000  C
  H177     1.0000 0.09930  0.15330  0.02590  Biso   1.000  H
  C300     1.0000 0.12558  0.22510  0.98420  Biso   1.000  C
  H178     1.0000 0.14620  0.19350  0.98720  Biso   1.000  H
  C301     1.0000 0.12345  0.29830  0.95542  Biso   1.000  C
  C302     1.0000 0.09277  0.34260  0.95240  Biso   1.000  C
  H179     1.0000 0.09110  0.39260  0.93510  Biso   1.000  H
  C303     1.0000 0.06429  0.31560  0.97420  Biso   1.000  C
  H180     1.0000 0.04330  0.34390  0.96920  Biso   1.000  H
  C304     1.0000 0.15372  0.32770  0.92967  Biso   1.000  C
  C305     1.0000 0.17574  0.26540  0.91241  Biso   1.000  C
  H181     1.0000 0.17220  0.20490  0.91740  Biso   1.000  H
  C306     1.0000 0.20349  0.29270  0.88727  Biso   1.000  C
  H182     1.0000 0.21810  0.25030  0.87570  Biso   1.000  H
  C307     1.0000 0.20899  0.38220  0.87988  Biso   1.000  C
  C308     1.0000 0.18655  0.44490  0.89850  Biso   1.000  C
  H183     1.0000 0.19010  0.50570  0.89420  Biso   1.000  H
  C309     1.0000 0.15952  0.41730  0.92310  Biso   1.000  C
  H184     1.0000 0.14510  0.45950  0.93530  Biso   1.000  H
  C310     1.0000 0.00433  0.19830  0.00318  Biso   1.000  C
  C311     1.0000 0.00666  0.13410  0.97230  Biso   1.000  C
  H185     1.0000 0.02800  0.10830  0.96690  Biso   1.000  H
  C312     1.0000 0.97833  0.10700  0.94920  Biso   1.000  C
  H186     1.0000 0.98070  0.06110  0.92970  Biso   1.000  H
  C313     1.0000 0.94616  0.14670  0.95445  Biso   1.000  C
  C314     1.0000 0.94426  0.21440  0.98540  Biso   1.000  C
  H187     1.0000 0.92330  0.24300  0.98980  Biso   1.000  H
  C315     1.0000 0.97269  0.23910  0.00930  Biso   1.000  C
  H188     1.0000 0.97060  0.28350  0.02960  Biso   1.000  H
  C316     1.0000 0.91530  0.11680  0.92923  Biso   1.000  C
  C317     1.0000 0.90997  0.02780  0.91975  Biso   1.000  C
  H189     1.0000 0.92580  0.98560  0.92950  Biso   1.000  H
  C318     1.0000 0.88163  0.99930  0.89609  Biso   1.000  C
  H190     1.0000 0.87840  0.93900  0.88990  Biso   1.000  H
  C319     1.0000 0.85793  0.06370  0.88169  Biso   1.000  C
  C320     1.0000 0.86282  0.15220  0.89202  Biso   1.000  C
  H191     1.0000 0.84670  0.19440  0.88300  Biso   1.000  H
  C321     1.0000 0.89096  0.17940  0.91535  Biso   1.000  C
  H192     1.0000 0.89380  0.23950  0.92190  Biso   1.000  H
  C322     1.0000 0.82984  0.06250  0.24605  Biso   1.000  C
  C323     1.0000 0.82856  0.03420  0.85382  Biso   1.000  C
  C324     1.0000 0.23661  0.41490  0.85176  Biso   1.000  C
  In7      1.0000 0.78168  0.97813  0.79944  Biso   1.000  In
  O49      1.0000 0.75477  0.09990  0.76665  Biso   1.000  O
  O50      1.0000 0.73881  0.96270  0.75205  Biso   1.000  O
  O51      1.0000 0.32527  0.51960  0.75522  Biso   1.000  O
  O52      1.0000 0.31030  0.37890  0.75965  Biso   1.000  O
  O53      1.0000 0.30884  0.40740  0.33728  Biso   1.000  O
  O54      1.0000 0.32474  0.54780  0.34577  Biso   1.000  O
  O55      1.0000 0.74125  0.00250  0.34718  Biso   1.000  O
  O56      1.0000 0.75496  0.14040  0.33229  Biso   1.000  O
  C325     1.0000 0.73546  0.04370  0.74734  Biso   1.000  C
  C326     1.0000 0.70694  0.08050  0.71968  Biso   1.000  C
  C327     1.0000 0.70296  0.16940  0.71300  Biso   1.000  C
  H193     1.0000 0.71870  0.20930  0.72480  Biso   1.000  H
  C328     1.0000 0.67524  0.20210  0.68834  Biso   1.000  C
  H194     1.0000 0.67260  0.26330  0.68410  Biso   1.000  H
  C329     1.0000 0.65169  0.14170  0.67028  Biso   1.000  C
  C330     1.0000 0.65663  0.05200  0.67590  Biso   1.000  C
  H195     1.0000 0.64140  0.01190  0.66310  Biso   1.000  H
  C331     1.0000 0.68381  0.01940  0.70040  Biso   1.000  C
  H196     1.0000 0.68680  0.95810  0.70400  Biso   1.000  H
  C332     1.0000 0.62170  0.17500  0.64399  Biso   1.000  C
  C333     1.0000 0.60663  0.25460  0.65435  Biso   1.000  C
  H197     1.0000 0.61540  0.28720  0.67700  Biso   1.000  H
  C334     1.0000 0.57858  0.28780  0.63176  Biso   1.000  C
  H198     1.0000 0.56820  0.34130  0.63960  Biso   1.000  H
  C335     1.0000 0.56553  0.23810  0.59557  Biso   1.000  C
  C336     1.0000 0.58209  0.15660  0.58764  Biso   1.000  C
  H199     1.0000 0.57400  0.12170  0.56540  Biso   1.000  H
  C337     1.0000 0.60959  0.12580  0.61100  Biso   1.000  C
  H200     1.0000 0.61990  0.07160  0.60430  Biso   1.000  H
  C338     1.0000 0.53563  0.27150  0.57061  Biso   1.000  C
  C339     1.0000 0.50532  0.29910  0.59609  Biso   1.000  C
  C340     1.0000 0.49265  0.24130  0.62650  Biso   1.000  C
  H201     1.0000 0.50340  0.18630  0.63090  Biso   1.000  H
  C341     1.0000 0.46401  0.26450  0.65060  Biso   1.000  C
  H202     1.0000 0.45580  0.22450  0.67040  Biso   1.000  H
  C342     1.0000 0.44803  0.34490  0.64525  Biso   1.000  C
  C343     1.0000 0.46276  0.40650  0.61800  Biso   1.000  C
  H203     1.0000 0.45390  0.46420  0.61600  Biso   1.000  H
  C344     1.0000 0.49091  0.38170  0.59370  Biso   1.000  C
  H204     1.0000 0.50010  0.42320  0.57520  Biso   1.000  H
  C345     1.0000 0.41741  0.36920  0.67093  Biso   1.000  C
  C346     1.0000 0.39530  0.30260  0.68590  Biso   1.000  C
  H205     1.0000 0.39930  0.24300  0.67920  Biso   1.000  H
  C347     1.0000 0.36745  0.32550  0.71090  Biso   1.000  C
  H206     1.0000 0.35370  0.28070  0.72210  Biso   1.000  H
  C348     1.0000 0.36001  0.41400  0.71925  Biso   1.000  C
  C349     1.0000 0.38250  0.48030  0.70440  Biso   1.000  C
  H207     1.0000 0.37870  0.54010  0.71090  Biso   1.000  H
  C350     1.0000 0.41018  0.45640  0.68020  Biso   1.000  C
  H208     1.0000 0.42440  0.50100  0.66980  Biso   1.000  H
  C351     1.0000 0.53558  0.27500  0.52853  Biso   1.000  C
  C352     1.0000 0.56597  0.25200  0.50323  Biso   1.000  C
  C353     1.0000 0.59760  0.29890  0.50729  Biso   1.000  C
  H209     1.0000 0.59930  0.34670  0.52590  Biso   1.000  H
  C354     1.0000 0.62558  0.27490  0.48420  Biso   1.000  C
  H210     1.0000 0.64620  0.30650  0.48720  Biso   1.000  H
  C355     1.0000 0.62345  0.20170  0.45542  Biso   1.000  C
  C356     1.0000 0.59277  0.15740  0.45240  Biso   1.000  C
  H211     1.0000 0.59110  0.10740  0.43510  Biso   1.000  H
  C357     1.0000 0.56429  0.18440  0.47420  Biso   1.000  C
  H212     1.0000 0.54330  0.15610  0.46920  Biso   1.000  H
  C358     1.0000 0.65372  0.17230  0.42967  Biso   1.000  C
  C359     1.0000 0.67574  0.23460  0.41241  Biso   1.000  C
  H213     1.0000 0.67220  0.29510  0.41740  Biso   1.000  H
  C360     1.0000 0.70349  0.20730  0.38727  Biso   1.000  C
  H214     1.0000 0.71810  0.24970  0.37570  Biso   1.000  H
  C361     1.0000 0.70899  0.11780  0.37988  Biso   1.000  C
  C362     1.0000 0.68655  0.05510  0.39850  Biso   1.000  C
  H215     1.0000 0.69010  0.99430  0.39420  Biso   1.000  H
  C363     1.0000 0.65952  0.08270  0.42310  Biso   1.000  C
  H216     1.0000 0.64510  0.04050  0.43530  Biso   1.000  H
  C364     1.0000 0.50433  0.30170  0.50318  Biso   1.000  C
  C365     1.0000 0.50666  0.36590  0.47230  Biso   1.000  C
  H217     1.0000 0.52800  0.39170  0.46690  Biso   1.000  H
  C366     1.0000 0.47833  0.39300  0.44920  Biso   1.000  C
  H218     1.0000 0.48070  0.43890  0.42970  Biso   1.000  H
  C367     1.0000 0.44616  0.35330  0.45445  Biso   1.000  C
  C368     1.0000 0.44426  0.28560  0.48540  Biso   1.000  C
  H219     1.0000 0.42330  0.25700  0.48980  Biso   1.000  H
  C369     1.0000 0.47269  0.26090  0.50930  Biso   1.000  C
  H220     1.0000 0.47060  0.21650  0.52960  Biso   1.000  H
  C370     1.0000 0.41530  0.38320  0.42923  Biso   1.000  C
  C371     1.0000 0.40997  0.47220  0.41975  Biso   1.000  C
  H221     1.0000 0.42580  0.51440  0.42950  Biso   1.000  H
  C372     1.0000 0.38163  0.50070  0.39609  Biso   1.000  C
  H222     1.0000 0.37840  0.56100  0.38990  Biso   1.000  H
  C373     1.0000 0.35793  0.43630  0.38169  Biso   1.000  C
  C374     1.0000 0.36282  0.34780  0.39202  Biso   1.000  C
  H223     1.0000 0.34670  0.30560  0.38300  Biso   1.000  H
  C375     1.0000 0.39096  0.32060  0.41535  Biso   1.000  C
  H224     1.0000 0.39380  0.26050  0.42190  Biso   1.000  H
  C376     1.0000 0.32984  0.43750  0.74605  Biso   1.000  C
  C377     1.0000 0.32856  0.46580  0.35382  Biso   1.000  C
  C378     1.0000 0.73661  0.08510  0.35176  Biso   1.000  C
  In8      1.0000 0.28168  0.47813  0.79944  Biso   1.000  In
  O57      1.0000 0.25477  0.59990  0.76665  Biso   1.000  O
  O58      1.0000 0.23881  0.46270  0.75205  Biso   1.000  O
  O59      1.0000 0.82527  0.01960  0.75522  Biso   1.000  O
  O60      1.0000 0.81030  0.87890  0.75965  Biso   1.000  O
  O61      1.0000 0.80884  0.90740  0.33728  Biso   1.000  O
  O62      1.0000 0.82474  0.04780  0.34577  Biso   1.000  O
  O63      1.0000 0.24125  0.50250  0.34718  Biso   1.000  O
  O64      1.0000 0.25496  0.64040  0.33229  Biso   1.000  O
  C379     1.0000 0.23546  0.54370  0.74734  Biso   1.000  C
  C380     1.0000 0.20694  0.58050  0.71968  Biso   1.000  C
  C381     1.0000 0.20296  0.66940  0.71300  Biso   1.000  C
  H225     1.0000 0.21870  0.70930  0.72480  Biso   1.000  H
  C382     1.0000 0.17524  0.70210  0.68834  Biso   1.000  C
  H226     1.0000 0.17260  0.76330  0.68410  Biso   1.000  H
  C383     1.0000 0.15169  0.64170  0.67028  Biso   1.000  C
  C384     1.0000 0.15663  0.55200  0.67590  Biso   1.000  C
  H227     1.0000 0.14140  0.51190  0.66310  Biso   1.000  H
  C385     1.0000 0.18381  0.51940  0.70040  Biso   1.000  C
  H228     1.0000 0.18680  0.45810  0.70400  Biso   1.000  H
  C386     1.0000 0.12170  0.67500  0.64399  Biso   1.000  C
  C387     1.0000 0.10663  0.75460  0.65435  Biso   1.000  C
  H229     1.0000 0.11540  0.78720  0.67700  Biso   1.000  H
  C388     1.0000 0.07858  0.78780  0.63176  Biso   1.000  C
  H230     1.0000 0.06820  0.84130  0.63960  Biso   1.000  H
  C389     1.0000 0.06553  0.73810  0.59557  Biso   1.000  C
  C390     1.0000 0.08209  0.65660  0.58764  Biso   1.000  C
  H231     1.0000 0.07400  0.62170  0.56540  Biso   1.000  H
  C391     1.0000 0.10959  0.62580  0.61100  Biso   1.000  C
  H232     1.0000 0.11990  0.57160  0.60430  Biso   1.000  H
  C392     1.0000 0.03563  0.77150  0.57061  Biso   1.000  C
  C393     1.0000 0.00532  0.79910  0.59609  Biso   1.000  C
  C394     1.0000 0.99265  0.74130  0.62650  Biso   1.000  C
  H233     1.0000 0.00340  0.68630  0.63090  Biso   1.000  H
  C395     1.0000 0.96401  0.76450  0.65060  Biso   1.000  C
  H234     1.0000 0.95580  0.72450  0.67040  Biso   1.000  H
  C396     1.0000 0.94803  0.84490  0.64525  Biso   1.000  C
  C397     1.0000 0.96276  0.90650  0.61800  Biso   1.000  C
  H235     1.0000 0.95390  0.96420  0.61600  Biso   1.000  H
  C398     1.0000 0.99091  0.88170  0.59370  Biso   1.000  C
  H236     1.0000 0.00010  0.92320  0.57520  Biso   1.000  H
  C399     1.0000 0.91741  0.86920  0.67093  Biso   1.000  C
  C400     1.0000 0.89530  0.80260  0.68590  Biso   1.000  C
  H237     1.0000 0.89930  0.74300  0.67920  Biso   1.000  H
  C401     1.0000 0.86745  0.82550  0.71090  Biso   1.000  C
  H238     1.0000 0.85370  0.78070  0.72210  Biso   1.000  H
  C402     1.0000 0.86001  0.91400  0.71925  Biso   1.000  C
  C403     1.0000 0.88250  0.98030  0.70440  Biso   1.000  C
  H239     1.0000 0.87870  0.04010  0.71090  Biso   1.000  H
  C404     1.0000 0.91018  0.95640  0.68020  Biso   1.000  C
  H240     1.0000 0.92440  0.00100  0.66980  Biso   1.000  H
  C405     1.0000 0.03558  0.77500  0.52853  Biso   1.000  C
  C406     1.0000 0.06597  0.75200  0.50323  Biso   1.000  C
  C407     1.0000 0.09760  0.79890  0.50729  Biso   1.000  C
  H241     1.0000 0.09930  0.84670  0.52590  Biso   1.000  H
  C408     1.0000 0.12558  0.77490  0.48420  Biso   1.000  C
  H242     1.0000 0.14620  0.80650  0.48720  Biso   1.000  H
  C409     1.0000 0.12345  0.70170  0.45542  Biso   1.000  C
  C410     1.0000 0.09277  0.65740  0.45240  Biso   1.000  C
  H243     1.0000 0.09110  0.60740  0.43510  Biso   1.000  H
  C411     1.0000 0.06429  0.68440  0.47420  Biso   1.000  C
  H244     1.0000 0.04330  0.65610  0.46920  Biso   1.000  H
  C412     1.0000 0.15372  0.67230  0.42967  Biso   1.000  C
  C413     1.0000 0.17574  0.73460  0.41241  Biso   1.000  C
  H245     1.0000 0.17220  0.79510  0.41740  Biso   1.000  H
  C414     1.0000 0.20349  0.70730  0.38727  Biso   1.000  C
  H246     1.0000 0.21810  0.74970  0.37570  Biso   1.000  H
  C415     1.0000 0.20899  0.61780  0.37988  Biso   1.000  C
  C416     1.0000 0.18655  0.55510  0.39850  Biso   1.000  C
  H247     1.0000 0.19010  0.49430  0.39420  Biso   1.000  H
  C417     1.0000 0.15952  0.58270  0.42310  Biso   1.000  C
  H248     1.0000 0.14510  0.54050  0.43530  Biso   1.000  H
  C418     1.0000 0.00433  0.80170  0.50318  Biso   1.000  C
  C419     1.0000 0.00666  0.86590  0.47230  Biso   1.000  C
  H249     1.0000 0.02800  0.89170  0.46690  Biso   1.000  H
  C420     1.0000 0.97833  0.89300  0.44920  Biso   1.000  C
  H250     1.0000 0.98070  0.93890  0.42970  Biso   1.000  H
  C421     1.0000 0.94616  0.85330  0.45445  Biso   1.000  C
  C422     1.0000 0.94426  0.78560  0.48540  Biso   1.000  C
  H251     1.0000 0.92330  0.75700  0.48980  Biso   1.000  H
  C423     1.0000 0.97269  0.76090  0.50930  Biso   1.000  C
  H252     1.0000 0.97060  0.71650  0.52960  Biso   1.000  H
  C424     1.0000 0.91530  0.88320  0.42923  Biso   1.000  C
  C425     1.0000 0.90997  0.97220  0.41975  Biso   1.000  C
  H253     1.0000 0.92580  0.01440  0.42950  Biso   1.000  H
  C426     1.0000 0.88163  0.00070  0.39609  Biso   1.000  C
  H254     1.0000 0.87840  0.06100  0.38990  Biso   1.000  H
  C427     1.0000 0.85793  0.93630  0.38169  Biso   1.000  C
  C428     1.0000 0.86282  0.84780  0.39202  Biso   1.000  C
  H255     1.0000 0.84670  0.80560  0.38300  Biso   1.000  H
  C429     1.0000 0.89096  0.82060  0.41535  Biso   1.000  C
  H256     1.0000 0.89380  0.76050  0.42190  Biso   1.000  H
  C430     1.0000 0.82984  0.93750  0.74605  Biso   1.000  C
  C431     1.0000 0.82856  0.96580  0.35382  Biso   1.000  C
  C432     1.0000 0.23661  0.58510  0.35176  Biso   1.000  C
