data_image0
_cell_length_a       38.3323
_cell_length_b       15.1848
_cell_length_c       32.1945
_cell_angle_alpha    90
_cell_angle_beta     91.6553
_cell_angle_gamma    90

_symmetry_space_group_name_H-M    "P 1"
_symmetry_int_tables_number       1

loop_
  _symmetry_equiv_pos_as_xyz
  'x, y, z'

loop_
  _atom_site_label
  _atom_site_occupancy
  _atom_site_fract_x
  _atom_site_fract_y
  _atom_site_fract_z
  _atom_site_thermal_displace_type
  _atom_site_B_iso_or_equiv
  _atom_site_type_symbol
  In1      1.0000 0.78590  0.04024  0.80123  Biso   1.000  In
  O1       1.0000 0.74270  0.06110  0.75276  Biso   1.000  O
  O2       1.0000 0.75807  0.92570  0.76800  Biso   1.000  O
  O3       1.0000 0.31493  0.64170  0.76391  Biso   1.000  O
  O4       1.0000 0.32898  0.50410  0.75737  Biso   1.000  O
  O5       1.0000 0.74468  0.97820  0.34705  Biso   1.000  O
  O6       1.0000 0.75883  0.84180  0.33424  Biso   1.000  O
  O7       1.0000 0.31291  0.57150  0.33846  Biso   1.000  O
  O8       1.0000 0.32925  0.43440  0.34840  Biso   1.000  O
  C1       1.0000 0.73882  0.97910  0.74819  Biso   1.000  C
  C2       1.0000 0.71050  0.94390  0.71981  Biso   1.000  C
  C3       1.0000 0.68748  0.00300  0.69961  Biso   1.000  C
  H1       1.0000 0.69040  0.06340  0.70290  Biso   1.000  H
  C4       1.0000 0.66009  0.96980  0.67450  Biso   1.000  C
  H2       1.0000 0.64480  0.00870  0.66110  Biso   1.000  H
  C5       1.0000 0.65547  0.88010  0.66950  Biso   1.000  C
  C6       1.0000 0.67923  0.82200  0.68844  Biso   1.000  C
  H3       1.0000 0.67700  0.76170  0.68400  Biso   1.000  H
  C7       1.0000 0.70630  0.85410  0.71403  Biso   1.000  C
  H4       1.0000 0.72160  0.81500  0.72730  Biso   1.000  H
  C8       1.0000 0.62582  0.84600  0.64419  Biso   1.000  C
  C9       1.0000 0.61164  0.89110  0.61070  Biso   1.000  C
  H5       1.0000 0.62110  0.94530  0.60370  Biso   1.000  H
  C10      1.0000 0.58378  0.85870  0.58703  Biso   1.000  C
  H6       1.0000 0.57500  0.89080  0.56450  Biso   1.000  H
  C11      1.0000 0.56880  0.77750  0.59705  Biso   1.000  C
  C12      1.0000 0.58210  0.73230  0.63140  Biso   1.000  C
  H7       1.0000 0.57160  0.67990  0.63930  Biso   1.000  H
  C13      1.0000 0.61028  0.76320  0.65385  Biso   1.000  C
  H8       1.0000 0.61950  0.72990  0.67580  Biso   1.000  H
  C14      1.0000 0.53837  0.74040  0.57247  Biso   1.000  C
  C15      1.0000 0.50789  0.71690  0.59801  Biso   1.000  C
  C16      1.0000 0.49270  0.77870  0.62280  Biso   1.000  C
  H9       1.0000 0.50140  0.83590  0.62320  Biso   1.000  H
  C17      1.0000 0.46513  0.75810  0.64680  Biso   1.000  C
  H10      1.0000 0.45550  0.80190  0.66310  Biso   1.000  H
  C18      1.0000 0.45109  0.67520  0.64773  Biso   1.000  C
  C19      1.0000 0.46811  0.61290  0.62550  Biso   1.000  C
  H11      1.0000 0.46170  0.55420  0.62820  Biso   1.000  H
  C20      1.0000 0.49437  0.63390  0.59940  Biso   1.000  C
  H12      1.0000 0.50320  0.59060  0.58220  Biso   1.000  H
  C21      1.0000 0.42061  0.65250  0.67355  Biso   1.000  C
  C22      1.0000 0.39978  0.71570  0.69040  Biso   1.000  C
  H13      1.0000 0.40450  0.77470  0.68520  Biso   1.000  H
  C23      1.0000 0.37173  0.69410  0.71520  Biso   1.000  C
  H14      1.0000 0.35830  0.73860  0.72640  Biso   1.000  H
  C24      1.0000 0.36393  0.60830  0.72304  Biso   1.000  C
  C25      1.0000 0.38470  0.54380  0.70680  Biso   1.000  C
  H15      1.0000 0.38040  0.48490  0.71290  Biso   1.000  H
  C26      1.0000 0.41220  0.56600  0.68110  Biso   1.000  C
  H16      1.0000 0.42500  0.52150  0.66880  Biso   1.000  H
  C27      1.0000 0.33388  0.58470  0.74940  Biso   1.000  C
  C28      1.0000 0.53859  0.72850  0.53111  Biso   1.000  C
  C29      1.0000 0.56946  0.74860  0.50554  Biso   1.000  C
  C30      1.0000 0.56648  0.81320  0.47492  Biso   1.000  C
  H17      1.0000 0.54520  0.84140  0.47000  Biso   1.000  H
  C31      1.0000 0.59513  0.83590  0.45171  Biso   1.000  C
  H18      1.0000 0.59300  0.88170  0.43270  Biso   1.000  H
  C32      1.0000 0.62663  0.79250  0.45603  Biso   1.000  C
  C33      1.0000 0.62922  0.72580  0.48595  Biso   1.000  C
  H19      1.0000 0.65000  0.69470  0.48920  Biso   1.000  H
  C34      1.0000 0.60124  0.70480  0.51106  Biso   1.000  C
  H20      1.0000 0.60380  0.66170  0.53140  Biso   1.000  H
  C35      1.0000 0.65695  0.81780  0.43090  Biso   1.000  C
  C36      1.0000 0.66277  0.90460  0.42140  Biso   1.000  C
  H21      1.0000 0.64760  0.94680  0.43150  Biso   1.000  H
  C37      1.0000 0.69036  0.93240  0.39750  Biso   1.000  C
  H22      1.0000 0.69420  0.99190  0.39270  Biso   1.000  H
  C38      1.0000 0.71203  0.86820  0.38090  Biso   1.000  C
  C39      1.0000 0.70709  0.78180  0.39022  Biso   1.000  C
  H23      1.0000 0.72200  0.73960  0.37960  Biso   1.000  H
  C40      1.0000 0.67974  0.75510  0.41565  Biso   1.000  C
  H24      1.0000 0.67690  0.69590  0.42220  Biso   1.000  H
  C41      1.0000 0.74017  0.89650  0.35259  Biso   1.000  C
  C42      1.0000 0.50745  0.69780  0.50655  Biso   1.000  C
  C43      1.0000 0.47526  0.73950  0.50849  Biso   1.000  C
  H25      1.0000 0.47260  0.78690  0.52640  Biso   1.000  H
  C44      1.0000 0.44731  0.71150  0.48406  Biso   1.000  C
  H26      1.0000 0.42640  0.74230  0.48500  Biso   1.000  H
  C45      1.0000 0.44946  0.63850  0.45810  Biso   1.000  C
  C46      1.0000 0.48184  0.59610  0.45630  Biso   1.000  C
  H27      1.0000 0.48440  0.54770  0.43900  Biso   1.000  H
  C47      1.0000 0.51004  0.62580  0.48002  Biso   1.000  C
  H28      1.0000 0.53130  0.59680  0.47820  Biso   1.000  H
  C48      1.0000 0.41887  0.60550  0.43228  Biso   1.000  C
  C49      1.0000 0.39504  0.66490  0.41548  Biso   1.000  C
  H29      1.0000 0.39800  0.72480  0.42030  Biso   1.000  H
  C50      1.0000 0.36678  0.63560  0.39147  Biso   1.000  C
  H30      1.0000 0.35080  0.67600  0.38040  Biso   1.000  H
  C51      1.0000 0.36215  0.54850  0.38393  Biso   1.000  C
  C52      1.0000 0.38543  0.48650  0.40157  Biso   1.000  C
  H31      1.0000 0.38190  0.42660  0.39740  Biso   1.000  H
  C53      1.0000 0.41416  0.51680  0.42559  Biso   1.000  C
  H32      1.0000 0.43010  0.47670  0.43700  Biso   1.000  H
  C54      1.0000 0.33293  0.51620  0.35553  Biso   1.000  C
  In2      1.0000 0.28590  0.54024  0.80123  Biso   1.000  In
  O9       1.0000 0.24270  0.56110  0.75276  Biso   1.000  O
  O10      1.0000 0.25807  0.42570  0.76800  Biso   1.000  O
  O11      1.0000 0.81493  0.14170  0.76391  Biso   1.000  O
  O12      1.0000 0.82898  0.00410  0.75737  Biso   1.000  O
  O13      1.0000 0.24468  0.47820  0.34705  Biso   1.000  O
  O14      1.0000 0.25883  0.34180  0.33424  Biso   1.000  O
  O15      1.0000 0.81291  0.07150  0.33846  Biso   1.000  O
  O16      1.0000 0.82925  0.93440  0.34840  Biso   1.000  O
  C55      1.0000 0.23882  0.47910  0.74819  Biso   1.000  C
  C56      1.0000 0.21050  0.44390  0.71981  Biso   1.000  C
  C57      1.0000 0.18748  0.50300  0.69961  Biso   1.000  C
  H33      1.0000 0.19040  0.56340  0.70290  Biso   1.000  H
  C58      1.0000 0.16009  0.46980  0.67450  Biso   1.000  C
  H34      1.0000 0.14480  0.50870  0.66110  Biso   1.000  H
  C59      1.0000 0.15547  0.38010  0.66950  Biso   1.000  C
  C60      1.0000 0.17923  0.32200  0.68844  Biso   1.000  C
  H35      1.0000 0.17700  0.26170  0.68400  Biso   1.000  H
  C61      1.0000 0.20630  0.35410  0.71403  Biso   1.000  C
  H36      1.0000 0.22160  0.31500  0.72730  Biso   1.000  H
  C62      1.0000 0.12582  0.34600  0.64419  Biso   1.000  C
  C63      1.0000 0.11164  0.39110  0.61070  Biso   1.000  C
  H37      1.0000 0.12110  0.44530  0.60370  Biso   1.000  H
  C64      1.0000 0.08378  0.35870  0.58703  Biso   1.000  C
  H38      1.0000 0.07500  0.39080  0.56450  Biso   1.000  H
  C65      1.0000 0.06880  0.27750  0.59705  Biso   1.000  C
  C66      1.0000 0.08210  0.23230  0.63140  Biso   1.000  C
  H39      1.0000 0.07160  0.17990  0.63930  Biso   1.000  H
  C67      1.0000 0.11028  0.26320  0.65385  Biso   1.000  C
  H40      1.0000 0.11950  0.22990  0.67580  Biso   1.000  H
  C68      1.0000 0.03837  0.24040  0.57247  Biso   1.000  C
  C69      1.0000 0.00789  0.21690  0.59801  Biso   1.000  C
  C70      1.0000 0.99270  0.27870  0.62280  Biso   1.000  C
  H41      1.0000 0.00140  0.33590  0.62320  Biso   1.000  H
  C71      1.0000 0.96513  0.25810  0.64680  Biso   1.000  C
  H42      1.0000 0.95550  0.30190  0.66310  Biso   1.000  H
  C72      1.0000 0.95109  0.17520  0.64773  Biso   1.000  C
  C73      1.0000 0.96811  0.11290  0.62550  Biso   1.000  C
  H43      1.0000 0.96170  0.05420  0.62820  Biso   1.000  H
  C74      1.0000 0.99437  0.13390  0.59940  Biso   1.000  C
  H44      1.0000 0.00320  0.09060  0.58220  Biso   1.000  H
  C75      1.0000 0.92061  0.15250  0.67355  Biso   1.000  C
  C76      1.0000 0.89978  0.21570  0.69040  Biso   1.000  C
  H45      1.0000 0.90450  0.27470  0.68520  Biso   1.000  H
  C77      1.0000 0.87173  0.19410  0.71520  Biso   1.000  C
  H46      1.0000 0.85830  0.23860  0.72640  Biso   1.000  H
  C78      1.0000 0.86393  0.10830  0.72304  Biso   1.000  C
  C79      1.0000 0.88470  0.04380  0.70680  Biso   1.000  C
  H47      1.0000 0.88040  0.98490  0.71290  Biso   1.000  H
  C80      1.0000 0.91220  0.06600  0.68110  Biso   1.000  C
  H48      1.0000 0.92500  0.02150  0.66880  Biso   1.000  H
  C81      1.0000 0.83388  0.08470  0.74940  Biso   1.000  C
  C82      1.0000 0.03859  0.22850  0.53111  Biso   1.000  C
  C83      1.0000 0.06946  0.24860  0.50554  Biso   1.000  C
  C84      1.0000 0.06648  0.31320  0.47492  Biso   1.000  C
  H49      1.0000 0.04520  0.34140  0.47000  Biso   1.000  H
  C85      1.0000 0.09513  0.33590  0.45171  Biso   1.000  C
  H50      1.0000 0.09300  0.38170  0.43270  Biso   1.000  H
  C86      1.0000 0.12663  0.29250  0.45603  Biso   1.000  C
  C87      1.0000 0.12922  0.22580  0.48595  Biso   1.000  C
  H51      1.0000 0.15000  0.19470  0.48920  Biso   1.000  H
  C88      1.0000 0.10124  0.20480  0.51106  Biso   1.000  C
  H52      1.0000 0.10380  0.16170  0.53140  Biso   1.000  H
  C89      1.0000 0.15695  0.31780  0.43090  Biso   1.000  C
  C90      1.0000 0.16277  0.40460  0.42140  Biso   1.000  C
  H53      1.0000 0.14760  0.44680  0.43150  Biso   1.000  H
  C91      1.0000 0.19036  0.43240  0.39750  Biso   1.000  C
  H54      1.0000 0.19420  0.49190  0.39270  Biso   1.000  H
  C92      1.0000 0.21203  0.36820  0.38090  Biso   1.000  C
  C93      1.0000 0.20709  0.28180  0.39022  Biso   1.000  C
  H55      1.0000 0.22200  0.23960  0.37960  Biso   1.000  H
  C94      1.0000 0.17974  0.25510  0.41565  Biso   1.000  C
  H56      1.0000 0.17690  0.19590  0.42220  Biso   1.000  H
  C95      1.0000 0.24017  0.39650  0.35259  Biso   1.000  C
  C96      1.0000 0.00745  0.19780  0.50655  Biso   1.000  C
  C97      1.0000 0.97526  0.23950  0.50849  Biso   1.000  C
  H57      1.0000 0.97260  0.28690  0.52640  Biso   1.000  H
  C98      1.0000 0.94731  0.21150  0.48406  Biso   1.000  C
  H58      1.0000 0.92640  0.24230  0.48500  Biso   1.000  H
  C99      1.0000 0.94946  0.13850  0.45810  Biso   1.000  C
  C100     1.0000 0.98184  0.09610  0.45630  Biso   1.000  C
  H59      1.0000 0.98440  0.04770  0.43900  Biso   1.000  H
  C101     1.0000 0.01004  0.12580  0.48002  Biso   1.000  C
  H60      1.0000 0.03130  0.09680  0.47820  Biso   1.000  H
  C102     1.0000 0.91887  0.10550  0.43228  Biso   1.000  C
  C103     1.0000 0.89504  0.16490  0.41548  Biso   1.000  C
  H61      1.0000 0.89800  0.22480  0.42030  Biso   1.000  H
  C104     1.0000 0.86678  0.13560  0.39147  Biso   1.000  C
  H62      1.0000 0.85080  0.17600  0.38040  Biso   1.000  H
  C105     1.0000 0.86215  0.04850  0.38393  Biso   1.000  C
  C106     1.0000 0.88543  0.98650  0.40157  Biso   1.000  C
  H63      1.0000 0.88190  0.92660  0.39740  Biso   1.000  H
  C107     1.0000 0.91416  0.01680  0.42559  Biso   1.000  C
  H64      1.0000 0.93010  0.97670  0.43700  Biso   1.000  H
  C108     1.0000 0.83293  0.01620  0.35553  Biso   1.000  C
  In3      1.0000 0.78590  0.95976  0.30123  Biso   1.000  In
  O17      1.0000 0.74270  0.93890  0.25276  Biso   1.000  O
  O18      1.0000 0.75807  0.07430  0.26800  Biso   1.000  O
  O19      1.0000 0.31493  0.35830  0.26391  Biso   1.000  O
  O20      1.0000 0.32898  0.49590  0.25737  Biso   1.000  O
  O21      1.0000 0.74468  0.02180  0.84705  Biso   1.000  O
  O22      1.0000 0.75883  0.15820  0.83424  Biso   1.000  O
  O23      1.0000 0.31291  0.42850  0.83846  Biso   1.000  O
  O24      1.0000 0.32925  0.56560  0.84840  Biso   1.000  O
  C109     1.0000 0.73882  0.02090  0.24819  Biso   1.000  C
  C110     1.0000 0.71050  0.05610  0.21981  Biso   1.000  C
  C111     1.0000 0.68748  0.99700  0.19961  Biso   1.000  C
  H65      1.0000 0.69040  0.93660  0.20290  Biso   1.000  H
  C112     1.0000 0.66009  0.03020  0.17450  Biso   1.000  C
  H66      1.0000 0.64480  0.99130  0.16110  Biso   1.000  H
  C113     1.0000 0.65547  0.11990  0.16950  Biso   1.000  C
  C114     1.0000 0.67923  0.17800  0.18844  Biso   1.000  C
  H67      1.0000 0.67700  0.23830  0.18400  Biso   1.000  H
  C115     1.0000 0.70630  0.14590  0.21403  Biso   1.000  C
  H68      1.0000 0.72160  0.18500  0.22730  Biso   1.000  H
  C116     1.0000 0.62582  0.15400  0.14419  Biso   1.000  C
  C117     1.0000 0.61164  0.10890  0.11070  Biso   1.000  C
  H69      1.0000 0.62110  0.05470  0.10370  Biso   1.000  H
  C118     1.0000 0.58378  0.14130  0.08703  Biso   1.000  C
  H70      1.0000 0.57500  0.10920  0.06450  Biso   1.000  H
  C119     1.0000 0.56880  0.22250  0.09705  Biso   1.000  C
  C120     1.0000 0.58210  0.26770  0.13140  Biso   1.000  C
  H71      1.0000 0.57160  0.32010  0.13930  Biso   1.000  H
  C121     1.0000 0.61028  0.23680  0.15385  Biso   1.000  C
  H72      1.0000 0.61950  0.27010  0.17580  Biso   1.000  H
  C122     1.0000 0.53837  0.25960  0.07247  Biso   1.000  C
  C123     1.0000 0.50789  0.28310  0.09801  Biso   1.000  C
  C124     1.0000 0.49270  0.22130  0.12280  Biso   1.000  C
  H73      1.0000 0.50140  0.16410  0.12320  Biso   1.000  H
  C125     1.0000 0.46513  0.24190  0.14680  Biso   1.000  C
  H74      1.0000 0.45550  0.19810  0.16310  Biso   1.000  H
  C126     1.0000 0.45109  0.32480  0.14773  Biso   1.000  C
  C127     1.0000 0.46811  0.38710  0.12550  Biso   1.000  C
  H75      1.0000 0.46170  0.44580  0.12820  Biso   1.000  H
  C128     1.0000 0.49437  0.36610  0.09940  Biso   1.000  C
  H76      1.0000 0.50320  0.40940  0.08220  Biso   1.000  H
  C129     1.0000 0.42061  0.34750  0.17355  Biso   1.000  C
  C130     1.0000 0.39978  0.28430  0.19040  Biso   1.000  C
  H77      1.0000 0.40450  0.22530  0.18520  Biso   1.000  H
  C131     1.0000 0.37173  0.30590  0.21520  Biso   1.000  C
  H78      1.0000 0.35830  0.26140  0.22640  Biso   1.000  H
  C132     1.0000 0.36393  0.39170  0.22304  Biso   1.000  C
  C133     1.0000 0.38470  0.45620  0.20680  Biso   1.000  C
  H79      1.0000 0.38040  0.51510  0.21290  Biso   1.000  H
  C134     1.0000 0.41220  0.43400  0.18110  Biso   1.000  C
  H80      1.0000 0.42500  0.47850  0.16880  Biso   1.000  H
  C135     1.0000 0.33388  0.41530  0.24940  Biso   1.000  C
  C136     1.0000 0.53859  0.27150  0.03111  Biso   1.000  C
  C137     1.0000 0.56946  0.25140  0.00554  Biso   1.000  C
  C138     1.0000 0.56648  0.18680  0.97492  Biso   1.000  C
  H81      1.0000 0.54520  0.15860  0.97000  Biso   1.000  H
  C139     1.0000 0.59513  0.16410  0.95171  Biso   1.000  C
  H82      1.0000 0.59300  0.11830  0.93270  Biso   1.000  H
  C140     1.0000 0.62663  0.20750  0.95603  Biso   1.000  C
  C141     1.0000 0.62922  0.27420  0.98595  Biso   1.000  C
  H83      1.0000 0.65000  0.30530  0.98920  Biso   1.000  H
  C142     1.0000 0.60124  0.29520  0.01106  Biso   1.000  C
  H84      1.0000 0.60380  0.33830  0.03140  Biso   1.000  H
  C143     1.0000 0.65695  0.18220  0.93090  Biso   1.000  C
  C144     1.0000 0.66277  0.09540  0.92140  Biso   1.000  C
  H85      1.0000 0.64760  0.05320  0.93150  Biso   1.000  H
  C145     1.0000 0.69036  0.06760  0.89750  Biso   1.000  C
  H86      1.0000 0.69420  0.00810  0.89270  Biso   1.000  H
  C146     1.0000 0.71203  0.13180  0.88090  Biso   1.000  C
  C147     1.0000 0.70709  0.21820  0.89022  Biso   1.000  C
  H87      1.0000 0.72200  0.26040  0.87960  Biso   1.000  H
  C148     1.0000 0.67974  0.24490  0.91565  Biso   1.000  C
  H88      1.0000 0.67690  0.30410  0.92220  Biso   1.000  H
  C149     1.0000 0.74017  0.10350  0.85259  Biso   1.000  C
  C150     1.0000 0.50745  0.30220  0.00655  Biso   1.000  C
  C151     1.0000 0.47526  0.26050  0.00849  Biso   1.000  C
  H89      1.0000 0.47260  0.21310  0.02640  Biso   1.000  H
  C152     1.0000 0.44731  0.28850  0.98406  Biso   1.000  C
  H90      1.0000 0.42640  0.25770  0.98500  Biso   1.000  H
  C153     1.0000 0.44946  0.36150  0.95810  Biso   1.000  C
  C154     1.0000 0.48184  0.40390  0.95630  Biso   1.000  C
  H91      1.0000 0.48440  0.45230  0.93900  Biso   1.000  H
  C155     1.0000 0.51004  0.37420  0.98002  Biso   1.000  C
  H92      1.0000 0.53130  0.40320  0.97820  Biso   1.000  H
  C156     1.0000 0.41887  0.39450  0.93228  Biso   1.000  C
  C157     1.0000 0.39504  0.33510  0.91548  Biso   1.000  C
  H93      1.0000 0.39800  0.27520  0.92030  Biso   1.000  H
  C158     1.0000 0.36678  0.36440  0.89147  Biso   1.000  C
  H94      1.0000 0.35080  0.32400  0.88040  Biso   1.000  H
  C159     1.0000 0.36215  0.45150  0.88393  Biso   1.000  C
  C160     1.0000 0.38543  0.51350  0.90157  Biso   1.000  C
  H95      1.0000 0.38190  0.57340  0.89740  Biso   1.000  H
  C161     1.0000 0.41416  0.48320  0.92559  Biso   1.000  C
  H96      1.0000 0.43010  0.52330  0.93700  Biso   1.000  H
  C162     1.0000 0.33293  0.48380  0.85553  Biso   1.000  C
  In4      1.0000 0.28590  0.45976  0.30123  Biso   1.000  In
  O25      1.0000 0.24270  0.43890  0.25276  Biso   1.000  O
  O26      1.0000 0.25807  0.57430  0.26800  Biso   1.000  O
  O27      1.0000 0.81493  0.85830  0.26391  Biso   1.000  O
  O28      1.0000 0.82898  0.99590  0.25737  Biso   1.000  O
  O29      1.0000 0.24468  0.52180  0.84705  Biso   1.000  O
  O30      1.0000 0.25883  0.65820  0.83424  Biso   1.000  O
  O31      1.0000 0.81291  0.92850  0.83846  Biso   1.000  O
  O32      1.0000 0.82925  0.06560  0.84840  Biso   1.000  O
  C163     1.0000 0.23882  0.52090  0.24819  Biso   1.000  C
  C164     1.0000 0.21050  0.55610  0.21981  Biso   1.000  C
  C165     1.0000 0.18748  0.49700  0.19961  Biso   1.000  C
  H97      1.0000 0.19040  0.43660  0.20290  Biso   1.000  H
  C166     1.0000 0.16009  0.53020  0.17450  Biso   1.000  C
  H98      1.0000 0.14480  0.49130  0.16110  Biso   1.000  H
  C167     1.0000 0.15547  0.61990  0.16950  Biso   1.000  C
  C168     1.0000 0.17923  0.67800  0.18844  Biso   1.000  C
  H99      1.0000 0.17700  0.73830  0.18400  Biso   1.000  H
  C169     1.0000 0.20630  0.64590  0.21403  Biso   1.000  C
  H100     1.0000 0.22160  0.68500  0.22730  Biso   1.000  H
  C170     1.0000 0.12582  0.65400  0.14419  Biso   1.000  C
  C171     1.0000 0.11164  0.60890  0.11070  Biso   1.000  C
  H101     1.0000 0.12110  0.55470  0.10370  Biso   1.000  H
  C172     1.0000 0.08378  0.64130  0.08703  Biso   1.000  C
  H102     1.0000 0.07500  0.60920  0.06450  Biso   1.000  H
  C173     1.0000 0.06880  0.72250  0.09705  Biso   1.000  C
  C174     1.0000 0.08210  0.76770  0.13140  Biso   1.000  C
  H103     1.0000 0.07160  0.82010  0.13930  Biso   1.000  H
  C175     1.0000 0.11028  0.73680  0.15385  Biso   1.000  C
  H104     1.0000 0.11950  0.77010  0.17580  Biso   1.000  H
  C176     1.0000 0.03837  0.75960  0.07247  Biso   1.000  C
  C177     1.0000 0.00789  0.78310  0.09801  Biso   1.000  C
  C178     1.0000 0.99270  0.72130  0.12280  Biso   1.000  C
  H105     1.0000 0.00140  0.66410  0.12320  Biso   1.000  H
  C179     1.0000 0.96513  0.74190  0.14680  Biso   1.000  C
  H106     1.0000 0.95550  0.69810  0.16310  Biso   1.000  H
  C180     1.0000 0.95109  0.82480  0.14773  Biso   1.000  C
  C181     1.0000 0.96811  0.88710  0.12550  Biso   1.000  C
  H107     1.0000 0.96170  0.94580  0.12820  Biso   1.000  H
  C182     1.0000 0.99437  0.86610  0.09940  Biso   1.000  C
  H108     1.0000 0.00320  0.90940  0.08220  Biso   1.000  H
  C183     1.0000 0.92061  0.84750  0.17355  Biso   1.000  C
  C184     1.0000 0.89978  0.78430  0.19040  Biso   1.000  C
  H109     1.0000 0.90450  0.72530  0.18520  Biso   1.000  H
  C185     1.0000 0.87173  0.80590  0.21520  Biso   1.000  C
  H110     1.0000 0.85830  0.76140  0.22640  Biso   1.000  H
  C186     1.0000 0.86393  0.89170  0.22304  Biso   1.000  C
  C187     1.0000 0.88470  0.95620  0.20680  Biso   1.000  C
  H111     1.0000 0.88040  0.01510  0.21290  Biso   1.000  H
  C188     1.0000 0.91220  0.93400  0.18110  Biso   1.000  C
  H112     1.0000 0.92500  0.97850  0.16880  Biso   1.000  H
  C189     1.0000 0.83388  0.91530  0.24940  Biso   1.000  C
  C190     1.0000 0.03859  0.77150  0.03111  Biso   1.000  C
  C191     1.0000 0.06946  0.75140  0.00554  Biso   1.000  C
  C192     1.0000 0.06648  0.68680  0.97492  Biso   1.000  C
  H113     1.0000 0.04520  0.65860  0.97000  Biso   1.000  H
  C193     1.0000 0.09513  0.66410  0.95171  Biso   1.000  C
  H114     1.0000 0.09300  0.61830  0.93270  Biso   1.000  H
  C194     1.0000 0.12663  0.70750  0.95603  Biso   1.000  C
  C195     1.0000 0.12922  0.77420  0.98595  Biso   1.000  C
  H115     1.0000 0.15000  0.80530  0.98920  Biso   1.000  H
  C196     1.0000 0.10124  0.79520  0.01106  Biso   1.000  C
  H116     1.0000 0.10380  0.83830  0.03140  Biso   1.000  H
  C197     1.0000 0.15695  0.68220  0.93090  Biso   1.000  C
  C198     1.0000 0.16277  0.59540  0.92140  Biso   1.000  C
  H117     1.0000 0.14760  0.55320  0.93150  Biso   1.000  H
  C199     1.0000 0.19036  0.56760  0.89750  Biso   1.000  C
  H118     1.0000 0.19420  0.50810  0.89270  Biso   1.000  H
  C200     1.0000 0.21203  0.63180  0.88090  Biso   1.000  C
  C201     1.0000 0.20709  0.71820  0.89022  Biso   1.000  C
  H119     1.0000 0.22200  0.76040  0.87960  Biso   1.000  H
  C202     1.0000 0.17974  0.74490  0.91565  Biso   1.000  C
  H120     1.0000 0.17690  0.80410  0.92220  Biso   1.000  H
  C203     1.0000 0.24017  0.60350  0.85259  Biso   1.000  C
  C204     1.0000 0.00745  0.80220  0.00655  Biso   1.000  C
  C205     1.0000 0.97526  0.76050  0.00849  Biso   1.000  C
  H121     1.0000 0.97260  0.71310  0.02640  Biso   1.000  H
  C206     1.0000 0.94731  0.78850  0.98406  Biso   1.000  C
  H122     1.0000 0.92640  0.75770  0.98500  Biso   1.000  H
  C207     1.0000 0.94946  0.86150  0.95810  Biso   1.000  C
  C208     1.0000 0.98184  0.90390  0.95630  Biso   1.000  C
  H123     1.0000 0.98440  0.95230  0.93900  Biso   1.000  H
  C209     1.0000 0.01004  0.87420  0.98002  Biso   1.000  C
  H124     1.0000 0.03130  0.90320  0.97820  Biso   1.000  H
  C210     1.0000 0.91887  0.89450  0.93228  Biso   1.000  C
  C211     1.0000 0.89504  0.83510  0.91548  Biso   1.000  C
  H125     1.0000 0.89800  0.77520  0.92030  Biso   1.000  H
  C212     1.0000 0.86678  0.86440  0.89147  Biso   1.000  C
  H126     1.0000 0.85080  0.82400  0.88040  Biso   1.000  H
  C213     1.0000 0.86215  0.95150  0.88393  Biso   1.000  C
  C214     1.0000 0.88543  0.01350  0.90157  Biso   1.000  C
  H127     1.0000 0.88190  0.07340  0.89740  Biso   1.000  H
  C215     1.0000 0.91416  0.98320  0.92559  Biso   1.000  C
  H128     1.0000 0.93010  0.02330  0.93700  Biso   1.000  H
  C216     1.0000 0.83293  0.98380  0.85553  Biso   1.000  C
  In5      1.0000 0.21410  0.04024  0.69877  Biso   1.000  In
  O33      1.0000 0.25730  0.06110  0.74724  Biso   1.000  O
  O34      1.0000 0.24193  0.92570  0.73200  Biso   1.000  O
  O35      1.0000 0.68507  0.64170  0.73609  Biso   1.000  O
  O36      1.0000 0.67102  0.50410  0.74263  Biso   1.000  O
  O37      1.0000 0.25532  0.97820  0.15295  Biso   1.000  O
  O38      1.0000 0.24117  0.84180  0.16576  Biso   1.000  O
  O39      1.0000 0.68709  0.57150  0.16154  Biso   1.000  O
  O40      1.0000 0.67075  0.43440  0.15160  Biso   1.000  O
  C217     1.0000 0.26118  0.97910  0.75181  Biso   1.000  C
  C218     1.0000 0.28950  0.94390  0.78019  Biso   1.000  C
  C219     1.0000 0.31252  0.00300  0.80039  Biso   1.000  C
  H129     1.0000 0.30960  0.06340  0.79710  Biso   1.000  H
  C220     1.0000 0.33991  0.96980  0.82550  Biso   1.000  C
  H130     1.0000 0.35520  0.00870  0.83890  Biso   1.000  H
  C221     1.0000 0.34453  0.88010  0.83050  Biso   1.000  C
  C222     1.0000 0.32077  0.82200  0.81156  Biso   1.000  C
  H131     1.0000 0.32300  0.76170  0.81600  Biso   1.000  H
  C223     1.0000 0.29370  0.85410  0.78597  Biso   1.000  C
  H132     1.0000 0.27840  0.81500  0.77270  Biso   1.000  H
  C224     1.0000 0.37418  0.84600  0.85581  Biso   1.000  C
  C225     1.0000 0.38836  0.89110  0.88930  Biso   1.000  C
  H133     1.0000 0.37890  0.94530  0.89630  Biso   1.000  H
  C226     1.0000 0.41622  0.85870  0.91297  Biso   1.000  C
  H134     1.0000 0.42500  0.89080  0.93550  Biso   1.000  H
  C227     1.0000 0.43120  0.77750  0.90295  Biso   1.000  C
  C228     1.0000 0.41790  0.73230  0.86860  Biso   1.000  C
  H135     1.0000 0.42840  0.67990  0.86070  Biso   1.000  H
  C229     1.0000 0.38972  0.76320  0.84615  Biso   1.000  C
  H136     1.0000 0.38050  0.72990  0.82420  Biso   1.000  H
  C230     1.0000 0.46163  0.74040  0.92753  Biso   1.000  C
  C231     1.0000 0.49211  0.71690  0.90199  Biso   1.000  C
  C232     1.0000 0.50730  0.77870  0.87720  Biso   1.000  C
  H137     1.0000 0.49860  0.83590  0.87680  Biso   1.000  H
  C233     1.0000 0.53487  0.75810  0.85320  Biso   1.000  C
  H138     1.0000 0.54450  0.80190  0.83690  Biso   1.000  H
  C234     1.0000 0.54891  0.67520  0.85227  Biso   1.000  C
  C235     1.0000 0.53189  0.61290  0.87450  Biso   1.000  C
  H139     1.0000 0.53830  0.55420  0.87180  Biso   1.000  H
  C236     1.0000 0.50563  0.63390  0.90060  Biso   1.000  C
  H140     1.0000 0.49680  0.59060  0.91780  Biso   1.000  H
  C237     1.0000 0.57939  0.65250  0.82645  Biso   1.000  C
  C238     1.0000 0.60022  0.71570  0.80960  Biso   1.000  C
  H141     1.0000 0.59550  0.77470  0.81480  Biso   1.000  H
  C239     1.0000 0.62827  0.69410  0.78480  Biso   1.000  C
  H142     1.0000 0.64170  0.73860  0.77360  Biso   1.000  H
  C240     1.0000 0.63607  0.60830  0.77696  Biso   1.000  C
  C241     1.0000 0.61530  0.54380  0.79320  Biso   1.000  C
  H143     1.0000 0.61960  0.48490  0.78710  Biso   1.000  H
  C242     1.0000 0.58780  0.56600  0.81890  Biso   1.000  C
  H144     1.0000 0.57500  0.52150  0.83120  Biso   1.000  H
  C243     1.0000 0.66612  0.58470  0.75060  Biso   1.000  C
  C244     1.0000 0.46141  0.72850  0.96889  Biso   1.000  C
  C245     1.0000 0.43054  0.74860  0.99446  Biso   1.000  C
  C246     1.0000 0.43352  0.81320  0.02508  Biso   1.000  C
  H145     1.0000 0.45480  0.84140  0.03000  Biso   1.000  H
  C247     1.0000 0.40487  0.83590  0.04829  Biso   1.000  C
  H146     1.0000 0.40700  0.88170  0.06730  Biso   1.000  H
  C248     1.0000 0.37337  0.79250  0.04397  Biso   1.000  C
  C249     1.0000 0.37078  0.72580  0.01405  Biso   1.000  C
  H147     1.0000 0.35000  0.69470  0.01080  Biso   1.000  H
  C250     1.0000 0.39876  0.70480  0.98894  Biso   1.000  C
  H148     1.0000 0.39620  0.66170  0.96860  Biso   1.000  H
  C251     1.0000 0.34305  0.81780  0.06910  Biso   1.000  C
  C252     1.0000 0.33723  0.90460  0.07860  Biso   1.000  C
  H149     1.0000 0.35240  0.94680  0.06850  Biso   1.000  H
  C253     1.0000 0.30964  0.93240  0.10250  Biso   1.000  C
  H150     1.0000 0.30580  0.99190  0.10730  Biso   1.000  H
  C254     1.0000 0.28797  0.86820  0.11910  Biso   1.000  C
  C255     1.0000 0.29291  0.78180  0.10978  Biso   1.000  C
  H151     1.0000 0.27800  0.73960  0.12040  Biso   1.000  H
  C256     1.0000 0.32026  0.75510  0.08435  Biso   1.000  C
  H152     1.0000 0.32310  0.69590  0.07780  Biso   1.000  H
  C257     1.0000 0.25983  0.89650  0.14741  Biso   1.000  C
  C258     1.0000 0.49255  0.69780  0.99345  Biso   1.000  C
  C259     1.0000 0.52474  0.73950  0.99151  Biso   1.000  C
  H153     1.0000 0.52740  0.78690  0.97360  Biso   1.000  H
  C260     1.0000 0.55269  0.71150  0.01594  Biso   1.000  C
  H154     1.0000 0.57360  0.74230  0.01500  Biso   1.000  H
  C261     1.0000 0.55054  0.63850  0.04190  Biso   1.000  C
  C262     1.0000 0.51816  0.59610  0.04370  Biso   1.000  C
  H155     1.0000 0.51560  0.54770  0.06100  Biso   1.000  H
  C263     1.0000 0.48996  0.62580  0.01998  Biso   1.000  C
  H156     1.0000 0.46870  0.59680  0.02180  Biso   1.000  H
  C264     1.0000 0.58113  0.60550  0.06772  Biso   1.000  C
  C265     1.0000 0.60496  0.66490  0.08452  Biso   1.000  C
  H157     1.0000 0.60200  0.72480  0.07970  Biso   1.000  H
  C266     1.0000 0.63322  0.63560  0.10853  Biso   1.000  C
  H158     1.0000 0.64920  0.67600  0.11960  Biso   1.000  H
  C267     1.0000 0.63785  0.54850  0.11607  Biso   1.000  C
  C268     1.0000 0.61457  0.48650  0.09843  Biso   1.000  C
  H159     1.0000 0.61810  0.42660  0.10260  Biso   1.000  H
  C269     1.0000 0.58584  0.51680  0.07441  Biso   1.000  C
  H160     1.0000 0.56990  0.47670  0.06300  Biso   1.000  H
  C270     1.0000 0.66707  0.51620  0.14447  Biso   1.000  C
  In6      1.0000 0.71410  0.54024  0.69877  Biso   1.000  In
  O41      1.0000 0.75730  0.56110  0.74724  Biso   1.000  O
  O42      1.0000 0.74193  0.42570  0.73200  Biso   1.000  O
  O43      1.0000 0.18507  0.14170  0.73609  Biso   1.000  O
  O44      1.0000 0.17102  0.00410  0.74263  Biso   1.000  O
  O45      1.0000 0.75532  0.47820  0.15295  Biso   1.000  O
  O46      1.0000 0.74117  0.34180  0.16576  Biso   1.000  O
  O47      1.0000 0.18709  0.07150  0.16154  Biso   1.000  O
  O48      1.0000 0.17075  0.93440  0.15160  Biso   1.000  O
  C271     1.0000 0.76118  0.47910  0.75181  Biso   1.000  C
  C272     1.0000 0.78950  0.44390  0.78019  Biso   1.000  C
  C273     1.0000 0.81252  0.50300  0.80039  Biso   1.000  C
  H161     1.0000 0.80960  0.56340  0.79710  Biso   1.000  H
  C274     1.0000 0.83991  0.46980  0.82550  Biso   1.000  C
  H162     1.0000 0.85520  0.50870  0.83890  Biso   1.000  H
  C275     1.0000 0.84453  0.38010  0.83050  Biso   1.000  C
  C276     1.0000 0.82077  0.32200  0.81156  Biso   1.000  C
  H163     1.0000 0.82300  0.26170  0.81600  Biso   1.000  H
  C277     1.0000 0.79370  0.35410  0.78597  Biso   1.000  C
  H164     1.0000 0.77840  0.31500  0.77270  Biso   1.000  H
  C278     1.0000 0.87418  0.34600  0.85581  Biso   1.000  C
  C279     1.0000 0.88836  0.39110  0.88930  Biso   1.000  C
  H165     1.0000 0.87890  0.44530  0.89630  Biso   1.000  H
  C280     1.0000 0.91622  0.35870  0.91297  Biso   1.000  C
  H166     1.0000 0.92500  0.39080  0.93550  Biso   1.000  H
  C281     1.0000 0.93120  0.27750  0.90295  Biso   1.000  C
  C282     1.0000 0.91790  0.23230  0.86860  Biso   1.000  C
  H167     1.0000 0.92840  0.17990  0.86070  Biso   1.000  H
  C283     1.0000 0.88972  0.26320  0.84615  Biso   1.000  C
  H168     1.0000 0.88050  0.22990  0.82420  Biso   1.000  H
  C284     1.0000 0.96163  0.24040  0.92753  Biso   1.000  C
  C285     1.0000 0.99211  0.21690  0.90199  Biso   1.000  C
  C286     1.0000 0.00730  0.27870  0.87720  Biso   1.000  C
  H169     1.0000 0.99860  0.33590  0.87680  Biso   1.000  H
  C287     1.0000 0.03487  0.25810  0.85320  Biso   1.000  C
  H170     1.0000 0.04450  0.30190  0.83690  Biso   1.000  H
  C288     1.0000 0.04891  0.17520  0.85227  Biso   1.000  C
  C289     1.0000 0.03189  0.11290  0.87450  Biso   1.000  C
  H171     1.0000 0.03830  0.05420  0.87180  Biso   1.000  H
  C290     1.0000 0.00563  0.13390  0.90060  Biso   1.000  C
  H172     1.0000 0.99680  0.09060  0.91780  Biso   1.000  H
  C291     1.0000 0.07939  0.15250  0.82645  Biso   1.000  C
  C292     1.0000 0.10022  0.21570  0.80960  Biso   1.000  C
  H173     1.0000 0.09550  0.27470  0.81480  Biso   1.000  H
  C293     1.0000 0.12827  0.19410  0.78480  Biso   1.000  C
  H174     1.0000 0.14170  0.23860  0.77360  Biso   1.000  H
  C294     1.0000 0.13607  0.10830  0.77696  Biso   1.000  C
  C295     1.0000 0.11530  0.04380  0.79320  Biso   1.000  C
  H175     1.0000 0.11960  0.98490  0.78710  Biso   1.000  H
  C296     1.0000 0.08780  0.06600  0.81890  Biso   1.000  C
  H176     1.0000 0.07500  0.02150  0.83120  Biso   1.000  H
  C297     1.0000 0.16612  0.08470  0.75060  Biso   1.000  C
  C298     1.0000 0.96141  0.22850  0.96889  Biso   1.000  C
  C299     1.0000 0.93054  0.24860  0.99446  Biso   1.000  C
  C300     1.0000 0.93352  0.31320  0.02508  Biso   1.000  C
  H177     1.0000 0.95480  0.34140  0.03000  Biso   1.000  H
  C301     1.0000 0.90487  0.33590  0.04829  Biso   1.000  C
  H178     1.0000 0.90700  0.38170  0.06730  Biso   1.000  H
  C302     1.0000 0.87337  0.29250  0.04397  Biso   1.000  C
  C303     1.0000 0.87078  0.22580  0.01405  Biso   1.000  C
  H179     1.0000 0.85000  0.19470  0.01080  Biso   1.000  H
  C304     1.0000 0.89876  0.20480  0.98894  Biso   1.000  C
  H180     1.0000 0.89620  0.16170  0.96860  Biso   1.000  H
  C305     1.0000 0.84305  0.31780  0.06910  Biso   1.000  C
  C306     1.0000 0.83723  0.40460  0.07860  Biso   1.000  C
  H181     1.0000 0.85240  0.44680  0.06850  Biso   1.000  H
  C307     1.0000 0.80964  0.43240  0.10250  Biso   1.000  C
  H182     1.0000 0.80580  0.49190  0.10730  Biso   1.000  H
  C308     1.0000 0.78797  0.36820  0.11910  Biso   1.000  C
  C309     1.0000 0.79291  0.28180  0.10978  Biso   1.000  C
  H183     1.0000 0.77800  0.23960  0.12040  Biso   1.000  H
  C310     1.0000 0.82026  0.25510  0.08435  Biso   1.000  C
  H184     1.0000 0.82310  0.19590  0.07780  Biso   1.000  H
  C311     1.0000 0.75983  0.39650  0.14741  Biso   1.000  C
  C312     1.0000 0.99255  0.19780  0.99345  Biso   1.000  C
  C313     1.0000 0.02474  0.23950  0.99151  Biso   1.000  C
  H185     1.0000 0.02740  0.28690  0.97360  Biso   1.000  H
  C314     1.0000 0.05269  0.21150  0.01594  Biso   1.000  C
  H186     1.0000 0.07360  0.24230  0.01500  Biso   1.000  H
  C315     1.0000 0.05054  0.13850  0.04190  Biso   1.000  C
  C316     1.0000 0.01816  0.09610  0.04370  Biso   1.000  C
  H187     1.0000 0.01560  0.04770  0.06100  Biso   1.000  H
  C317     1.0000 0.98996  0.12580  0.01998  Biso   1.000  C
  H188     1.0000 0.96870  0.09680  0.02180  Biso   1.000  H
  C318     1.0000 0.08113  0.10550  0.06772  Biso   1.000  C
  C319     1.0000 0.10496  0.16490  0.08452  Biso   1.000  C
  H189     1.0000 0.10200  0.22480  0.07970  Biso   1.000  H
  C320     1.0000 0.13322  0.13560  0.10853  Biso   1.000  C
  H190     1.0000 0.14920  0.17600  0.11960  Biso   1.000  H
  C321     1.0000 0.13785  0.04850  0.11607  Biso   1.000  C
  C322     1.0000 0.11457  0.98650  0.09843  Biso   1.000  C
  H191     1.0000 0.11810  0.92660  0.10260  Biso   1.000  H
  C323     1.0000 0.08584  0.01680  0.07441  Biso   1.000  C
  H192     1.0000 0.06990  0.97670  0.06300  Biso   1.000  H
  C324     1.0000 0.16707  0.01620  0.14447  Biso   1.000  C
  In7      1.0000 0.21410  0.95976  0.19877  Biso   1.000  In
  O49      1.0000 0.25730  0.93890  0.24724  Biso   1.000  O
  O50      1.0000 0.24193  0.07430  0.23200  Biso   1.000  O
  O51      1.0000 0.68507  0.35830  0.23609  Biso   1.000  O
  O52      1.0000 0.67102  0.49590  0.24263  Biso   1.000  O
  O53      1.0000 0.25532  0.02180  0.65295  Biso   1.000  O
  O54      1.0000 0.24117  0.15820  0.66576  Biso   1.000  O
  O55      1.0000 0.68709  0.42850  0.66154  Biso   1.000  O
  O56      1.0000 0.67075  0.56560  0.65160  Biso   1.000  O
  C325     1.0000 0.26118  0.02090  0.25181  Biso   1.000  C
  C326     1.0000 0.28950  0.05610  0.28019  Biso   1.000  C
  C327     1.0000 0.31252  0.99700  0.30039  Biso   1.000  C
  H193     1.0000 0.30960  0.93660  0.29710  Biso   1.000  H
  C328     1.0000 0.33991  0.03020  0.32550  Biso   1.000  C
  H194     1.0000 0.35520  0.99130  0.33890  Biso   1.000  H
  C329     1.0000 0.34453  0.11990  0.33050  Biso   1.000  C
  C330     1.0000 0.32077  0.17800  0.31156  Biso   1.000  C
  H195     1.0000 0.32300  0.23830  0.31600  Biso   1.000  H
  C331     1.0000 0.29370  0.14590  0.28597  Biso   1.000  C
  H196     1.0000 0.27840  0.18500  0.27270  Biso   1.000  H
  C332     1.0000 0.37418  0.15400  0.35581  Biso   1.000  C
  C333     1.0000 0.38836  0.10890  0.38930  Biso   1.000  C
  H197     1.0000 0.37890  0.05470  0.39630  Biso   1.000  H
  C334     1.0000 0.41622  0.14130  0.41297  Biso   1.000  C
  H198     1.0000 0.42500  0.10920  0.43550  Biso   1.000  H
  C335     1.0000 0.43120  0.22250  0.40295  Biso   1.000  C
  C336     1.0000 0.41790  0.26770  0.36860  Biso   1.000  C
  H199     1.0000 0.42840  0.32010  0.36070  Biso   1.000  H
  C337     1.0000 0.38972  0.23680  0.34615  Biso   1.000  C
  H200     1.0000 0.38050  0.27010  0.32420  Biso   1.000  H
  C338     1.0000 0.46163  0.25960  0.42753  Biso   1.000  C
  C339     1.0000 0.49211  0.28310  0.40199  Biso   1.000  C
  C340     1.0000 0.50730  0.22130  0.37720  Biso   1.000  C
  H201     1.0000 0.49860  0.16410  0.37680  Biso   1.000  H
  C341     1.0000 0.53487  0.24190  0.35320  Biso   1.000  C
  H202     1.0000 0.54450  0.19810  0.33690  Biso   1.000  H
  C342     1.0000 0.54891  0.32480  0.35227  Biso   1.000  C
  C343     1.0000 0.53189  0.38710  0.37450  Biso   1.000  C
  H203     1.0000 0.53830  0.44580  0.37180  Biso   1.000  H
  C344     1.0000 0.50563  0.36610  0.40060  Biso   1.000  C
  H204     1.0000 0.49680  0.40940  0.41780  Biso   1.000  H
  C345     1.0000 0.57939  0.34750  0.32645  Biso   1.000  C
  C346     1.0000 0.60022  0.28430  0.30960  Biso   1.000  C
  H205     1.0000 0.59550  0.22530  0.31480  Biso   1.000  H
  C347     1.0000 0.62827  0.30590  0.28480  Biso   1.000  C
  H206     1.0000 0.64170  0.26140  0.27360  Biso   1.000  H
  C348     1.0000 0.63607  0.39170  0.27696  Biso   1.000  C
  C349     1.0000 0.61530  0.45620  0.29320  Biso   1.000  C
  H207     1.0000 0.61960  0.51510  0.28710  Biso   1.000  H
  C350     1.0000 0.58780  0.43400  0.31890  Biso   1.000  C
  H208     1.0000 0.57500  0.47850  0.33120  Biso   1.000  H
  C351     1.0000 0.66612  0.41530  0.25060  Biso   1.000  C
  C352     1.0000 0.46141  0.27150  0.46889  Biso   1.000  C
  C353     1.0000 0.43054  0.25140  0.49446  Biso   1.000  C
  C354     1.0000 0.43352  0.18680  0.52508  Biso   1.000  C
  H209     1.0000 0.45480  0.15860  0.53000  Biso   1.000  H
  C355     1.0000 0.40487  0.16410  0.54829  Biso   1.000  C
  H210     1.0000 0.40700  0.11830  0.56730  Biso   1.000  H
  C356     1.0000 0.37337  0.20750  0.54397  Biso   1.000  C
  C357     1.0000 0.37078  0.27420  0.51405  Biso   1.000  C
  H211     1.0000 0.35000  0.30530  0.51080  Biso   1.000  H
  C358     1.0000 0.39876  0.29520  0.48894  Biso   1.000  C
  H212     1.0000 0.39620  0.33830  0.46860  Biso   1.000  H
  C359     1.0000 0.34305  0.18220  0.56910  Biso   1.000  C
  C360     1.0000 0.33723  0.09540  0.57860  Biso   1.000  C
  H213     1.0000 0.35240  0.05320  0.56850  Biso   1.000  H
  C361     1.0000 0.30964  0.06760  0.60250  Biso   1.000  C
  H214     1.0000 0.30580  0.00810  0.60730  Biso   1.000  H
  C362     1.0000 0.28797  0.13180  0.61910  Biso   1.000  C
  C363     1.0000 0.29291  0.21820  0.60978  Biso   1.000  C
  H215     1.0000 0.27800  0.26040  0.62040  Biso   1.000  H
  C364     1.0000 0.32026  0.24490  0.58435  Biso   1.000  C
  H216     1.0000 0.32310  0.30410  0.57780  Biso   1.000  H
  C365     1.0000 0.25983  0.10350  0.64741  Biso   1.000  C
  C366     1.0000 0.49255  0.30220  0.49345  Biso   1.000  C
  C367     1.0000 0.52474  0.26050  0.49151  Biso   1.000  C
  H217     1.0000 0.52740  0.21310  0.47360  Biso   1.000  H
  C368     1.0000 0.55269  0.28850  0.51594  Biso   1.000  C
  H218     1.0000 0.57360  0.25770  0.51500  Biso   1.000  H
  C369     1.0000 0.55054  0.36150  0.54190  Biso   1.000  C
  C370     1.0000 0.51816  0.40390  0.54370  Biso   1.000  C
  H219     1.0000 0.51560  0.45230  0.56100  Biso   1.000  H
  C371     1.0000 0.48996  0.37420  0.51998  Biso   1.000  C
  H220     1.0000 0.46870  0.40320  0.52180  Biso   1.000  H
  C372     1.0000 0.58113  0.39450  0.56772  Biso   1.000  C
  C373     1.0000 0.60496  0.33510  0.58452  Biso   1.000  C
  H221     1.0000 0.60200  0.27520  0.57970  Biso   1.000  H
  C374     1.0000 0.63322  0.36440  0.60853  Biso   1.000  C
  H222     1.0000 0.64920  0.32400  0.61960  Biso   1.000  H
  C375     1.0000 0.63785  0.45150  0.61607  Biso   1.000  C
  C376     1.0000 0.61457  0.51350  0.59843  Biso   1.000  C
  H223     1.0000 0.61810  0.57340  0.60260  Biso   1.000  H
  C377     1.0000 0.58584  0.48320  0.57441  Biso   1.000  C
  H224     1.0000 0.56990  0.52330  0.56300  Biso   1.000  H
  C378     1.0000 0.66707  0.48380  0.64447  Biso   1.000  C
  In8      1.0000 0.71410  0.45976  0.19877  Biso   1.000  In
  O57      1.0000 0.75730  0.43890  0.24724  Biso   1.000  O
  O58      1.0000 0.74193  0.57430  0.23200  Biso   1.000  O
  O59      1.0000 0.18507  0.85830  0.23609  Biso   1.000  O
  O60      1.0000 0.17102  0.99590  0.24263  Biso   1.000  O
  O61      1.0000 0.75532  0.52180  0.65295  Biso   1.000  O
  O62      1.0000 0.74117  0.65820  0.66576  Biso   1.000  O
  O63      1.0000 0.18709  0.92850  0.66154  Biso   1.000  O
  O64      1.0000 0.17075  0.06560  0.65160  Biso   1.000  O
  C379     1.0000 0.76118  0.52090  0.25181  Biso   1.000  C
  C380     1.0000 0.78950  0.55610  0.28019  Biso   1.000  C
  C381     1.0000 0.81252  0.49700  0.30039  Biso   1.000  C
  H225     1.0000 0.80960  0.43660  0.29710  Biso   1.000  H
  C382     1.0000 0.83991  0.53020  0.32550  Biso   1.000  C
  H226     1.0000 0.85520  0.49130  0.33890  Biso   1.000  H
  C383     1.0000 0.84453  0.61990  0.33050  Biso   1.000  C
  C384     1.0000 0.82077  0.67800  0.31156  Biso   1.000  C
  H227     1.0000 0.82300  0.73830  0.31600  Biso   1.000  H
  C385     1.0000 0.79370  0.64590  0.28597  Biso   1.000  C
  H228     1.0000 0.77840  0.68500  0.27270  Biso   1.000  H
  C386     1.0000 0.87418  0.65400  0.35581  Biso   1.000  C
  C387     1.0000 0.88836  0.60890  0.38930  Biso   1.000  C
  H229     1.0000 0.87890  0.55470  0.39630  Biso   1.000  H
  C388     1.0000 0.91622  0.64130  0.41297  Biso   1.000  C
  H230     1.0000 0.92500  0.60920  0.43550  Biso   1.000  H
  C389     1.0000 0.93120  0.72250  0.40295  Biso   1.000  C
  C390     1.0000 0.91790  0.76770  0.36860  Biso   1.000  C
  H231     1.0000 0.92840  0.82010  0.36070  Biso   1.000  H
  C391     1.0000 0.88972  0.73680  0.34615  Biso   1.000  C
  H232     1.0000 0.88050  0.77010  0.32420  Biso   1.000  H
  C392     1.0000 0.96163  0.75960  0.42753  Biso   1.000  C
  C393     1.0000 0.99211  0.78310  0.40199  Biso   1.000  C
  C394     1.0000 0.00730  0.72130  0.37720  Biso   1.000  C
  H233     1.0000 0.99860  0.66410  0.37680  Biso   1.000  H
  C395     1.0000 0.03487  0.74190  0.35320  Biso   1.000  C
  H234     1.0000 0.04450  0.69810  0.33690  Biso   1.000  H
  C396     1.0000 0.04891  0.82480  0.35227  Biso   1.000  C
  C397     1.0000 0.03189  0.88710  0.37450  Biso   1.000  C
  H235     1.0000 0.03830  0.94580  0.37180  Biso   1.000  H
  C398     1.0000 0.00563  0.86610  0.40060  Biso   1.000  C
  H236     1.0000 0.99680  0.90940  0.41780  Biso   1.000  H
  C399     1.0000 0.07939  0.84750  0.32645  Biso   1.000  C
  C400     1.0000 0.10022  0.78430  0.30960  Biso   1.000  C
  H237     1.0000 0.09550  0.72530  0.31480  Biso   1.000  H
  C401     1.0000 0.12827  0.80590  0.28480  Biso   1.000  C
  H238     1.0000 0.14170  0.76140  0.27360  Biso   1.000  H
  C402     1.0000 0.13607  0.89170  0.27696  Biso   1.000  C
  C403     1.0000 0.11530  0.95620  0.29320  Biso   1.000  C
  H239     1.0000 0.11960  0.01510  0.28710  Biso   1.000  H
  C404     1.0000 0.08780  0.93400  0.31890  Biso   1.000  C
  H240     1.0000 0.07500  0.97850  0.33120  Biso   1.000  H
  C405     1.0000 0.16612  0.91530  0.25060  Biso   1.000  C
  C406     1.0000 0.96141  0.77150  0.46889  Biso   1.000  C
  C407     1.0000 0.93054  0.75140  0.49446  Biso   1.000  C
  C408     1.0000 0.93352  0.68680  0.52508  Biso   1.000  C
  H241     1.0000 0.95480  0.65860  0.53000  Biso   1.000  H
  C409     1.0000 0.90487  0.66410  0.54829  Biso   1.000  C
  H242     1.0000 0.90700  0.61830  0.56730  Biso   1.000  H
  C410     1.0000 0.87337  0.70750  0.54397  Biso   1.000  C
  C411     1.0000 0.87078  0.77420  0.51405  Biso   1.000  C
  H243     1.0000 0.85000  0.80530  0.51080  Biso   1.000  H
  C412     1.0000 0.89876  0.79520  0.48894  Biso   1.000  C
  H244     1.0000 0.89620  0.83830  0.46860  Biso   1.000  H
  C413     1.0000 0.84305  0.68220  0.56910  Biso   1.000  C
  C414     1.0000 0.83723  0.59540  0.57860  Biso   1.000  C
  H245     1.0000 0.85240  0.55320  0.56850  Biso   1.000  H
  C415     1.0000 0.80964  0.56760  0.60250  Biso   1.000  C
  H246     1.0000 0.80580  0.50810  0.60730  Biso   1.000  H
  C416     1.0000 0.78797  0.63180  0.61910  Biso   1.000  C
  C417     1.0000 0.79291  0.71820  0.60978  Biso   1.000  C
  H247     1.0000 0.77800  0.76040  0.62040  Biso   1.000  H
  C418     1.0000 0.82026  0.74490  0.58435  Biso   1.000  C
  H248     1.0000 0.82310  0.80410  0.57780  Biso   1.000  H
  C419     1.0000 0.75983  0.60350  0.64741  Biso   1.000  C
  C420     1.0000 0.99255  0.80220  0.49345  Biso   1.000  C
  C421     1.0000 0.02474  0.76050  0.49151  Biso   1.000  C
  H249     1.0000 0.02740  0.71310  0.47360  Biso   1.000  H
  C422     1.0000 0.05269  0.78850  0.51594  Biso   1.000  C
  H250     1.0000 0.07360  0.75770  0.51500  Biso   1.000  H
  C423     1.0000 0.05054  0.86150  0.54190  Biso   1.000  C
  C424     1.0000 0.01816  0.90390  0.54370  Biso   1.000  C
  H251     1.0000 0.01560  0.95230  0.56100  Biso   1.000  H
  C425     1.0000 0.98996  0.87420  0.51998  Biso   1.000  C
  H252     1.0000 0.96870  0.90320  0.52180  Biso   1.000  H
  C426     1.0000 0.08113  0.89450  0.56772  Biso   1.000  C
  C427     1.0000 0.10496  0.83510  0.58452  Biso   1.000  C
  H253     1.0000 0.10200  0.77520  0.57970  Biso   1.000  H
  C428     1.0000 0.13322  0.86440  0.60853  Biso   1.000  C
  H254     1.0000 0.14920  0.82400  0.61960  Biso   1.000  H
  C429     1.0000 0.13785  0.95150  0.61607  Biso   1.000  C
  C430     1.0000 0.11457  0.01350  0.59843  Biso   1.000  C
  H255     1.0000 0.11810  0.07340  0.60260  Biso   1.000  H
  C431     1.0000 0.08584  0.98320  0.57441  Biso   1.000  C
  H256     1.0000 0.06990  0.02330  0.56300  Biso   1.000  H
  C432     1.0000 0.16707  0.98380  0.64447  Biso   1.000  C
