data_WAVROC_clean
_audit_creation_date              2014-07-02
_audit_creation_method            'Materials Studio'
_symmetry_space_group_name_H-M    'P1'
_symmetry_Int_Tables_number       1
_symmetry_cell_setting            triclinic
loop_
_symmetry_equiv_pos_as_xyz
  x,y,z
_cell_length_a                    32.2214
_cell_length_b                    32.2214
_cell_length_c                    35.9941
_cell_angle_alpha                 63.4107
_cell_angle_beta                  63.4107
_cell_angle_gamma                 60.0000
loop_
_atom_site_label
_atom_site_type_symbol
_atom_site_fract_x
_atom_site_fract_y
_atom_site_fract_z
_atom_site_U_iso_or_equiv
_atom_site_adp_type
_atom_site_occupancy
Mg1    Mg    0.54218   0.08577   0.70912   0.01267  Uiso   1.00
Mg2    Mg    0.08577   0.66293   0.70912   0.01267  Uiso   1.00
Mg3    Mg    0.66293   0.54218   0.70912   0.01267  Uiso   1.00
Mg4    Mg    0.95782   0.83707   0.79088   0.01267  Uiso   1.00
Mg5    Mg    0.41423   0.95782   0.79088   0.01267  Uiso   1.00
Mg6    Mg    0.83707   0.41423   0.79088   0.01267  Uiso   1.00
Mg7    Mg    0.45782   0.91423   0.29088   0.01267  Uiso   1.00
Mg8    Mg    0.91423   0.33707   0.29088   0.01267  Uiso   1.00
Mg9    Mg    0.33707   0.45782   0.29088   0.01267  Uiso   1.00
Mg10   Mg    0.04218   0.16293   0.20912   0.01267  Uiso   1.00
Mg11   Mg    0.58577   0.04218   0.20912   0.01267  Uiso   1.00
Mg12   Mg    0.16293   0.58577   0.20912   0.01267  Uiso   1.00
In1    In    0.44076   0.05317   0.79884   0.01267  Uiso   1.00
In2    In    0.05317   0.70723   0.79884   0.01267  Uiso   1.00
In3    In    0.70723   0.44076   0.79884   0.01267  Uiso   1.00
In4    In    0.05924   0.79277   0.70115   0.01267  Uiso   1.00
In5    In    0.44684   0.05924   0.70115   0.01267  Uiso   1.00
In6    In    0.79277   0.44683   0.70116   0.01267  Uiso   1.00
In7    In    0.55924   0.94683   0.20116   0.01267  Uiso   1.00
In8    In    0.94684   0.29277   0.20115   0.01267  Uiso   1.00
In9    In    0.29277   0.55924   0.20115   0.01267  Uiso   1.00
In10   In    0.94076   0.20723   0.29884   0.01267  Uiso   1.00
In11   In    0.55316   0.94076   0.29885   0.01267  Uiso   1.00
In12   In    0.20723   0.55316   0.29885   0.01267  Uiso   1.00
H1     H     0.64950   0.74670   0.81580   0.01267  Uiso   1.00
H2     H     0.70740   0.86030   0.76900   0.01267  Uiso   1.00
H3     H     0.59280   0.81640   0.84820   0.01267  Uiso   1.00
H4     H     0.65210   0.94260   0.75100   0.01267  Uiso   1.00
H5     H     0.53820   0.89840   0.83140   0.01267  Uiso   1.00
H6     H     0.30450   0.70780   0.14130   0.01267  Uiso   1.00
H7     H     0.39290   0.63930   0.21690   0.01267  Uiso   1.00
H8     H     0.34130   0.76650   0.10230   0.01267  Uiso   1.00
H9     H     0.43090   0.69630   0.17730   0.01267  Uiso   1.00
H10    H     0.43940   0.85210   0.22770   0.01267  Uiso   1.00
H11    H     0.54180   0.88940   0.11850   0.01267  Uiso   1.00
H12    H     0.42900   0.77160   0.16050   0.01267  Uiso   1.00
H13    H     0.41890   0.82300   0.19200   0.01267  Uiso   1.00
H14    H     0.52010   0.86300   0.08250   0.01267  Uiso   1.00
H15    H     0.41460   0.93820   0.00660   0.01267  Uiso   1.00
H16    H     0.46560   0.87610   0.05190   0.01267  Uiso   1.00
H17    H     0.40220   0.79520   0.05370   0.01267  Uiso   1.00
H18    H     0.43970   0.81930   0.98020   0.01267  Uiso   1.00
H19    H     0.43870   0.86700   0.90970   0.01267  Uiso   1.00
H20    H     0.41210   0.98660   0.93730   0.01267  Uiso   1.00
H21    H     0.74670   0.78800   0.81580   0.01267  Uiso   1.00
H22    H     0.86030   0.66330   0.76900   0.01267  Uiso   1.00
H23    H     0.81640   0.74260   0.84820   0.01267  Uiso   1.00
H24    H     0.94260   0.65430   0.75100   0.01267  Uiso   1.00
H25    H     0.89840   0.73200   0.83140   0.01267  Uiso   1.00
H26    H     0.70780   0.84640   0.14130   0.01267  Uiso   1.00
H27    H     0.63930   0.75090   0.21690   0.01267  Uiso   1.00
H28    H     0.76650   0.78990   0.10230   0.01267  Uiso   1.00
H29    H     0.69630   0.69550   0.17730   0.01267  Uiso   1.00
H30    H     0.85210   0.48080   0.22770   0.01267  Uiso   1.00
H31    H     0.88940   0.45030   0.11850   0.01267  Uiso   1.00
H32    H     0.77160   0.63890   0.16050   0.01267  Uiso   1.00
H33    H     0.82300   0.56610   0.19200   0.01267  Uiso   1.00
H34    H     0.86300   0.53440   0.08250   0.01267  Uiso   1.00
H35    H     0.93820   0.64060   0.00660   0.01267  Uiso   1.00
H36    H     0.87610   0.60640   0.05190   0.01267  Uiso   1.00
H37    H     0.79520   0.74890   0.05370   0.01267  Uiso   1.00
H38    H     0.81930   0.76080   0.98020   0.01267  Uiso   1.00
H39    H     0.86700   0.78460   0.90970   0.01267  Uiso   1.00
H40    H     0.98660   0.66400   0.93730   0.01267  Uiso   1.00
H41    H     0.78800   0.64950   0.81580   0.01267  Uiso   1.00
H42    H     0.66330   0.70740   0.76900   0.01267  Uiso   1.00
H43    H     0.74260   0.59280   0.84820   0.01267  Uiso   1.00
H44    H     0.65430   0.65210   0.75100   0.01267  Uiso   1.00
H45    H     0.73200   0.53820   0.83140   0.01267  Uiso   1.00
H46    H     0.84640   0.30450   0.14130   0.01267  Uiso   1.00
H47    H     0.75090   0.39290   0.21690   0.01267  Uiso   1.00
H48    H     0.78990   0.34130   0.10230   0.01267  Uiso   1.00
H49    H     0.69550   0.43090   0.17730   0.01267  Uiso   1.00
H50    H     0.48080   0.43940   0.22770   0.01267  Uiso   1.00
H51    H     0.45030   0.54180   0.11850   0.01267  Uiso   1.00
H52    H     0.63890   0.42900   0.16050   0.01267  Uiso   1.00
H53    H     0.56610   0.41890   0.19200   0.01267  Uiso   1.00
H54    H     0.53440   0.52010   0.08250   0.01267  Uiso   1.00
H55    H     0.64060   0.41460   0.00660   0.01267  Uiso   1.00
H56    H     0.60640   0.46560   0.05190   0.01267  Uiso   1.00
H57    H     0.74890   0.40220   0.05370   0.01267  Uiso   1.00
H58    H     0.76080   0.43970   0.98020   0.01267  Uiso   1.00
H59    H     0.78460   0.43870   0.90970   0.01267  Uiso   1.00
H60    H     0.66400   0.41210   0.93730   0.01267  Uiso   1.00
H61    H     0.85050   0.71200   0.68420   0.01267  Uiso   1.00
H62    H     0.79260   0.83670   0.73100   0.01267  Uiso   1.00
H63    H     0.90720   0.75740   0.65180   0.01267  Uiso   1.00
H64    H     0.84790   0.84570   0.74900   0.01267  Uiso   1.00
H65    H     0.96180   0.76800   0.66860   0.01267  Uiso   1.00
H66    H     0.19550   0.65360   0.35870   0.01267  Uiso   1.00
H67    H     0.10710   0.74910   0.28310   0.01267  Uiso   1.00
H68    H     0.15870   0.71010   0.39770   0.01267  Uiso   1.00
H69    H     0.06910   0.80450   0.32270   0.01267  Uiso   1.00
H70    H     0.06060   0.01920   0.27230   0.01267  Uiso   1.00
H71    H     0.95820   0.04970   0.38150   0.01267  Uiso   1.00
H72    H     0.07100   0.86110   0.33950   0.01267  Uiso   1.00
H73    H     0.08110   0.93390   0.30800   0.01267  Uiso   1.00
H74    H     0.97990   0.96560   0.41750   0.01267  Uiso   1.00
H75    H     0.08540   0.85940   0.49340   0.01267  Uiso   1.00
H76    H     0.03440   0.89360   0.44810   0.01267  Uiso   1.00
H77    H     0.09780   0.75110   0.44630   0.01267  Uiso   1.00
H78    H     0.06030   0.73920   0.51980   0.01267  Uiso   1.00
H79    H     0.06130   0.71540   0.59030   0.01267  Uiso   1.00
H80    H     0.08790   0.83600   0.56270   0.01267  Uiso   1.00
H81    H     0.75330   0.85050   0.68420   0.01267  Uiso   1.00
H82    H     0.63970   0.79260   0.73100   0.01267  Uiso   1.00
H83    H     0.68360   0.90720   0.65180   0.01267  Uiso   1.00
H84    H     0.55740   0.84790   0.74900   0.01267  Uiso   1.00
H85    H     0.60160   0.96180   0.66860   0.01267  Uiso   1.00
H86    H     0.79220   0.19550   0.35870   0.01267  Uiso   1.00
H87    H     0.86070   0.10710   0.28310   0.01267  Uiso   1.00
H88    H     0.73350   0.15870   0.39770   0.01267  Uiso   1.00
H89    H     0.80370   0.06910   0.32270   0.01267  Uiso   1.00
H90    H     0.64790   0.06060   0.27230   0.01267  Uiso   1.00
H91    H     0.61060   0.95820   0.38150   0.01267  Uiso   1.00
H92    H     0.72840   0.07100   0.33950   0.01267  Uiso   1.00
H93    H     0.67700   0.08110   0.30800   0.01267  Uiso   1.00
H94    H     0.63700   0.97990   0.41750   0.01267  Uiso   1.00
H95    H     0.56180   0.08540   0.49340   0.01267  Uiso   1.00
H96    H     0.62390   0.03440   0.44810   0.01267  Uiso   1.00
H97    H     0.70480   0.09780   0.44630   0.01267  Uiso   1.00
H98    H     0.68070   0.06030   0.51980   0.01267  Uiso   1.00
H99    H     0.63300   0.06130   0.59030   0.01267  Uiso   1.00
H100   H     0.51340   0.08790   0.56270   0.01267  Uiso   1.00
H101   H     0.71200   0.75330   0.68420   0.01267  Uiso   1.00
H102   H     0.83670   0.63970   0.73100   0.01267  Uiso   1.00
H103   H     0.75740   0.68360   0.65180   0.01267  Uiso   1.00
H104   H     0.84570   0.55740   0.74900   0.01267  Uiso   1.00
H105   H     0.76800   0.60160   0.66860   0.01267  Uiso   1.00
H106   H     0.65360   0.79220   0.35870   0.01267  Uiso   1.00
H107   H     0.74910   0.86070   0.28310   0.01267  Uiso   1.00
H108   H     0.71010   0.73350   0.39770   0.01267  Uiso   1.00
H109   H     0.80450   0.80370   0.32270   0.01267  Uiso   1.00
H110   H     0.01920   0.64790   0.27230   0.01267  Uiso   1.00
H111   H     0.04970   0.61060   0.38150   0.01267  Uiso   1.00
H112   H     0.86110   0.72840   0.33950   0.01267  Uiso   1.00
H113   H     0.93390   0.67700   0.30800   0.01267  Uiso   1.00
H114   H     0.96560   0.63700   0.41750   0.01267  Uiso   1.00
H115   H     0.85940   0.56180   0.49340   0.01267  Uiso   1.00
H116   H     0.89360   0.62390   0.44810   0.01267  Uiso   1.00
H117   H     0.75110   0.70480   0.44630   0.01267  Uiso   1.00
H118   H     0.73920   0.68070   0.51980   0.01267  Uiso   1.00
H119   H     0.71540   0.63300   0.59030   0.01267  Uiso   1.00
H120   H     0.83600   0.51340   0.56270   0.01267  Uiso   1.00
H121   H     0.35050   0.25330   0.18420   0.01267  Uiso   1.00
H122   H     0.29260   0.13970   0.23100   0.01267  Uiso   1.00
H123   H     0.40720   0.18360   0.15180   0.01267  Uiso   1.00
H124   H     0.34790   0.05740   0.24900   0.01267  Uiso   1.00
H125   H     0.46180   0.10160   0.16860   0.01267  Uiso   1.00
H126   H     0.69550   0.29220   0.85870   0.01267  Uiso   1.00
H127   H     0.60710   0.36070   0.78310   0.01267  Uiso   1.00
H128   H     0.65870   0.23350   0.89770   0.01267  Uiso   1.00
H129   H     0.56910   0.30370   0.82270   0.01267  Uiso   1.00
H130   H     0.56060   0.14790   0.77230   0.01267  Uiso   1.00
H131   H     0.45820   0.11060   0.88150   0.01267  Uiso   1.00
H132   H     0.57100   0.22840   0.83950   0.01267  Uiso   1.00
H133   H     0.58110   0.17700   0.80800   0.01267  Uiso   1.00
H134   H     0.47990   0.13700   0.91750   0.01267  Uiso   1.00
H135   H     0.58540   0.06180   0.99340   0.01267  Uiso   1.00
H136   H     0.53440   0.12390   0.94810   0.01267  Uiso   1.00
H137   H     0.59780   0.20480   0.94630   0.01267  Uiso   1.00
H138   H     0.56030   0.18070   0.01980   0.01267  Uiso   1.00
H139   H     0.56130   0.13300   0.09030   0.01267  Uiso   1.00
H140   H     0.58790   0.01340   0.06270   0.01267  Uiso   1.00
H141   H     0.25330   0.21200   0.18420   0.01267  Uiso   1.00
H142   H     0.13970   0.33670   0.23100   0.01267  Uiso   1.00
H143   H     0.18360   0.25740   0.15180   0.01267  Uiso   1.00
H144   H     0.05740   0.34570   0.24900   0.01267  Uiso   1.00
H145   H     0.10160   0.26800   0.16860   0.01267  Uiso   1.00
H146   H     0.29220   0.15360   0.85870   0.01267  Uiso   1.00
H147   H     0.36070   0.24910   0.78310   0.01267  Uiso   1.00
H148   H     0.23350   0.21010   0.89770   0.01267  Uiso   1.00
H149   H     0.30370   0.30450   0.82270   0.01267  Uiso   1.00
H150   H     0.14790   0.51920   0.77230   0.01267  Uiso   1.00
H151   H     0.11060   0.54970   0.88150   0.01267  Uiso   1.00
H152   H     0.22840   0.36110   0.83950   0.01267  Uiso   1.00
H153   H     0.17700   0.43390   0.80800   0.01267  Uiso   1.00
H154   H     0.13700   0.46560   0.91750   0.01267  Uiso   1.00
H155   H     0.06180   0.35940   0.99340   0.01267  Uiso   1.00
H156   H     0.12390   0.39360   0.94810   0.01267  Uiso   1.00
H157   H     0.20480   0.25110   0.94630   0.01267  Uiso   1.00
H158   H     0.18070   0.23920   0.01980   0.01267  Uiso   1.00
H159   H     0.13300   0.21540   0.09030   0.01267  Uiso   1.00
H160   H     0.01340   0.33600   0.06270   0.01267  Uiso   1.00
H161   H     0.21200   0.35050   0.18420   0.01267  Uiso   1.00
H162   H     0.33670   0.29260   0.23100   0.01267  Uiso   1.00
H163   H     0.25740   0.40720   0.15180   0.01267  Uiso   1.00
H164   H     0.34570   0.34790   0.24900   0.01267  Uiso   1.00
H165   H     0.26800   0.46180   0.16860   0.01267  Uiso   1.00
H166   H     0.15360   0.69550   0.85870   0.01267  Uiso   1.00
H167   H     0.24910   0.60710   0.78310   0.01267  Uiso   1.00
H168   H     0.21010   0.65870   0.89770   0.01267  Uiso   1.00
H169   H     0.30450   0.56910   0.82270   0.01267  Uiso   1.00
H170   H     0.51920   0.56060   0.77230   0.01267  Uiso   1.00
H171   H     0.54970   0.45820   0.88150   0.01267  Uiso   1.00
H172   H     0.36110   0.57100   0.83950   0.01267  Uiso   1.00
H173   H     0.43390   0.58110   0.80800   0.01267  Uiso   1.00
H174   H     0.46560   0.47990   0.91750   0.01267  Uiso   1.00
H175   H     0.35940   0.58540   0.99340   0.01267  Uiso   1.00
H176   H     0.39360   0.53440   0.94810   0.01267  Uiso   1.00
H177   H     0.25110   0.59780   0.94630   0.01267  Uiso   1.00
H178   H     0.23920   0.56030   0.01980   0.01267  Uiso   1.00
H179   H     0.21540   0.56130   0.09030   0.01267  Uiso   1.00
H180   H     0.33600   0.58790   0.06270   0.01267  Uiso   1.00
H181   H     0.14950   0.28800   0.31580   0.01267  Uiso   1.00
H182   H     0.20740   0.16330   0.26900   0.01267  Uiso   1.00
H183   H     0.09280   0.24260   0.34820   0.01267  Uiso   1.00
H184   H     0.15210   0.15430   0.25100   0.01267  Uiso   1.00
H185   H     0.03820   0.23200   0.33140   0.01267  Uiso   1.00
H186   H     0.80450   0.34640   0.64130   0.01267  Uiso   1.00
H187   H     0.89290   0.25090   0.71690   0.01267  Uiso   1.00
H188   H     0.84130   0.28990   0.60230   0.01267  Uiso   1.00
H189   H     0.93090   0.19550   0.67730   0.01267  Uiso   1.00
H190   H     0.93940   0.98080   0.72770   0.01267  Uiso   1.00
H191   H     0.04180   0.95030   0.61850   0.01267  Uiso   1.00
H192   H     0.92900   0.13890   0.66050   0.01267  Uiso   1.00
H193   H     0.91890   0.06610   0.69200   0.01267  Uiso   1.00
H194   H     0.02010   0.03440   0.58250   0.01267  Uiso   1.00
H195   H     0.91460   0.14060   0.50660   0.01267  Uiso   1.00
H196   H     0.96560   0.10640   0.55190   0.01267  Uiso   1.00
H197   H     0.90220   0.24890   0.55370   0.01267  Uiso   1.00
H198   H     0.93970   0.26080   0.48020   0.01267  Uiso   1.00
H199   H     0.93870   0.28460   0.40970   0.01267  Uiso   1.00
H200   H     0.91210   0.16400   0.43730   0.01267  Uiso   1.00
H201   H     0.24670   0.14950   0.31580   0.01267  Uiso   1.00
H202   H     0.36030   0.20740   0.26900   0.01267  Uiso   1.00
H203   H     0.31640   0.09280   0.34820   0.01267  Uiso   1.00
H204   H     0.44260   0.15210   0.25100   0.01267  Uiso   1.00
H205   H     0.39840   0.03820   0.33140   0.01267  Uiso   1.00
H206   H     0.20780   0.80450   0.64130   0.01267  Uiso   1.00
H207   H     0.13930   0.89290   0.71690   0.01267  Uiso   1.00
H208   H     0.26650   0.84130   0.60230   0.01267  Uiso   1.00
H209   H     0.19630   0.93090   0.67730   0.01267  Uiso   1.00
H210   H     0.35210   0.93940   0.72770   0.01267  Uiso   1.00
H211   H     0.38940   0.04180   0.61850   0.01267  Uiso   1.00
H212   H     0.27160   0.92900   0.66050   0.01267  Uiso   1.00
H213   H     0.32300   0.91890   0.69200   0.01267  Uiso   1.00
H214   H     0.36300   0.02010   0.58250   0.01267  Uiso   1.00
H215   H     0.43820   0.91460   0.50660   0.01267  Uiso   1.00
H216   H     0.37610   0.96560   0.55190   0.01267  Uiso   1.00
H217   H     0.29520   0.90220   0.55370   0.01267  Uiso   1.00
H218   H     0.31930   0.93970   0.48020   0.01267  Uiso   1.00
H219   H     0.36700   0.93870   0.40970   0.01267  Uiso   1.00
H220   H     0.48660   0.91210   0.43730   0.01267  Uiso   1.00
H221   H     0.28800   0.24670   0.31580   0.01267  Uiso   1.00
H222   H     0.16330   0.36030   0.26900   0.01267  Uiso   1.00
H223   H     0.24260   0.31640   0.34820   0.01267  Uiso   1.00
H224   H     0.15430   0.44260   0.25100   0.01267  Uiso   1.00
H225   H     0.23200   0.39840   0.33140   0.01267  Uiso   1.00
H226   H     0.34640   0.20780   0.64130   0.01267  Uiso   1.00
H227   H     0.25090   0.13930   0.71690   0.01267  Uiso   1.00
H228   H     0.28990   0.26650   0.60230   0.01267  Uiso   1.00
H229   H     0.19550   0.19630   0.67730   0.01267  Uiso   1.00
H230   H     0.98080   0.35210   0.72770   0.01267  Uiso   1.00
H231   H     0.95030   0.38940   0.61850   0.01267  Uiso   1.00
H232   H     0.13890   0.27160   0.66050   0.01267  Uiso   1.00
H233   H     0.06610   0.32300   0.69200   0.01267  Uiso   1.00
H234   H     0.03440   0.36300   0.58250   0.01267  Uiso   1.00
H235   H     0.14060   0.43820   0.50660   0.01267  Uiso   1.00
H236   H     0.10640   0.37610   0.55190   0.01267  Uiso   1.00
H237   H     0.24890   0.29520   0.55370   0.01267  Uiso   1.00
H238   H     0.26080   0.31930   0.48020   0.01267  Uiso   1.00
H239   H     0.28460   0.36700   0.40970   0.01267  Uiso   1.00
H240   H     0.16400   0.48660   0.43730   0.01267  Uiso   1.00
C1     C     0.69283   0.77677   0.81511   0.01267  Uiso   1.00
C2     C     0.68172   0.73876   0.81541   0.01267  Uiso   1.00
C3     C     0.67311   0.86767   0.78139   0.01267  Uiso   1.00
C4     C     0.60521   0.84133   0.82864   0.01267  Uiso   1.00
C5     C     0.58900   0.92846   0.78901   0.01267  Uiso   1.00
C6     C     0.63996   0.91731   0.77056   0.01267  Uiso   1.00
C7     C     0.55260   0.98081   0.77608   0.01267  Uiso   1.00
C8     C     0.57233   0.89065   0.81832   0.01267  Uiso   1.00
C9     C     0.65587   0.82924   0.81010   0.01267  Uiso   1.00
C10    C     0.32944   0.70555   0.14928   0.01267  Uiso   1.00
C11    C     0.32227   0.62833   0.20889   0.01267  Uiso   1.00
C12    C     0.34428   0.66804   0.18336   0.01267  Uiso   1.00
C13    C     0.38219   0.66528   0.19353   0.01267  Uiso   1.00
C14    C     0.35185   0.74102   0.12585   0.01267  Uiso   1.00
C15    C     0.41100   0.77803   0.11100   0.01267  Uiso   1.00
C16    C     0.38779   0.73978   0.13593   0.01267  Uiso   1.00
C17    C     0.40462   0.69966   0.17034   0.01267  Uiso   1.00
C18    C     0.49034   0.87570   0.17646   0.01267  Uiso   1.00
C19    C     0.45516   0.85491   0.19842   0.01267  Uiso   1.00
C20    C     0.51604   0.87727   0.13308   0.01267  Uiso   1.00
C21    C     0.50084   0.89659   0.19989   0.01267  Uiso   1.00
C22    C     0.42967   0.78917   0.13179   0.01267  Uiso   1.00
C23    C     0.44275   0.83757   0.17685   0.01267  Uiso   1.00
C24    C     0.44999   0.82694   0.10983   0.01267  Uiso   1.00
C25    C     0.46573   0.84216   0.13311   0.01267  Uiso   1.00
C26    C     0.50330   0.86117   0.11160   0.01267  Uiso   1.00
C27    C     0.41939   0.92354   0.98713   0.01267  Uiso   1.00
C28    C     0.43123   0.84178   0.04551   0.01267  Uiso   1.00
C29    C     0.45138   0.85206   0.06696   0.01267  Uiso   1.00
C30    C     0.42233   0.96324   0.87082   0.01267  Uiso   1.00
C31    C     0.41331   0.80383   0.06807   0.01267  Uiso   1.00
C32    C     0.42803   0.87370   0.00081   0.01267  Uiso   1.00
C33    C     0.43447   0.85295   0.97159   0.01267  Uiso   1.00
C34    C     0.43326   0.88170   0.92935   0.01267  Uiso   1.00
C35    C     0.42398   0.93194   0.91669   0.01267  Uiso   1.00
C36    C     0.41762   0.95290   0.94564   0.01267  Uiso   1.00
C37    C     0.77677   0.71529   0.81511   0.01267  Uiso   1.00
C38    C     0.73876   0.76411   0.81541   0.01267  Uiso   1.00
C39    C     0.86767   0.67783   0.78139   0.01267  Uiso   1.00
C40    C     0.84133   0.72482   0.82864   0.01267  Uiso   1.00
C41    C     0.92846   0.69353   0.78901   0.01267  Uiso   1.00
C42    C     0.91731   0.67217   0.77056   0.01267  Uiso   1.00
C43    C     0.98081   0.69051   0.77608   0.01267  Uiso   1.00
C44    C     0.89065   0.71870   0.81832   0.01267  Uiso   1.00
C45    C     0.82924   0.70479   0.81010   0.01267  Uiso   1.00
C46    C     0.70555   0.81573   0.14928   0.01267  Uiso   1.00
C47    C     0.62833   0.84051   0.20889   0.01267  Uiso   1.00
C48    C     0.66804   0.80432   0.18336   0.01267  Uiso   1.00
C49    C     0.66528   0.75900   0.19353   0.01267  Uiso   1.00
C50    C     0.74102   0.78128   0.12585   0.01267  Uiso   1.00
C51    C     0.77803   0.69997   0.11100   0.01267  Uiso   1.00
C52    C     0.73978   0.73650   0.13593   0.01267  Uiso   1.00
C53    C     0.69966   0.72538   0.17034   0.01267  Uiso   1.00
C54    C     0.87570   0.45750   0.17646   0.01267  Uiso   1.00
C55    C     0.85491   0.49151   0.19842   0.01267  Uiso   1.00
C56    C     0.87727   0.47361   0.13308   0.01267  Uiso   1.00
C57    C     0.89659   0.40268   0.19989   0.01267  Uiso   1.00
C58    C     0.78917   0.64937   0.13179   0.01267  Uiso   1.00
C59    C     0.83757   0.54283   0.17685   0.01267  Uiso   1.00
C60    C     0.82694   0.61324   0.10983   0.01267  Uiso   1.00
C61    C     0.84216   0.55900   0.13311   0.01267  Uiso   1.00
C62    C     0.86117   0.52393   0.11160   0.01267  Uiso   1.00
C63    C     0.92354   0.66994   0.98713   0.01267  Uiso   1.00
C64    C     0.84178   0.68148   0.04551   0.01267  Uiso   1.00
C65    C     0.85206   0.62960   0.06696   0.01267  Uiso   1.00
C66    C     0.96324   0.74361   0.87082   0.01267  Uiso   1.00
C67    C     0.80383   0.71479   0.06807   0.01267  Uiso   1.00
C68    C     0.87370   0.69746   0.00081   0.01267  Uiso   1.00
C69    C     0.85295   0.74099   0.97159   0.01267  Uiso   1.00
C70    C     0.88170   0.75569   0.92935   0.01267  Uiso   1.00
C71    C     0.93194   0.72739   0.91669   0.01267  Uiso   1.00
C72    C     0.95290   0.68384   0.94564   0.01267  Uiso   1.00
C73    C     0.71529   0.69283   0.81511   0.01267  Uiso   1.00
C74    C     0.76411   0.68172   0.81541   0.01267  Uiso   1.00
C75    C     0.67783   0.67311   0.78139   0.01267  Uiso   1.00
C76    C     0.72482   0.60521   0.82864   0.01267  Uiso   1.00
C77    C     0.69353   0.58900   0.78901   0.01267  Uiso   1.00
C78    C     0.67217   0.63996   0.77056   0.01267  Uiso   1.00
C79    C     0.69051   0.55260   0.77608   0.01267  Uiso   1.00
C80    C     0.71870   0.57233   0.81832   0.01267  Uiso   1.00
C81    C     0.70479   0.65587   0.81010   0.01267  Uiso   1.00
C82    C     0.81573   0.32944   0.14928   0.01267  Uiso   1.00
C83    C     0.84051   0.32227   0.20889   0.01267  Uiso   1.00
C84    C     0.80432   0.34428   0.18336   0.01267  Uiso   1.00
C85    C     0.75900   0.38219   0.19353   0.01267  Uiso   1.00
C86    C     0.78128   0.35185   0.12585   0.01267  Uiso   1.00
C87    C     0.69997   0.41100   0.11100   0.01267  Uiso   1.00
C88    C     0.73650   0.38779   0.13593   0.01267  Uiso   1.00
C89    C     0.72538   0.40462   0.17034   0.01267  Uiso   1.00
C90    C     0.45750   0.49034   0.17646   0.01267  Uiso   1.00
C91    C     0.49151   0.45516   0.19842   0.01267  Uiso   1.00
C92    C     0.47361   0.51604   0.13308   0.01267  Uiso   1.00
C93    C     0.40268   0.50084   0.19989   0.01267  Uiso   1.00
C94    C     0.64937   0.42967   0.13179   0.01267  Uiso   1.00
C95    C     0.54283   0.44275   0.17685   0.01267  Uiso   1.00
C96    C     0.61324   0.44999   0.10983   0.01267  Uiso   1.00
C97    C     0.55900   0.46573   0.13311   0.01267  Uiso   1.00
C98    C     0.52393   0.50330   0.11160   0.01267  Uiso   1.00
C99    C     0.66994   0.41939   0.98713   0.01267  Uiso   1.00
C100   C     0.68148   0.43123   0.04551   0.01267  Uiso   1.00
C101   C     0.62960   0.45138   0.06696   0.01267  Uiso   1.00
C102   C     0.74361   0.42233   0.87082   0.01267  Uiso   1.00
C103   C     0.71479   0.41331   0.06807   0.01267  Uiso   1.00
C104   C     0.69746   0.42803   0.00081   0.01267  Uiso   1.00
C105   C     0.74099   0.43447   0.97159   0.01267  Uiso   1.00
C106   C     0.75569   0.43326   0.92935   0.01267  Uiso   1.00
C107   C     0.72739   0.42398   0.91669   0.01267  Uiso   1.00
C108   C     0.68384   0.41762   0.94564   0.01267  Uiso   1.00
C109   C     0.80717   0.78471   0.68489   0.01267  Uiso   1.00
C110   C     0.81828   0.73589   0.68459   0.01267  Uiso   1.00
C111   C     0.82689   0.82217   0.71861   0.01267  Uiso   1.00
C112   C     0.89479   0.77518   0.67136   0.01267  Uiso   1.00
C113   C     0.91100   0.80647   0.71099   0.01267  Uiso   1.00
C114   C     0.86004   0.82783   0.72944   0.01267  Uiso   1.00
C115   C     0.94740   0.80949   0.72392   0.01267  Uiso   1.00
C116   C     0.92767   0.78130   0.68168   0.01267  Uiso   1.00
C117   C     0.84413   0.79521   0.68990   0.01267  Uiso   1.00
C118   C     0.17056   0.68427   0.35072   0.01267  Uiso   1.00
C119   C     0.17773   0.65949   0.29111   0.01267  Uiso   1.00
C120   C     0.15572   0.69568   0.31664   0.01267  Uiso   1.00
C121   C     0.11781   0.74100   0.30647   0.01267  Uiso   1.00
C122   C     0.14815   0.71872   0.37415   0.01267  Uiso   1.00
C123   C     0.08900   0.80003   0.38900   0.01267  Uiso   1.00
C124   C     0.11221   0.76350   0.36407   0.01267  Uiso   1.00
C125   C     0.09538   0.77462   0.32966   0.01267  Uiso   1.00
C126   C     0.00966   0.04250   0.32354   0.01267  Uiso   1.00
C127   C     0.04484   0.00849   0.30158   0.01267  Uiso   1.00
C128   C     0.98396   0.02639   0.36692   0.01267  Uiso   1.00
C129   C     0.99916   0.09732   0.30011   0.01267  Uiso   1.00
C130   C     0.07033   0.85063   0.36821   0.01267  Uiso   1.00
C131   C     0.05725   0.95717   0.32315   0.01267  Uiso   1.00
C132   C     0.05001   0.88676   0.39017   0.01267  Uiso   1.00
C133   C     0.03427   0.94100   0.36689   0.01267  Uiso   1.00
C134   C     0.99670   0.97607   0.38840   0.01267  Uiso   1.00
C135   C     0.08061   0.83006   0.51287   0.01267  Uiso   1.00
C136   C     0.06877   0.81852   0.45449   0.01267  Uiso   1.00
C137   C     0.04862   0.87040   0.43304   0.01267  Uiso   1.00
C138   C     0.07767   0.75639   0.62918   0.01267  Uiso   1.00
C139   C     0.08669   0.78521   0.43193   0.01267  Uiso   1.00
C140   C     0.07197   0.80254   0.49919   0.01267  Uiso   1.00
C141   C     0.06553   0.75901   0.52841   0.01267  Uiso   1.00
C142   C     0.06674   0.74431   0.57065   0.01267  Uiso   1.00
C143   C     0.07602   0.77261   0.58331   0.01267  Uiso   1.00
C144   C     0.08238   0.81616   0.55436   0.01267  Uiso   1.00
C145   C     0.72323   0.80717   0.68489   0.01267  Uiso   1.00
C146   C     0.76124   0.81828   0.68459   0.01267  Uiso   1.00
C147   C     0.63233   0.82689   0.71861   0.01267  Uiso   1.00
C148   C     0.65867   0.89479   0.67136   0.01267  Uiso   1.00
C149   C     0.57154   0.91100   0.71099   0.01267  Uiso   1.00
C150   C     0.58269   0.86004   0.72944   0.01267  Uiso   1.00
C151   C     0.51919   0.94740   0.72392   0.01267  Uiso   1.00
C152   C     0.60935   0.92767   0.68168   0.01267  Uiso   1.00
C153   C     0.67076   0.84413   0.68990   0.01267  Uiso   1.00
C154   C     0.79445   0.17056   0.35072   0.01267  Uiso   1.00
C155   C     0.87167   0.17773   0.29111   0.01267  Uiso   1.00
C156   C     0.83196   0.15572   0.31664   0.01267  Uiso   1.00
C157   C     0.83472   0.11781   0.30647   0.01267  Uiso   1.00
C158   C     0.75898   0.14815   0.37415   0.01267  Uiso   1.00
C159   C     0.72197   0.08900   0.38900   0.01267  Uiso   1.00
C160   C     0.76022   0.11221   0.36407   0.01267  Uiso   1.00
C161   C     0.80034   0.09538   0.32966   0.01267  Uiso   1.00
C162   C     0.62430   0.00966   0.32354   0.01267  Uiso   1.00
C163   C     0.64509   0.04484   0.30158   0.01267  Uiso   1.00
C164   C     0.62273   0.98396   0.36692   0.01267  Uiso   1.00
C165   C     0.60341   0.99916   0.30011   0.01267  Uiso   1.00
C166   C     0.71083   0.07033   0.36821   0.01267  Uiso   1.00
C167   C     0.66243   0.05725   0.32315   0.01267  Uiso   1.00
C168   C     0.67306   0.05001   0.39017   0.01267  Uiso   1.00
C169   C     0.65784   0.03427   0.36689   0.01267  Uiso   1.00
C170   C     0.63883   0.99670   0.38840   0.01267  Uiso   1.00
C171   C     0.57646   0.08061   0.51287   0.01267  Uiso   1.00
C172   C     0.65822   0.06877   0.45449   0.01267  Uiso   1.00
C173   C     0.64794   0.04862   0.43304   0.01267  Uiso   1.00
C174   C     0.53676   0.07767   0.62918   0.01267  Uiso   1.00
C175   C     0.69617   0.08669   0.43193   0.01267  Uiso   1.00
C176   C     0.62630   0.07197   0.49919   0.01267  Uiso   1.00
C177   C     0.64705   0.06553   0.52841   0.01267  Uiso   1.00
C178   C     0.61830   0.06674   0.57065   0.01267  Uiso   1.00
C179   C     0.56806   0.07602   0.58331   0.01267  Uiso   1.00
C180   C     0.54710   0.08238   0.55436   0.01267  Uiso   1.00
C181   C     0.78471   0.72323   0.68489   0.01267  Uiso   1.00
C182   C     0.73589   0.76124   0.68459   0.01267  Uiso   1.00
C183   C     0.82217   0.63233   0.71861   0.01267  Uiso   1.00
C184   C     0.77518   0.65867   0.67136   0.01267  Uiso   1.00
C185   C     0.80647   0.57154   0.71099   0.01267  Uiso   1.00
C186   C     0.82783   0.58269   0.72944   0.01267  Uiso   1.00
C187   C     0.80949   0.51919   0.72392   0.01267  Uiso   1.00
C188   C     0.78130   0.60935   0.68168   0.01267  Uiso   1.00
C189   C     0.79521   0.67076   0.68990   0.01267  Uiso   1.00
C190   C     0.68427   0.79445   0.35072   0.01267  Uiso   1.00
C191   C     0.65949   0.87167   0.29111   0.01267  Uiso   1.00
C192   C     0.69568   0.83196   0.31664   0.01267  Uiso   1.00
C193   C     0.74100   0.83472   0.30647   0.01267  Uiso   1.00
C194   C     0.71872   0.75898   0.37415   0.01267  Uiso   1.00
C195   C     0.80003   0.72197   0.38900   0.01267  Uiso   1.00
C196   C     0.76350   0.76022   0.36407   0.01267  Uiso   1.00
C197   C     0.77462   0.80034   0.32966   0.01267  Uiso   1.00
C198   C     0.04250   0.62430   0.32354   0.01267  Uiso   1.00
C199   C     0.00849   0.64509   0.30158   0.01267  Uiso   1.00
C200   C     0.02639   0.62273   0.36692   0.01267  Uiso   1.00
C201   C     0.09732   0.60341   0.30011   0.01267  Uiso   1.00
C202   C     0.85063   0.71083   0.36821   0.01267  Uiso   1.00
C203   C     0.95717   0.66243   0.32315   0.01267  Uiso   1.00
C204   C     0.88676   0.67306   0.39017   0.01267  Uiso   1.00
C205   C     0.94100   0.65784   0.36689   0.01267  Uiso   1.00
C206   C     0.97607   0.63883   0.38840   0.01267  Uiso   1.00
C207   C     0.83006   0.57646   0.51287   0.01267  Uiso   1.00
C208   C     0.81852   0.65822   0.45449   0.01267  Uiso   1.00
C209   C     0.87040   0.64794   0.43304   0.01267  Uiso   1.00
C210   C     0.75639   0.53676   0.62918   0.01267  Uiso   1.00
C211   C     0.78521   0.69617   0.43193   0.01267  Uiso   1.00
C212   C     0.80254   0.62630   0.49919   0.01267  Uiso   1.00
C213   C     0.75901   0.64705   0.52841   0.01267  Uiso   1.00
C214   C     0.74431   0.61830   0.57065   0.01267  Uiso   1.00
C215   C     0.77261   0.56806   0.58331   0.01267  Uiso   1.00
C216   C     0.81616   0.54710   0.55436   0.01267  Uiso   1.00
C217   C     0.30717   0.22323   0.18489   0.01267  Uiso   1.00
C218   C     0.31828   0.26124   0.18459   0.01267  Uiso   1.00
C219   C     0.32689   0.13233   0.21861   0.01267  Uiso   1.00
C220   C     0.39479   0.15867   0.17136   0.01267  Uiso   1.00
C221   C     0.41100   0.07154   0.21099   0.01267  Uiso   1.00
C222   C     0.36004   0.08269   0.22944   0.01267  Uiso   1.00
C223   C     0.44740   0.01919   0.22392   0.01267  Uiso   1.00
C224   C     0.42767   0.10935   0.18168   0.01267  Uiso   1.00
C225   C     0.34413   0.17076   0.18990   0.01267  Uiso   1.00
C226   C     0.67056   0.29445   0.85072   0.01267  Uiso   1.00
C227   C     0.67773   0.37167   0.79111   0.01267  Uiso   1.00
C228   C     0.65572   0.33196   0.81664   0.01267  Uiso   1.00
C229   C     0.61781   0.33472   0.80647   0.01267  Uiso   1.00
C230   C     0.64815   0.25898   0.87415   0.01267  Uiso   1.00
C231   C     0.58900   0.22197   0.88900   0.01267  Uiso   1.00
C232   C     0.61221   0.26022   0.86407   0.01267  Uiso   1.00
C233   C     0.59538   0.30034   0.82966   0.01267  Uiso   1.00
C234   C     0.50966   0.12430   0.82354   0.01267  Uiso   1.00
C235   C     0.54484   0.14509   0.80158   0.01267  Uiso   1.00
C236   C     0.48396   0.12273   0.86692   0.01267  Uiso   1.00
C237   C     0.49916   0.10341   0.80011   0.01267  Uiso   1.00
C238   C     0.57033   0.21083   0.86821   0.01267  Uiso   1.00
C239   C     0.55725   0.16243   0.82315   0.01267  Uiso   1.00
C240   C     0.55001   0.17306   0.89017   0.01267  Uiso   1.00
C241   C     0.53427   0.15784   0.86689   0.01267  Uiso   1.00
C242   C     0.49670   0.13883   0.88840   0.01267  Uiso   1.00
C243   C     0.58061   0.07646   0.01287   0.01267  Uiso   1.00
C244   C     0.56877   0.15822   0.95449   0.01267  Uiso   1.00
C245   C     0.54862   0.14794   0.93304   0.01267  Uiso   1.00
C246   C     0.57767   0.03676   0.12918   0.01267  Uiso   1.00
C247   C     0.58669   0.19617   0.93193   0.01267  Uiso   1.00
C248   C     0.57197   0.12630   0.99919   0.01267  Uiso   1.00
C249   C     0.56553   0.14705   0.02841   0.01267  Uiso   1.00
C250   C     0.56674   0.11830   0.07065   0.01267  Uiso   1.00
C251   C     0.57602   0.06806   0.08331   0.01267  Uiso   1.00
C252   C     0.58238   0.04710   0.05436   0.01267  Uiso   1.00
C253   C     0.22323   0.28471   0.18489   0.01267  Uiso   1.00
C254   C     0.26124   0.23589   0.18459   0.01267  Uiso   1.00
C255   C     0.13233   0.32217   0.21861   0.01267  Uiso   1.00
C256   C     0.15867   0.27518   0.17136   0.01267  Uiso   1.00
C257   C     0.07154   0.30647   0.21099   0.01267  Uiso   1.00
C258   C     0.08269   0.32783   0.22944   0.01267  Uiso   1.00
C259   C     0.01919   0.30949   0.22392   0.01267  Uiso   1.00
C260   C     0.10935   0.28130   0.18168   0.01267  Uiso   1.00
C261   C     0.17076   0.29521   0.18990   0.01267  Uiso   1.00
C262   C     0.29445   0.18427   0.85072   0.01267  Uiso   1.00
C263   C     0.37167   0.15949   0.79111   0.01267  Uiso   1.00
C264   C     0.33196   0.19568   0.81664   0.01267  Uiso   1.00
C265   C     0.33472   0.24100   0.80647   0.01267  Uiso   1.00
C266   C     0.25898   0.21872   0.87415   0.01267  Uiso   1.00
C267   C     0.22197   0.30003   0.88900   0.01267  Uiso   1.00
C268   C     0.26022   0.26350   0.86407   0.01267  Uiso   1.00
C269   C     0.30034   0.27462   0.82966   0.01267  Uiso   1.00
C270   C     0.12430   0.54250   0.82354   0.01267  Uiso   1.00
C271   C     0.14509   0.50849   0.80158   0.01267  Uiso   1.00
C272   C     0.12273   0.52639   0.86692   0.01267  Uiso   1.00
C273   C     0.10341   0.59732   0.80011   0.01267  Uiso   1.00
C274   C     0.21083   0.35063   0.86821   0.01267  Uiso   1.00
C275   C     0.16243   0.45717   0.82315   0.01267  Uiso   1.00
C276   C     0.17306   0.38676   0.89017   0.01267  Uiso   1.00
C277   C     0.15784   0.44100   0.86689   0.01267  Uiso   1.00
C278   C     0.13883   0.47607   0.88840   0.01267  Uiso   1.00
C279   C     0.07646   0.33006   0.01287   0.01267  Uiso   1.00
C280   C     0.15822   0.31852   0.95449   0.01267  Uiso   1.00
C281   C     0.14794   0.37040   0.93304   0.01267  Uiso   1.00
C282   C     0.03676   0.25639   0.12918   0.01267  Uiso   1.00
C283   C     0.19617   0.28521   0.93193   0.01267  Uiso   1.00
C284   C     0.12630   0.30254   0.99919   0.01267  Uiso   1.00
C285   C     0.14705   0.25901   0.02841   0.01267  Uiso   1.00
C286   C     0.11830   0.24431   0.07065   0.01267  Uiso   1.00
C287   C     0.06806   0.27261   0.08331   0.01267  Uiso   1.00
C288   C     0.04710   0.31616   0.05436   0.01267  Uiso   1.00
C289   C     0.28471   0.30717   0.18489   0.01267  Uiso   1.00
C290   C     0.23589   0.31828   0.18459   0.01267  Uiso   1.00
C291   C     0.32217   0.32689   0.21861   0.01267  Uiso   1.00
C292   C     0.27518   0.39479   0.17136   0.01267  Uiso   1.00
C293   C     0.30647   0.41100   0.21099   0.01267  Uiso   1.00
C294   C     0.32783   0.36004   0.22944   0.01267  Uiso   1.00
C295   C     0.30949   0.44740   0.22392   0.01267  Uiso   1.00
C296   C     0.28130   0.42767   0.18168   0.01267  Uiso   1.00
C297   C     0.29521   0.34413   0.18990   0.01267  Uiso   1.00
C298   C     0.18427   0.67056   0.85072   0.01267  Uiso   1.00
C299   C     0.15949   0.67773   0.79111   0.01267  Uiso   1.00
C300   C     0.19568   0.65572   0.81664   0.01267  Uiso   1.00
C301   C     0.24100   0.61781   0.80647   0.01267  Uiso   1.00
C302   C     0.21872   0.64815   0.87415   0.01267  Uiso   1.00
C303   C     0.30003   0.58900   0.88900   0.01267  Uiso   1.00
C304   C     0.26350   0.61221   0.86407   0.01267  Uiso   1.00
C305   C     0.27462   0.59538   0.82966   0.01267  Uiso   1.00
C306   C     0.54250   0.50966   0.82354   0.01267  Uiso   1.00
C307   C     0.50849   0.54484   0.80158   0.01267  Uiso   1.00
C308   C     0.52639   0.48396   0.86692   0.01267  Uiso   1.00
C309   C     0.59732   0.49916   0.80011   0.01267  Uiso   1.00
C310   C     0.35063   0.57033   0.86821   0.01267  Uiso   1.00
C311   C     0.45717   0.55725   0.82315   0.01267  Uiso   1.00
C312   C     0.38676   0.55001   0.89017   0.01267  Uiso   1.00
C313   C     0.44100   0.53427   0.86689   0.01267  Uiso   1.00
C314   C     0.47607   0.49670   0.88840   0.01267  Uiso   1.00
C315   C     0.33006   0.58061   0.01287   0.01267  Uiso   1.00
C316   C     0.31852   0.56877   0.95449   0.01267  Uiso   1.00
C317   C     0.37040   0.54862   0.93304   0.01267  Uiso   1.00
C318   C     0.25639   0.57767   0.12918   0.01267  Uiso   1.00
C319   C     0.28521   0.58669   0.93193   0.01267  Uiso   1.00
C320   C     0.30254   0.57197   0.99919   0.01267  Uiso   1.00
C321   C     0.25901   0.56553   0.02841   0.01267  Uiso   1.00
C322   C     0.24431   0.56674   0.07065   0.01267  Uiso   1.00
C323   C     0.27261   0.57602   0.08331   0.01267  Uiso   1.00
C324   C     0.31616   0.58238   0.05436   0.01267  Uiso   1.00
C325   C     0.19283   0.21529   0.31511   0.01267  Uiso   1.00
C326   C     0.18172   0.26411   0.31541   0.01267  Uiso   1.00
C327   C     0.17311   0.17783   0.28139   0.01267  Uiso   1.00
C328   C     0.10521   0.22482   0.32864   0.01267  Uiso   1.00
C329   C     0.08900   0.19353   0.28901   0.01267  Uiso   1.00
C330   C     0.13996   0.17217   0.27056   0.01267  Uiso   1.00
C331   C     0.05260   0.19051   0.27608   0.01267  Uiso   1.00
C332   C     0.07233   0.21870   0.31832   0.01267  Uiso   1.00
C333   C     0.15587   0.20479   0.31010   0.01267  Uiso   1.00
C334   C     0.82944   0.31573   0.64928   0.01267  Uiso   1.00
C335   C     0.82227   0.34051   0.70889   0.01267  Uiso   1.00
C336   C     0.84428   0.30432   0.68336   0.01267  Uiso   1.00
C337   C     0.88219   0.25900   0.69353   0.01267  Uiso   1.00
C338   C     0.85185   0.28128   0.62585   0.01267  Uiso   1.00
C339   C     0.91100   0.19997   0.61100   0.01267  Uiso   1.00
C340   C     0.88779   0.23650   0.63593   0.01267  Uiso   1.00
C341   C     0.90462   0.22538   0.67034   0.01267  Uiso   1.00
C342   C     0.99034   0.95750   0.67646   0.01267  Uiso   1.00
C343   C     0.95516   0.99151   0.69842   0.01267  Uiso   1.00
C344   C     0.01604   0.97361   0.63308   0.01267  Uiso   1.00
C345   C     0.00084   0.90268   0.69989   0.01267  Uiso   1.00
C346   C     0.92967   0.14937   0.63179   0.01267  Uiso   1.00
C347   C     0.94275   0.04283   0.67685   0.01267  Uiso   1.00
C348   C     0.94999   0.11324   0.60983   0.01267  Uiso   1.00
C349   C     0.96573   0.05900   0.63311   0.01267  Uiso   1.00
C350   C     0.00330   0.02393   0.61160   0.01267  Uiso   1.00
C351   C     0.91939   0.16994   0.48713   0.01267  Uiso   1.00
C352   C     0.93123   0.18148   0.54551   0.01267  Uiso   1.00
C353   C     0.95138   0.12960   0.56696   0.01267  Uiso   1.00
C354   C     0.92233   0.24361   0.37082   0.01267  Uiso   1.00
C355   C     0.91331   0.21479   0.56807   0.01267  Uiso   1.00
C356   C     0.92803   0.19746   0.50081   0.01267  Uiso   1.00
C357   C     0.93447   0.24099   0.47159   0.01267  Uiso   1.00
C358   C     0.93326   0.25569   0.42935   0.01267  Uiso   1.00
C359   C     0.92398   0.22739   0.41669   0.01267  Uiso   1.00
C360   C     0.91762   0.18384   0.44564   0.01267  Uiso   1.00
C361   C     0.27677   0.19283   0.31511   0.01267  Uiso   1.00
C362   C     0.23876   0.18172   0.31541   0.01267  Uiso   1.00
C363   C     0.36767   0.17311   0.28139   0.01267  Uiso   1.00
C364   C     0.34133   0.10521   0.32864   0.01267  Uiso   1.00
C365   C     0.42846   0.08900   0.28901   0.01267  Uiso   1.00
C366   C     0.41731   0.13996   0.27056   0.01267  Uiso   1.00
C367   C     0.48081   0.05260   0.27608   0.01267  Uiso   1.00
C368   C     0.39065   0.07233   0.31832   0.01267  Uiso   1.00
C369   C     0.32924   0.15587   0.31010   0.01267  Uiso   1.00
C370   C     0.20555   0.82944   0.64928   0.01267  Uiso   1.00
C371   C     0.12833   0.82227   0.70889   0.01267  Uiso   1.00
C372   C     0.16804   0.84428   0.68336   0.01267  Uiso   1.00
C373   C     0.16528   0.88219   0.69353   0.01267  Uiso   1.00
C374   C     0.24102   0.85185   0.62585   0.01267  Uiso   1.00
C375   C     0.27803   0.91100   0.61100   0.01267  Uiso   1.00
C376   C     0.23978   0.88779   0.63593   0.01267  Uiso   1.00
C377   C     0.19966   0.90462   0.67034   0.01267  Uiso   1.00
C378   C     0.37570   0.99034   0.67646   0.01267  Uiso   1.00
C379   C     0.35491   0.95516   0.69842   0.01267  Uiso   1.00
C380   C     0.37727   0.01604   0.63308   0.01267  Uiso   1.00
C381   C     0.39659   0.00084   0.69989   0.01267  Uiso   1.00
C382   C     0.28917   0.92967   0.63179   0.01267  Uiso   1.00
C383   C     0.33757   0.94275   0.67685   0.01267  Uiso   1.00
C384   C     0.32694   0.94999   0.60983   0.01267  Uiso   1.00
C385   C     0.34216   0.96573   0.63311   0.01267  Uiso   1.00
C386   C     0.36117   0.00330   0.61160   0.01267  Uiso   1.00
C387   C     0.42354   0.91939   0.48713   0.01267  Uiso   1.00
C388   C     0.34178   0.93123   0.54551   0.01267  Uiso   1.00
C389   C     0.35206   0.95138   0.56696   0.01267  Uiso   1.00
C390   C     0.46324   0.92233   0.37082   0.01267  Uiso   1.00
C391   C     0.30383   0.91331   0.56807   0.01267  Uiso   1.00
C392   C     0.37370   0.92803   0.50081   0.01267  Uiso   1.00
C393   C     0.35295   0.93447   0.47159   0.01267  Uiso   1.00
C394   C     0.38170   0.93326   0.42935   0.01267  Uiso   1.00
C395   C     0.43194   0.92398   0.41669   0.01267  Uiso   1.00
C396   C     0.45290   0.91762   0.44564   0.01267  Uiso   1.00
C397   C     0.21529   0.27677   0.31511   0.01267  Uiso   1.00
C398   C     0.26411   0.23876   0.31541   0.01267  Uiso   1.00
C399   C     0.17783   0.36767   0.28139   0.01267  Uiso   1.00
C400   C     0.22482   0.34133   0.32864   0.01267  Uiso   1.00
C401   C     0.19353   0.42846   0.28901   0.01267  Uiso   1.00
C402   C     0.17217   0.41731   0.27056   0.01267  Uiso   1.00
C403   C     0.19051   0.48081   0.27608   0.01267  Uiso   1.00
C404   C     0.21870   0.39065   0.31832   0.01267  Uiso   1.00
C405   C     0.20479   0.32924   0.31010   0.01267  Uiso   1.00
C406   C     0.31573   0.20555   0.64928   0.01267  Uiso   1.00
C407   C     0.34051   0.12833   0.70889   0.01267  Uiso   1.00
C408   C     0.30432   0.16804   0.68336   0.01267  Uiso   1.00
C409   C     0.25900   0.16528   0.69353   0.01267  Uiso   1.00
C410   C     0.28128   0.24102   0.62585   0.01267  Uiso   1.00
C411   C     0.19997   0.27803   0.61100   0.01267  Uiso   1.00
C412   C     0.23650   0.23978   0.63593   0.01267  Uiso   1.00
C413   C     0.22538   0.19966   0.67034   0.01267  Uiso   1.00
C414   C     0.95750   0.37570   0.67646   0.01267  Uiso   1.00
C415   C     0.99151   0.35491   0.69842   0.01267  Uiso   1.00
C416   C     0.97361   0.37727   0.63308   0.01267  Uiso   1.00
C417   C     0.90268   0.39659   0.69989   0.01267  Uiso   1.00
C418   C     0.14937   0.28917   0.63179   0.01267  Uiso   1.00
C419   C     0.04283   0.33757   0.67685   0.01267  Uiso   1.00
C420   C     0.11324   0.32694   0.60983   0.01267  Uiso   1.00
C421   C     0.05900   0.34216   0.63311   0.01267  Uiso   1.00
C422   C     0.02393   0.36117   0.61160   0.01267  Uiso   1.00
C423   C     0.16994   0.42354   0.48713   0.01267  Uiso   1.00
C424   C     0.18148   0.34178   0.54551   0.01267  Uiso   1.00
C425   C     0.12960   0.35206   0.56696   0.01267  Uiso   1.00
C426   C     0.24361   0.46324   0.37082   0.01267  Uiso   1.00
C427   C     0.21479   0.30383   0.56807   0.01267  Uiso   1.00
C428   C     0.19746   0.37370   0.50081   0.01267  Uiso   1.00
C429   C     0.24099   0.35295   0.47159   0.01267  Uiso   1.00
C430   C     0.25569   0.38170   0.42935   0.01267  Uiso   1.00
C431   C     0.22739   0.43194   0.41669   0.01267  Uiso   1.00
C432   C     0.18384   0.45290   0.44564   0.01267  Uiso   1.00
O1     O     0.50742   0.98883   0.79960   0.01267  Uiso   1.00
O2     O     0.56846   0.01184   0.74359   0.01267  Uiso   1.00
O3     O     0.33078   0.59879   0.24375   0.01267  Uiso   1.00
O4     O     0.29536   0.62832   0.19065   0.01267  Uiso   1.00
O5     O     0.47728   0.89358   0.23802   0.01267  Uiso   1.00
O6     O     0.53449   0.91605   0.17679   0.01267  Uiso   1.00
O7     O     0.41362   0.00954   0.86218   0.01267  Uiso   1.00
O8     O     0.43007   0.94221   0.84538   0.01267  Uiso   1.00
O9     O     0.41079   0.03125   0.76996   0.01267  Uiso   1.00
O10    O     0.98883   0.70415   0.79960   0.01267  Uiso   1.00
O11    O     0.01184   0.67611   0.74359   0.01267  Uiso   1.00
O12    O     0.59879   0.82668   0.24375   0.01267  Uiso   1.00
O13    O     0.62832   0.88567   0.19065   0.01267  Uiso   1.00
O14    O     0.89358   0.39112   0.23802   0.01267  Uiso   1.00
O15    O     0.91605   0.37267   0.17679   0.01267  Uiso   1.00
O16    O     0.00954   0.71466   0.86218   0.01267  Uiso   1.00
O17    O     0.94221   0.78234   0.84538   0.01267  Uiso   1.00
O18    O     0.03125   0.78800   0.76996   0.01267  Uiso   1.00
O19    O     0.70415   0.50742   0.79960   0.01267  Uiso   1.00
O20    O     0.67611   0.56846   0.74359   0.01267  Uiso   1.00
O21    O     0.82668   0.33078   0.24375   0.01267  Uiso   1.00
O22    O     0.88567   0.29536   0.19065   0.01267  Uiso   1.00
O23    O     0.39112   0.47728   0.23802   0.01267  Uiso   1.00
O24    O     0.37267   0.53449   0.17679   0.01267  Uiso   1.00
O25    O     0.71466   0.41362   0.86218   0.01267  Uiso   1.00
O26    O     0.78234   0.43007   0.84538   0.01267  Uiso   1.00
O27    O     0.78800   0.41079   0.76996   0.01267  Uiso   1.00
O28    O     0.99258   0.79585   0.70040   0.01267  Uiso   1.00
O29    O     0.93154   0.82389   0.75641   0.01267  Uiso   1.00
O30    O     0.16922   0.67332   0.25625   0.01267  Uiso   1.00
O31    O     0.20464   0.61433   0.30935   0.01267  Uiso   1.00
O32    O     0.02272   0.10888   0.26198   0.01267  Uiso   1.00
O33    O     0.96551   0.12733   0.32321   0.01267  Uiso   1.00
O34    O     0.08638   0.78534   0.63782   0.01267  Uiso   1.00
O35    O     0.06993   0.71766   0.65462   0.01267  Uiso   1.00
O36    O     0.08921   0.71200   0.73004   0.01267  Uiso   1.00
O37    O     0.51117   0.99258   0.70040   0.01267  Uiso   1.00
O38    O     0.48816   0.93154   0.75641   0.01267  Uiso   1.00
O39    O     0.90121   0.16922   0.25625   0.01267  Uiso   1.00
O40    O     0.87168   0.20464   0.30935   0.01267  Uiso   1.00
O41    O     0.60642   0.02272   0.26198   0.01267  Uiso   1.00
O42    O     0.58395   0.96551   0.32321   0.01267  Uiso   1.00
O43    O     0.49046   0.08638   0.63782   0.01267  Uiso   1.00
O44    O     0.55779   0.06993   0.65462   0.01267  Uiso   1.00
O45    O     0.46875   0.08921   0.73004   0.01267  Uiso   1.00
O46    O     0.79585   0.51117   0.70040   0.01267  Uiso   1.00
O47    O     0.82389   0.48816   0.75641   0.01267  Uiso   1.00
O48    O     0.67332   0.90121   0.25625   0.01267  Uiso   1.00
O49    O     0.61433   0.87168   0.30935   0.01267  Uiso   1.00
O50    O     0.10888   0.60642   0.26198   0.01267  Uiso   1.00
O51    O     0.12733   0.58395   0.32321   0.01267  Uiso   1.00
O52    O     0.78534   0.49046   0.63782   0.01267  Uiso   1.00
O53    O     0.71766   0.55779   0.65462   0.01267  Uiso   1.00
O54    O     0.71200   0.46875   0.73004   0.01267  Uiso   1.00
O55    O     0.49258   0.01117   0.20040   0.01267  Uiso   1.00
O56    O     0.43154   0.98816   0.25641   0.01267  Uiso   1.00
O57    O     0.66922   0.40121   0.75625   0.01267  Uiso   1.00
O58    O     0.70464   0.37168   0.80935   0.01267  Uiso   1.00
O59    O     0.52272   0.10642   0.76198   0.01267  Uiso   1.00
O60    O     0.46551   0.08395   0.82321   0.01267  Uiso   1.00
O61    O     0.58638   0.99046   0.13782   0.01267  Uiso   1.00
O62    O     0.56993   0.05779   0.15462   0.01267  Uiso   1.00
O63    O     0.58921   0.96875   0.23004   0.01267  Uiso   1.00
O64    O     0.01117   0.29585   0.20040   0.01267  Uiso   1.00
O65    O     0.98816   0.32389   0.25641   0.01267  Uiso   1.00
O66    O     0.40121   0.17332   0.75625   0.01267  Uiso   1.00
O67    O     0.37168   0.11433   0.80935   0.01267  Uiso   1.00
O68    O     0.10642   0.60888   0.76198   0.01267  Uiso   1.00
O69    O     0.08395   0.62733   0.82321   0.01267  Uiso   1.00
O70    O     0.99046   0.28534   0.13782   0.01267  Uiso   1.00
O71    O     0.05779   0.21766   0.15462   0.01267  Uiso   1.00
O72    O     0.96875   0.21200   0.23004   0.01267  Uiso   1.00
O73    O     0.29585   0.49258   0.20040   0.01267  Uiso   1.00
O74    O     0.32389   0.43154   0.25641   0.01267  Uiso   1.00
O75    O     0.17332   0.66922   0.75625   0.01267  Uiso   1.00
O76    O     0.11433   0.70464   0.80935   0.01267  Uiso   1.00
O77    O     0.60888   0.52272   0.76198   0.01267  Uiso   1.00
O78    O     0.62733   0.46551   0.82321   0.01267  Uiso   1.00
O79    O     0.28534   0.58638   0.13782   0.01267  Uiso   1.00
O80    O     0.21766   0.56993   0.15462   0.01267  Uiso   1.00
O81    O     0.21200   0.58921   0.23004   0.01267  Uiso   1.00
O82    O     0.00742   0.20415   0.29960   0.01267  Uiso   1.00
O83    O     0.06846   0.17611   0.24359   0.01267  Uiso   1.00
O84    O     0.83078   0.32668   0.74375   0.01267  Uiso   1.00
O85    O     0.79536   0.38567   0.69065   0.01267  Uiso   1.00
O86    O     0.97728   0.89112   0.73802   0.01267  Uiso   1.00
O87    O     0.03449   0.87267   0.67679   0.01267  Uiso   1.00
O88    O     0.91362   0.21466   0.36218   0.01267  Uiso   1.00
O89    O     0.93007   0.28234   0.34538   0.01267  Uiso   1.00
O90    O     0.91079   0.28800   0.26996   0.01267  Uiso   1.00
O91    O     0.48883   0.00742   0.29960   0.01267  Uiso   1.00
O92    O     0.51184   0.06846   0.24359   0.01267  Uiso   1.00
O93    O     0.09879   0.83078   0.74375   0.01267  Uiso   1.00
O94    O     0.12832   0.79536   0.69065   0.01267  Uiso   1.00
O95    O     0.39358   0.97728   0.73802   0.01267  Uiso   1.00
O96    O     0.41605   0.03449   0.67679   0.01267  Uiso   1.00
O97    O     0.50954   0.91362   0.36218   0.01267  Uiso   1.00
O98    O     0.44221   0.93007   0.34538   0.01267  Uiso   1.00
O99    O     0.53125   0.91079   0.26996   0.01267  Uiso   1.00
O100   O     0.20415   0.48883   0.29960   0.01267  Uiso   1.00
O101   O     0.17611   0.51184   0.24359   0.01267  Uiso   1.00
O102   O     0.32668   0.09879   0.74375   0.01267  Uiso   1.00
O103   O     0.38567   0.12832   0.69065   0.01267  Uiso   1.00
O104   O     0.89112   0.39358   0.73802   0.01267  Uiso   1.00
O105   O     0.87267   0.41605   0.67679   0.01267  Uiso   1.00
O106   O     0.21466   0.50954   0.36218   0.01267  Uiso   1.00
O107   O     0.28234   0.44221   0.34538   0.01267  Uiso   1.00
O108   O     0.28800   0.53125   0.26996   0.01267  Uiso   1.00
