data_WEBZEK_charged
_audit_creation_date              2014-07-02
_audit_creation_method            'Materials Studio'
_symmetry_space_group_name_H-M    'P1'
_symmetry_Int_Tables_number       1
_symmetry_cell_setting            triclinic
loop_
_symmetry_equiv_pos_as_xyz
  x,y,z
_cell_length_a                    22.1800
_cell_length_b                    22.1800
_cell_length_c                    26.8823
_cell_angle_alpha                 114.3640
_cell_angle_beta                  114.3640
_cell_angle_gamma                 90.0001
loop_
_atom_site_label
_atom_site_type_symbol
_atom_site_fract_x
_atom_site_fract_y
_atom_site_fract_z
_atom_site_U_iso_or_equiv
_atom_site_adp_type
_atom_site_occupancy
Cd1    Cd    0.44336   0.94547   0.14983   0.01267  Uiso   1.00
Cd2    Cd    0.70647   0.20436   0.14983   0.01267  Uiso   1.00
Cd3    Cd    0.05453   0.29353   0.85017   0.01267  Uiso   1.00
Cd4    Cd    0.79564   0.55664   0.85017   0.01267  Uiso   1.00
Cd5    Cd    0.54353   0.80453   0.35017   0.01267  Uiso   1.00
Cd6    Cd    0.80664   0.54564   0.35017   0.01267  Uiso   1.00
Cd7    Cd    0.45436   0.45647   0.64983   0.01267  Uiso   1.00
Cd8    Cd    0.19547   0.19336   0.64983   0.01267  Uiso   1.00
Cd9    Cd    0.49285   0.87500   0.25000   0.01267  Uiso   1.00
Cd10   Cd    0.75715   0.37500   0.25000   0.01267  Uiso   1.00
Cd11   Cd    0.12500   0.24285   0.75000   0.01267  Uiso   1.00
Cd12   Cd    0.62500   0.50715   0.75000   0.01267  Uiso   1.00
H1     H     0.63170   0.12520   0.33780   0.01267  Uiso   1.00
H2     H     0.73810   0.16670   0.42160   0.01267  Uiso   1.00
H3     H     0.65950   0.93520   0.30000   0.01267  Uiso   1.00
H4     H     0.87570   0.12210   0.41480   0.01267  Uiso   1.00
H5     H     0.98580   0.16120   0.49460   0.01267  Uiso   1.00
H6     H     0.92300   0.13300   0.60320   0.01267  Uiso   1.00
H7     H     0.76170   0.88480   0.41360   0.01267  Uiso   1.00
H8     H     0.74850   0.86310   0.34600   0.01267  Uiso   1.00
H9     H     0.69530   0.89460   0.36780   0.01267  Uiso   1.00
H10    H     0.84920   0.10660   0.61960   0.01267  Uiso   1.00
H11    H     0.85790   0.03590   0.57860   0.01267  Uiso   1.00
H12    H     0.78950   0.04380   0.58260   0.01267  Uiso   1.00
H13    H     0.33380   0.81410   0.19400   0.01267  Uiso   1.00
H14    H     0.20100   0.62900   0.16360   0.01267  Uiso   1.00
H15    H     0.31750   0.66160   0.23640   0.01267  Uiso   1.00
H16    H     0.10120   0.75730   0.11160   0.01267  Uiso   1.00
H17    H     0.98950   0.72530   0.03620   0.01267  Uiso   1.00
H18    H     0.02460   0.53620   0.96160   0.01267  Uiso   1.00
H19    H     0.25670   0.87330   0.14520   0.01267  Uiso   1.00
H20    H     0.23140   0.84230   0.07420   0.01267  Uiso   1.00
H21    H     0.29640   0.82510   0.11480   0.01267  Uiso   1.00
H22    H     0.12510   0.46660   0.03200   0.01267  Uiso   1.00
H23    H     0.16450   0.46330   0.99440   0.01267  Uiso   1.00
H24    H     0.08810   0.46810   0.96880   0.01267  Uiso   1.00
H25    H     0.70610   0.21260   0.33780   0.01267  Uiso   1.00
H26    H     0.68350   0.25490   0.42160   0.01267  Uiso   1.00
H27    H     0.64050   0.36480   0.30000   0.01267  Uiso   1.00
H28    H     0.53910   0.29270   0.41480   0.01267  Uiso   1.00
H29    H     0.50880   0.33340   0.49460   0.01267  Uiso   1.00
H30    H     0.68020   0.47020   0.60320   0.01267  Uiso   1.00
H31    H     0.65190   0.52880   0.41360   0.01267  Uiso   1.00
H32    H     0.59750   0.48290   0.34600   0.01267  Uiso   1.00
H33    H     0.67250   0.47320   0.36780   0.01267  Uiso   1.00
H34    H     0.77040   0.51300   0.61960   0.01267  Uiso   1.00
H35    H     0.72070   0.54270   0.57860   0.01267  Uiso   1.00
H36    H     0.79310   0.53880   0.58260   0.01267  Uiso   1.00
H37    H     0.86020   0.37990   0.19400   0.01267  Uiso   1.00
H38    H     0.96260   0.53460   0.16360   0.01267  Uiso   1.00
H39    H     0.91890   0.57480   0.23640   0.01267  Uiso   1.00
H40    H     0.01040   0.35430   0.11160   0.01267  Uiso   1.00
H41    H     0.04670   0.31090   0.03620   0.01267  Uiso   1.00
H42    H     0.93700   0.42540   0.96160   0.01267  Uiso   1.00
H43    H     0.88850   0.27190   0.14520   0.01267  Uiso   1.00
H44    H     0.84280   0.23190   0.07420   0.01267  Uiso   1.00
H45    H     0.81840   0.28970   0.11480   0.01267  Uiso   1.00
H46    H     0.90690   0.56540   0.03200   0.01267  Uiso   1.00
H47    H     0.82990   0.53110   0.99440   0.01267  Uiso   1.00
H48    H     0.88070   0.50070   0.96880   0.01267  Uiso   1.00
H49    H     0.87480   0.29390   0.66220   0.01267  Uiso   1.00
H50    H     0.83330   0.31650   0.57840   0.01267  Uiso   1.00
H51    H     0.06480   0.35950   0.70000   0.01267  Uiso   1.00
H52    H     0.87790   0.46090   0.58520   0.01267  Uiso   1.00
H53    H     0.83880   0.49120   0.50540   0.01267  Uiso   1.00
H54    H     0.86700   0.31980   0.39680   0.01267  Uiso   1.00
H55    H     0.11520   0.34810   0.58640   0.01267  Uiso   1.00
H56    H     0.13690   0.40250   0.65400   0.01267  Uiso   1.00
H57    H     0.10540   0.32750   0.63220   0.01267  Uiso   1.00
H58    H     0.89340   0.22960   0.38040   0.01267  Uiso   1.00
H59    H     0.96410   0.27930   0.42140   0.01267  Uiso   1.00
H60    H     0.95620   0.20690   0.41740   0.01267  Uiso   1.00
H61    H     0.18590   0.13980   0.80600   0.01267  Uiso   1.00
H62    H     0.37100   0.03740   0.83640   0.01267  Uiso   1.00
H63    H     0.33840   0.08110   0.76360   0.01267  Uiso   1.00
H64    H     0.24270   0.98960   0.88840   0.01267  Uiso   1.00
H65    H     0.27470   0.95330   0.96380   0.01267  Uiso   1.00
H66    H     0.46380   0.06300   0.03840   0.01267  Uiso   1.00
H67    H     0.12670   0.11150   0.85480   0.01267  Uiso   1.00
H68    H     0.15770   0.15720   0.92580   0.01267  Uiso   1.00
H69    H     0.17490   0.18160   0.88520   0.01267  Uiso   1.00
H70    H     0.53340   0.09310   0.96800   0.01267  Uiso   1.00
H71    H     0.53670   0.17010   0.00560   0.01267  Uiso   1.00
H72    H     0.53190   0.11930   0.03120   0.01267  Uiso   1.00
H73    H     0.78740   0.36830   0.66220   0.01267  Uiso   1.00
H74    H     0.74510   0.26190   0.57840   0.01267  Uiso   1.00
H75    H     0.63520   0.34050   0.70000   0.01267  Uiso   1.00
H76    H     0.70730   0.12430   0.58520   0.01267  Uiso   1.00
H77    H     0.66660   0.01420   0.50540   0.01267  Uiso   1.00
H78    H     0.52980   0.07700   0.39680   0.01267  Uiso   1.00
H79    H     0.47120   0.23830   0.58640   0.01267  Uiso   1.00
H80    H     0.51710   0.25150   0.65400   0.01267  Uiso   1.00
H81    H     0.52680   0.30470   0.63220   0.01267  Uiso   1.00
H82    H     0.48700   0.15080   0.38040   0.01267  Uiso   1.00
H83    H     0.45730   0.14210   0.42140   0.01267  Uiso   1.00
H84    H     0.46120   0.21050   0.41740   0.01267  Uiso   1.00
H85    H     0.62010   0.66620   0.80600   0.01267  Uiso   1.00
H86    H     0.46540   0.79900   0.83640   0.01267  Uiso   1.00
H87    H     0.42520   0.68250   0.76360   0.01267  Uiso   1.00
H88    H     0.64570   0.89880   0.88840   0.01267  Uiso   1.00
H89    H     0.68910   0.01050   0.96380   0.01267  Uiso   1.00
H90    H     0.57460   0.97540   0.03840   0.01267  Uiso   1.00
H91    H     0.72810   0.74330   0.85480   0.01267  Uiso   1.00
H92    H     0.76810   0.76860   0.92580   0.01267  Uiso   1.00
H93    H     0.71030   0.70360   0.88520   0.01267  Uiso   1.00
H94    H     0.43460   0.87490   0.96800   0.01267  Uiso   1.00
H95    H     0.46890   0.83550   0.00560   0.01267  Uiso   1.00
H96    H     0.49930   0.91190   0.03120   0.01267  Uiso   1.00
H97    H     0.54390   0.62480   0.16220   0.01267  Uiso   1.00
H98    H     0.56650   0.58330   0.07840   0.01267  Uiso   1.00
H99    H     0.60950   0.81480   0.20000   0.01267  Uiso   1.00
H100   H     0.71090   0.62790   0.08520   0.01267  Uiso   1.00
H101   H     0.74120   0.58880   0.00540   0.01267  Uiso   1.00
H102   H     0.56980   0.61700   0.89680   0.01267  Uiso   1.00
H103   H     0.59810   0.86520   0.08640   0.01267  Uiso   1.00
H104   H     0.65250   0.88690   0.15400   0.01267  Uiso   1.00
H105   H     0.57750   0.85540   0.13220   0.01267  Uiso   1.00
H106   H     0.47960   0.64340   0.88040   0.01267  Uiso   1.00
H107   H     0.52930   0.71410   0.92140   0.01267  Uiso   1.00
H108   H     0.45690   0.70620   0.91740   0.01267  Uiso   1.00
H109   H     0.38980   0.93590   0.30600   0.01267  Uiso   1.00
H110   H     0.28740   0.12100   0.33640   0.01267  Uiso   1.00
H111   H     0.33110   0.08840   0.26360   0.01267  Uiso   1.00
H112   H     0.23960   0.99270   0.38840   0.01267  Uiso   1.00
H113   H     0.20330   0.02470   0.46380   0.01267  Uiso   1.00
H114   H     0.31300   0.21380   0.53840   0.01267  Uiso   1.00
H115   H     0.36150   0.87670   0.35480   0.01267  Uiso   1.00
H116   H     0.40720   0.90770   0.42580   0.01267  Uiso   1.00
H117   H     0.43160   0.92490   0.38520   0.01267  Uiso   1.00
H118   H     0.34310   0.28340   0.46800   0.01267  Uiso   1.00
H119   H     0.42010   0.28670   0.50560   0.01267  Uiso   1.00
H120   H     0.36930   0.28190   0.53120   0.01267  Uiso   1.00
H121   H     0.61830   0.53740   0.16220   0.01267  Uiso   1.00
H122   H     0.51190   0.49510   0.07840   0.01267  Uiso   1.00
H123   H     0.59050   0.38520   0.20000   0.01267  Uiso   1.00
H124   H     0.37430   0.45730   0.08520   0.01267  Uiso   1.00
H125   H     0.26420   0.41660   0.00540   0.01267  Uiso   1.00
H126   H     0.32700   0.27980   0.89680   0.01267  Uiso   1.00
H127   H     0.48830   0.22120   0.08640   0.01267  Uiso   1.00
H128   H     0.50150   0.26710   0.15400   0.01267  Uiso   1.00
H129   H     0.55470   0.27680   0.13220   0.01267  Uiso   1.00
H130   H     0.40080   0.23700   0.88040   0.01267  Uiso   1.00
H131   H     0.39210   0.20730   0.92140   0.01267  Uiso   1.00
H132   H     0.46050   0.21120   0.91740   0.01267  Uiso   1.00
H133   H     0.91620   0.37010   0.30600   0.01267  Uiso   1.00
H134   H     0.04900   0.21540   0.33640   0.01267  Uiso   1.00
H135   H     0.93250   0.17520   0.26360   0.01267  Uiso   1.00
H136   H     0.14880   0.39570   0.38840   0.01267  Uiso   1.00
H137   H     0.26050   0.43910   0.46380   0.01267  Uiso   1.00
H138   H     0.22540   0.32460   0.53840   0.01267  Uiso   1.00
H139   H     0.99330   0.47810   0.35480   0.01267  Uiso   1.00
H140   H     0.01860   0.51810   0.42580   0.01267  Uiso   1.00
H141   H     0.95360   0.46030   0.38520   0.01267  Uiso   1.00
H142   H     0.12490   0.18460   0.46800   0.01267  Uiso   1.00
H143   H     0.08550   0.21890   0.50560   0.01267  Uiso   1.00
H144   H     0.16190   0.24930   0.53120   0.01267  Uiso   1.00
H145   H     0.46260   0.45610   0.83780   0.01267  Uiso   1.00
H146   H     0.50490   0.43350   0.92160   0.01267  Uiso   1.00
H147   H     0.61480   0.39050   0.80000   0.01267  Uiso   1.00
H148   H     0.54270   0.28910   0.91480   0.01267  Uiso   1.00
H149   H     0.58340   0.25880   0.99460   0.01267  Uiso   1.00
H150   H     0.72020   0.43020   0.10320   0.01267  Uiso   1.00
H151   H     0.77880   0.40190   0.91360   0.01267  Uiso   1.00
H152   H     0.73290   0.34750   0.84600   0.01267  Uiso   1.00
H153   H     0.72320   0.42250   0.86780   0.01267  Uiso   1.00
H154   H     0.76300   0.52040   0.11960   0.01267  Uiso   1.00
H155   H     0.79270   0.47070   0.07860   0.01267  Uiso   1.00
H156   H     0.78880   0.54310   0.08260   0.01267  Uiso   1.00
H157   H     0.62990   0.61020   0.69400   0.01267  Uiso   1.00
H158   H     0.78460   0.71260   0.66360   0.01267  Uiso   1.00
H159   H     0.82480   0.66890   0.73640   0.01267  Uiso   1.00
H160   H     0.60430   0.76040   0.61160   0.01267  Uiso   1.00
H161   H     0.56090   0.79670   0.53620   0.01267  Uiso   1.00
H162   H     0.67540   0.68700   0.46160   0.01267  Uiso   1.00
H163   H     0.52190   0.63850   0.64520   0.01267  Uiso   1.00
H164   H     0.48190   0.59280   0.57420   0.01267  Uiso   1.00
H165   H     0.53970   0.56840   0.61480   0.01267  Uiso   1.00
H166   H     0.81540   0.65690   0.53200   0.01267  Uiso   1.00
H167   H     0.78110   0.57990   0.49440   0.01267  Uiso   1.00
H168   H     0.75070   0.63070   0.46880   0.01267  Uiso   1.00
H169   H     0.37520   0.38170   0.83780   0.01267  Uiso   1.00
H170   H     0.41670   0.48810   0.92160   0.01267  Uiso   1.00
H171   H     0.18520   0.40950   0.80000   0.01267  Uiso   1.00
H172   H     0.37210   0.62570   0.91480   0.01267  Uiso   1.00
H173   H     0.41120   0.73580   0.99460   0.01267  Uiso   1.00
H174   H     0.38300   0.67300   0.10320   0.01267  Uiso   1.00
H175   H     0.13480   0.51170   0.91360   0.01267  Uiso   1.00
H176   H     0.11310   0.49850   0.84600   0.01267  Uiso   1.00
H177   H     0.14460   0.44530   0.86780   0.01267  Uiso   1.00
H178   H     0.35660   0.59920   0.11960   0.01267  Uiso   1.00
H179   H     0.28590   0.60790   0.07860   0.01267  Uiso   1.00
H180   H     0.29380   0.53950   0.08260   0.01267  Uiso   1.00
H181   H     0.06410   0.08380   0.69400   0.01267  Uiso   1.00
H182   H     0.87900   0.95100   0.66360   0.01267  Uiso   1.00
H183   H     0.91160   0.06750   0.73640   0.01267  Uiso   1.00
H184   H     0.00730   0.85120   0.61160   0.01267  Uiso   1.00
H185   H     0.97530   0.73950   0.53620   0.01267  Uiso   1.00
H186   H     0.78620   0.77460   0.46160   0.01267  Uiso   1.00
H187   H     0.12330   0.00670   0.64520   0.01267  Uiso   1.00
H188   H     0.09230   0.98140   0.57420   0.01267  Uiso   1.00
H189   H     0.07510   0.04640   0.61480   0.01267  Uiso   1.00
H190   H     0.71660   0.87510   0.53200   0.01267  Uiso   1.00
H191   H     0.71330   0.91450   0.49440   0.01267  Uiso   1.00
H192   H     0.71810   0.83810   0.46880   0.01267  Uiso   1.00
C1     C     0.57035   0.99535   0.25330   0.01267  Uiso   1.00
C2     C     0.63512   0.02612   0.31064   0.01267  Uiso   1.00
C3     C     0.65862   0.09542   0.34704   0.01267  Uiso   1.00
C4     C     0.72229   0.12029   0.39718   0.01267  Uiso   1.00
C5     C     0.76247   0.07577   0.41094   0.01267  Uiso   1.00
C6     C     0.73887   0.00647   0.37454   0.01267  Uiso   1.00
C7     C     0.67520   0.98160   0.32440   0.01267  Uiso   1.00
C8     C     0.83349   0.10309   0.46198   0.01267  Uiso   1.00
C9     C     0.88469   0.12389   0.45238   0.01267  Uiso   1.00
C10    C     0.95081   0.14801   0.50082   0.01267  Uiso   1.00
C11    C     0.96466   0.15246   0.55732   0.01267  Uiso   1.00
C12    C     0.91354   0.13074   0.56528   0.01267  Uiso   1.00
C13    C     0.84731   0.10501   0.51842   0.01267  Uiso   1.00
C14    C     0.03488   0.17278   0.60716   0.01267  Uiso   1.00
C15    C     0.74269   0.89559   0.37978   0.01267  Uiso   1.00
C16    C     0.82670   0.06550   0.58220   0.01267  Uiso   1.00
C17    C     0.40770   0.76700   0.27140   0.01267  Uiso   1.00
C18    C     0.33619   0.73759   0.22158   0.01267  Uiso   1.00
C19    C     0.30931   0.77421   0.18582   0.01267  Uiso   1.00
C20    C     0.24452   0.74542   0.13884   0.01267  Uiso   1.00
C21    C     0.20305   0.69425   0.12810   0.01267  Uiso   1.00
C22    C     0.22917   0.66327   0.16734   0.01267  Uiso   1.00
C23    C     0.29914   0.68464   0.21328   0.01267  Uiso   1.00
C24    C     0.13064   0.66994   0.08048   0.01267  Uiso   1.00
C25    C     0.08554   0.71314   0.08048   0.01267  Uiso   1.00
C26    C     0.01770   0.69430   0.03620   0.01267  Uiso   1.00
C27    C     0.99441   0.62661   0.99202   0.01267  Uiso   1.00
C28    C     0.03896   0.58106   0.99152   0.01267  Uiso   1.00
C29    C     0.10371   0.60551   0.03642   0.01267  Uiso   1.00
C30    C     0.92507   0.60207   0.94214   0.01267  Uiso   1.00
C31    C     0.25242   0.83422   0.10944   0.01267  Uiso   1.00
C32    C     0.13009   0.48219   0.00518   0.01267  Uiso   1.00
C33    C     0.68295   0.25795   0.25330   0.01267  Uiso   1.00
C34    C     0.67552   0.28452   0.31064   0.01267  Uiso   1.00
C35    C     0.68842   0.25162   0.34704   0.01267  Uiso   1.00
C36    C     0.67489   0.27689   0.39718   0.01267  Uiso   1.00
C37    C     0.64847   0.33517   0.41094   0.01267  Uiso   1.00
C38    C     0.63567   0.36807   0.37454   0.01267  Uiso   1.00
C39    C     0.64920   0.34280   0.32440   0.01267  Uiso   1.00
C40    C     0.62849   0.35889   0.46198   0.01267  Uiso   1.00
C41    C     0.56769   0.32849   0.45238   0.01267  Uiso   1.00
C42    C     0.55001   0.35281   0.50082   0.01267  Uiso   1.00
C43    C     0.59266   0.40486   0.55732   0.01267  Uiso   1.00
C44    C     0.65174   0.43454   0.56528   0.01267  Uiso   1.00
C45    C     0.67111   0.41341   0.51842   0.01267  Uiso   1.00
C46    C     0.57228   0.43438   0.60716   0.01267  Uiso   1.00
C47    C     0.63709   0.48419   0.37978   0.01267  Uiso   1.00
C48    C     0.75550   0.51670   0.58220   0.01267  Uiso   1.00
C49    C     0.86370   0.50440   0.27140   0.01267  Uiso   1.00
C50    C     0.88539   0.48399   0.22158   0.01267  Uiso   1.00
C51    C     0.87651   0.41161   0.18582   0.01267  Uiso   1.00
C52    C     0.89432   0.39342   0.13884   0.01267  Uiso   1.00
C53    C     0.92505   0.43385   0.12810   0.01267  Uiso   1.00
C54    C     0.93817   0.50407   0.16734   0.01267  Uiso   1.00
C55    C     0.91414   0.52864   0.21328   0.01267  Uiso   1.00
C56    C     0.94984   0.41054   0.08048   0.01267  Uiso   1.00
C57    C     0.99494   0.36734   0.08048   0.01267  Uiso   1.00
C58    C     0.01850   0.34190   0.03620   0.01267  Uiso   1.00
C59    C     0.99761   0.36541   0.99202   0.01267  Uiso   1.00
C60    C     0.95256   0.41046   0.99152   0.01267  Uiso   1.00
C61    C     0.93271   0.43091   0.03642   0.01267  Uiso   1.00
C62    C     0.01707   0.34007   0.94214   0.01267  Uiso   1.00
C63    C     0.85702   0.27522   0.10944   0.01267  Uiso   1.00
C64    C     0.87509   0.52299   0.00518   0.01267  Uiso   1.00
C65    C     0.00465   0.31705   0.74670   0.01267  Uiso   1.00
C66    C     0.97388   0.32448   0.68936   0.01267  Uiso   1.00
C67    C     0.90458   0.31158   0.65296   0.01267  Uiso   1.00
C68    C     0.87971   0.32511   0.60282   0.01267  Uiso   1.00
C69    C     0.92423   0.35153   0.58906   0.01267  Uiso   1.00
C70    C     0.99353   0.36433   0.62546   0.01267  Uiso   1.00
C71    C     0.01840   0.35080   0.67560   0.01267  Uiso   1.00
C72    C     0.89691   0.37151   0.53802   0.01267  Uiso   1.00
C73    C     0.87611   0.43231   0.54762   0.01267  Uiso   1.00
C74    C     0.85199   0.44999   0.49918   0.01267  Uiso   1.00
C75    C     0.84754   0.40734   0.44268   0.01267  Uiso   1.00
C76    C     0.86926   0.34826   0.43472   0.01267  Uiso   1.00
C77    C     0.89499   0.32889   0.48158   0.01267  Uiso   1.00
C78    C     0.82722   0.42772   0.39284   0.01267  Uiso   1.00
C79    C     0.10441   0.36291   0.62022   0.01267  Uiso   1.00
C80    C     0.93450   0.24450   0.41780   0.01267  Uiso   1.00
C81    C     0.23300   0.13630   0.72860   0.01267  Uiso   1.00
C82    C     0.26241   0.11461   0.77842   0.01267  Uiso   1.00
C83    C     0.22579   0.12349   0.81418   0.01267  Uiso   1.00
C84    C     0.25458   0.10568   0.86116   0.01267  Uiso   1.00
C85    C     0.30575   0.07495   0.87190   0.01267  Uiso   1.00
C86    C     0.33673   0.06183   0.83266   0.01267  Uiso   1.00
C87    C     0.31536   0.08586   0.78672   0.01267  Uiso   1.00
C88    C     0.33006   0.05016   0.91952   0.01267  Uiso   1.00
C89    C     0.28686   0.00506   0.91952   0.01267  Uiso   1.00
C90    C     0.30570   0.98150   0.96380   0.01267  Uiso   1.00
C91    C     0.37339   0.00239   0.00798   0.01267  Uiso   1.00
C92    C     0.41894   0.04744   0.00848   0.01267  Uiso   1.00
C93    C     0.39449   0.06729   0.96358   0.01267  Uiso   1.00
C94    C     0.39793   0.98293   0.05786   0.01267  Uiso   1.00
C95    C     0.16578   0.14298   0.89056   0.01267  Uiso   1.00
C96    C     0.51781   0.12491   0.99482   0.01267  Uiso   1.00
C97    C     0.74205   0.42965   0.74670   0.01267  Uiso   1.00
C98    C     0.71548   0.36488   0.68936   0.01267  Uiso   1.00
C99    C     0.74838   0.34138   0.65296   0.01267  Uiso   1.00
C100   C     0.72311   0.27771   0.60282   0.01267  Uiso   1.00
C101   C     0.66483   0.23753   0.58906   0.01267  Uiso   1.00
C102   C     0.63193   0.26113   0.62546   0.01267  Uiso   1.00
C103   C     0.65720   0.32480   0.67560   0.01267  Uiso   1.00
C104   C     0.64111   0.16651   0.53802   0.01267  Uiso   1.00
C105   C     0.67151   0.11531   0.54762   0.01267  Uiso   1.00
C106   C     0.64719   0.04919   0.49918   0.01267  Uiso   1.00
C107   C     0.59514   0.03534   0.44268   0.01267  Uiso   1.00
C108   C     0.56546   0.08646   0.43472   0.01267  Uiso   1.00
C109   C     0.58659   0.15269   0.48158   0.01267  Uiso   1.00
C110   C     0.56562   0.96512   0.39284   0.01267  Uiso   1.00
C111   C     0.51581   0.25731   0.62022   0.01267  Uiso   1.00
C112   C     0.48330   0.17330   0.41780   0.01267  Uiso   1.00
C113   C     0.49560   0.59230   0.72860   0.01267  Uiso   1.00
C114   C     0.51601   0.66381   0.77842   0.01267  Uiso   1.00
C115   C     0.58839   0.69069   0.81418   0.01267  Uiso   1.00
C116   C     0.60658   0.75548   0.86116   0.01267  Uiso   1.00
C117   C     0.56615   0.79695   0.87190   0.01267  Uiso   1.00
C118   C     0.49593   0.77083   0.83266   0.01267  Uiso   1.00
C119   C     0.47136   0.70086   0.78672   0.01267  Uiso   1.00
C120   C     0.58946   0.86936   0.91952   0.01267  Uiso   1.00
C121   C     0.63266   0.91446   0.91952   0.01267  Uiso   1.00
C122   C     0.65810   0.98230   0.96380   0.01267  Uiso   1.00
C123   C     0.63459   0.00559   0.00798   0.01267  Uiso   1.00
C124   C     0.58954   0.96104   0.00848   0.01267  Uiso   1.00
C125   C     0.56909   0.89629   0.96358   0.01267  Uiso   1.00
C126   C     0.65993   0.07493   0.05786   0.01267  Uiso   1.00
C127   C     0.72478   0.74758   0.89056   0.01267  Uiso   1.00
C128   C     0.47701   0.86991   0.99482   0.01267  Uiso   1.00
C129   C     0.56705   0.75465   0.24670   0.01267  Uiso   1.00
C130   C     0.57448   0.72388   0.18936   0.01267  Uiso   1.00
C131   C     0.56158   0.65458   0.15296   0.01267  Uiso   1.00
C132   C     0.57511   0.62971   0.10282   0.01267  Uiso   1.00
C133   C     0.60153   0.67423   0.08906   0.01267  Uiso   1.00
C134   C     0.61433   0.74353   0.12546   0.01267  Uiso   1.00
C135   C     0.60080   0.76840   0.17560   0.01267  Uiso   1.00
C136   C     0.62151   0.64691   0.03802   0.01267  Uiso   1.00
C137   C     0.68231   0.62611   0.04762   0.01267  Uiso   1.00
C138   C     0.69999   0.60199   0.99918   0.01267  Uiso   1.00
C139   C     0.65734   0.59754   0.94268   0.01267  Uiso   1.00
C140   C     0.59826   0.61926   0.93472   0.01267  Uiso   1.00
C141   C     0.57889   0.64499   0.98158   0.01267  Uiso   1.00
C142   C     0.67772   0.57722   0.89284   0.01267  Uiso   1.00
C143   C     0.61291   0.85441   0.12022   0.01267  Uiso   1.00
C144   C     0.49450   0.68450   0.91780   0.01267  Uiso   1.00
C145   C     0.38630   0.98300   0.22860   0.01267  Uiso   1.00
C146   C     0.36461   0.01241   0.27842   0.01267  Uiso   1.00
C147   C     0.37349   0.97579   0.31418   0.01267  Uiso   1.00
C148   C     0.35568   0.00458   0.36116   0.01267  Uiso   1.00
C149   C     0.32495   0.05575   0.37190   0.01267  Uiso   1.00
C150   C     0.31183   0.08673   0.33266   0.01267  Uiso   1.00
C151   C     0.33586   0.06536   0.28672   0.01267  Uiso   1.00
C152   C     0.30016   0.08006   0.41952   0.01267  Uiso   1.00
C153   C     0.25506   0.03686   0.41952   0.01267  Uiso   1.00
C154   C     0.23150   0.05570   0.46380   0.01267  Uiso   1.00
C155   C     0.25239   0.12339   0.50798   0.01267  Uiso   1.00
C156   C     0.29744   0.16894   0.50848   0.01267  Uiso   1.00
C157   C     0.31729   0.14449   0.46358   0.01267  Uiso   1.00
C158   C     0.23293   0.14793   0.55786   0.01267  Uiso   1.00
C159   C     0.39298   0.91578   0.39056   0.01267  Uiso   1.00
C160   C     0.37491   0.26781   0.49482   0.01267  Uiso   1.00
C161   C     0.67965   0.49205   0.24670   0.01267  Uiso   1.00
C162   C     0.61488   0.46548   0.18936   0.01267  Uiso   1.00
C163   C     0.59138   0.49838   0.15296   0.01267  Uiso   1.00
C164   C     0.52771   0.47311   0.10282   0.01267  Uiso   1.00
C165   C     0.48753   0.41483   0.08906   0.01267  Uiso   1.00
C166   C     0.51113   0.38193   0.12546   0.01267  Uiso   1.00
C167   C     0.57480   0.40720   0.17560   0.01267  Uiso   1.00
C168   C     0.41651   0.39111   0.03802   0.01267  Uiso   1.00
C169   C     0.36531   0.42151   0.04762   0.01267  Uiso   1.00
C170   C     0.29919   0.39719   0.99918   0.01267  Uiso   1.00
C171   C     0.28534   0.34514   0.94268   0.01267  Uiso   1.00
C172   C     0.33646   0.31546   0.93472   0.01267  Uiso   1.00
C173   C     0.40269   0.33659   0.98158   0.01267  Uiso   1.00
C174   C     0.21512   0.31562   0.89284   0.01267  Uiso   1.00
C175   C     0.50731   0.26581   0.12022   0.01267  Uiso   1.00
C176   C     0.42330   0.23330   0.91780   0.01267  Uiso   1.00
C177   C     0.84230   0.24560   0.22860   0.01267  Uiso   1.00
C178   C     0.91381   0.26601   0.27842   0.01267  Uiso   1.00
C179   C     0.94069   0.33839   0.31418   0.01267  Uiso   1.00
C180   C     0.00548   0.35658   0.36116   0.01267  Uiso   1.00
C181   C     0.04695   0.31615   0.37190   0.01267  Uiso   1.00
C182   C     0.02083   0.24593   0.33266   0.01267  Uiso   1.00
C183   C     0.95086   0.22136   0.28672   0.01267  Uiso   1.00
C184   C     0.11936   0.33946   0.41952   0.01267  Uiso   1.00
C185   C     0.16446   0.38266   0.41952   0.01267  Uiso   1.00
C186   C     0.23230   0.40810   0.46380   0.01267  Uiso   1.00
C187   C     0.25559   0.38459   0.50798   0.01267  Uiso   1.00
C188   C     0.21104   0.33954   0.50848   0.01267  Uiso   1.00
C189   C     0.14629   0.31909   0.46358   0.01267  Uiso   1.00
C190   C     0.32493   0.40993   0.55786   0.01267  Uiso   1.00
C191   C     0.99758   0.47478   0.39056   0.01267  Uiso   1.00
C192   C     0.11991   0.22701   0.49482   0.01267  Uiso   1.00
C193   C     0.50795   0.43295   0.75330   0.01267  Uiso   1.00
C194   C     0.53452   0.42552   0.81064   0.01267  Uiso   1.00
C195   C     0.50162   0.43842   0.84704   0.01267  Uiso   1.00
C196   C     0.52689   0.42489   0.89718   0.01267  Uiso   1.00
C197   C     0.58517   0.39847   0.91094   0.01267  Uiso   1.00
C198   C     0.61807   0.38567   0.87454   0.01267  Uiso   1.00
C199   C     0.59280   0.39920   0.82440   0.01267  Uiso   1.00
C200   C     0.60889   0.37849   0.96198   0.01267  Uiso   1.00
C201   C     0.57849   0.31769   0.95238   0.01267  Uiso   1.00
C202   C     0.60281   0.30001   0.00082   0.01267  Uiso   1.00
C203   C     0.65486   0.34266   0.05732   0.01267  Uiso   1.00
C204   C     0.68454   0.40174   0.06528   0.01267  Uiso   1.00
C205   C     0.66341   0.42111   0.01842   0.01267  Uiso   1.00
C206   C     0.68438   0.32228   0.10716   0.01267  Uiso   1.00
C207   C     0.73419   0.38709   0.87978   0.01267  Uiso   1.00
C208   C     0.76670   0.50550   0.08220   0.01267  Uiso   1.00
C209   C     0.75440   0.61370   0.77140   0.01267  Uiso   1.00
C210   C     0.73399   0.63539   0.72158   0.01267  Uiso   1.00
C211   C     0.66161   0.62651   0.68582   0.01267  Uiso   1.00
C212   C     0.64342   0.64432   0.63884   0.01267  Uiso   1.00
C213   C     0.68385   0.67505   0.62810   0.01267  Uiso   1.00
C214   C     0.75407   0.68817   0.66734   0.01267  Uiso   1.00
C215   C     0.77864   0.66414   0.71328   0.01267  Uiso   1.00
C216   C     0.66054   0.69984   0.58048   0.01267  Uiso   1.00
C217   C     0.61734   0.74494   0.58048   0.01267  Uiso   1.00
C218   C     0.59190   0.76850   0.53620   0.01267  Uiso   1.00
C219   C     0.61541   0.74761   0.49202   0.01267  Uiso   1.00
C220   C     0.66046   0.70256   0.49152   0.01267  Uiso   1.00
C221   C     0.68091   0.68271   0.53642   0.01267  Uiso   1.00
C222   C     0.59007   0.76707   0.44214   0.01267  Uiso   1.00
C223   C     0.52522   0.60702   0.60944   0.01267  Uiso   1.00
C224   C     0.77299   0.62509   0.50518   0.01267  Uiso   1.00
C225   C     0.24535   0.32035   0.75330   0.01267  Uiso   1.00
C226   C     0.27612   0.38512   0.81064   0.01267  Uiso   1.00
C227   C     0.34542   0.40862   0.84704   0.01267  Uiso   1.00
C228   C     0.37029   0.47229   0.89718   0.01267  Uiso   1.00
C229   C     0.32577   0.51247   0.91094   0.01267  Uiso   1.00
C230   C     0.25647   0.48887   0.87454   0.01267  Uiso   1.00
C231   C     0.23160   0.42520   0.82440   0.01267  Uiso   1.00
C232   C     0.35309   0.58349   0.96198   0.01267  Uiso   1.00
C233   C     0.37389   0.63469   0.95238   0.01267  Uiso   1.00
C234   C     0.39801   0.70081   0.00082   0.01267  Uiso   1.00
C235   C     0.40246   0.71466   0.05732   0.01267  Uiso   1.00
C236   C     0.38074   0.66354   0.06528   0.01267  Uiso   1.00
C237   C     0.35501   0.59731   0.01842   0.01267  Uiso   1.00
C238   C     0.42278   0.78488   0.10716   0.01267  Uiso   1.00
C239   C     0.14559   0.49269   0.87978   0.01267  Uiso   1.00
C240   C     0.31550   0.57670   0.08220   0.01267  Uiso   1.00
C241   C     0.01700   0.15770   0.77140   0.01267  Uiso   1.00
C242   C     0.98759   0.08619   0.72158   0.01267  Uiso   1.00
C243   C     0.02421   0.05931   0.68582   0.01267  Uiso   1.00
C244   C     0.99542   0.99452   0.63884   0.01267  Uiso   1.00
C245   C     0.94425   0.95305   0.62810   0.01267  Uiso   1.00
C246   C     0.91327   0.97917   0.66734   0.01267  Uiso   1.00
C247   C     0.93464   0.04914   0.71328   0.01267  Uiso   1.00
C248   C     0.91994   0.88064   0.58048   0.01267  Uiso   1.00
C249   C     0.96314   0.83554   0.58048   0.01267  Uiso   1.00
C250   C     0.94430   0.76770   0.53620   0.01267  Uiso   1.00
C251   C     0.87661   0.74441   0.49202   0.01267  Uiso   1.00
C252   C     0.83106   0.78896   0.49152   0.01267  Uiso   1.00
C253   C     0.85551   0.85371   0.53642   0.01267  Uiso   1.00
C254   C     0.85207   0.67507   0.44214   0.01267  Uiso   1.00
C255   C     0.08422   0.00242   0.60944   0.01267  Uiso   1.00
C256   C     0.73219   0.88009   0.50518   0.01267  Uiso   1.00
O1     O     0.53568   0.04046   0.23890   0.01267  Uiso   1.00
O2     O     0.54726   0.93541   0.22242   0.01267  Uiso   1.00
O3     O     0.08317   0.17978   0.59286   0.01267  Uiso   1.00
O4     O     0.04340   0.19201   0.65762   0.01267  Uiso   1.00
O5     O     0.77640   0.96230   0.39812   0.01267  Uiso   1.00
O6     O     0.80223   0.08044   0.53192   0.01267  Uiso   1.00
O7     O     0.44014   0.81784   0.28114   0.01267  Uiso   1.00
O8     O     0.43442   0.73105   0.29782   0.01267  Uiso   1.00
O9     O     0.88313   0.64324   0.94188   0.01267  Uiso   1.00
O10    O     0.90102   0.54252   0.90364   0.01267  Uiso   1.00
O11    O     0.21318   0.77930   0.10090   0.01267  Uiso   1.00
O12    O     0.15087   0.56068   0.03828   0.01267  Uiso   1.00
O13    O     0.70322   0.19844   0.23890   0.01267  Uiso   1.00
O14    O     0.67516   0.28701   0.22242   0.01267  Uiso   1.00
O15    O     0.50969   0.41308   0.59286   0.01267  Uiso   1.00
O16    O     0.61422   0.46561   0.65762   0.01267  Uiso   1.00
O17    O     0.62172   0.43582   0.39812   0.01267  Uiso   1.00
O18    O     0.72969   0.45148   0.53192   0.01267  Uiso   1.00
O19    O     0.84100   0.46330   0.28114   0.01267  Uiso   1.00
O20    O     0.86340   0.56677   0.29782   0.01267  Uiso   1.00
O21    O     0.05875   0.29864   0.94188   0.01267  Uiso   1.00
O22    O     0.00262   0.36112   0.90364   0.01267  Uiso   1.00
O23    O     0.88772   0.32160   0.10090   0.01267  Uiso   1.00
O24    O     0.88741   0.47760   0.03828   0.01267  Uiso   1.00
O25    O     0.95954   0.29678   0.76110   0.01267  Uiso   1.00
O26    O     0.06459   0.32484   0.77758   0.01267  Uiso   1.00
O27    O     0.82022   0.49031   0.40714   0.01267  Uiso   1.00
O28    O     0.80799   0.38578   0.34238   0.01267  Uiso   1.00
O29    O     0.03770   0.37828   0.60188   0.01267  Uiso   1.00
O30    O     0.91956   0.27031   0.46808   0.01267  Uiso   1.00
O31    O     0.18216   0.15900   0.71886   0.01267  Uiso   1.00
O32    O     0.26895   0.13660   0.70218   0.01267  Uiso   1.00
O33    O     0.35676   0.94125   0.05812   0.01267  Uiso   1.00
O34    O     0.45748   0.99738   0.09636   0.01267  Uiso   1.00
O35    O     0.22070   0.11228   0.89910   0.01267  Uiso   1.00
O36    O     0.43932   0.11259   0.96172   0.01267  Uiso   1.00
O37    O     0.80156   0.46432   0.76110   0.01267  Uiso   1.00
O38    O     0.71299   0.45274   0.77758   0.01267  Uiso   1.00
O39    O     0.58692   0.91683   0.40714   0.01267  Uiso   1.00
O40    O     0.53439   0.95660   0.34238   0.01267  Uiso   1.00
O41    O     0.56418   0.22360   0.60188   0.01267  Uiso   1.00
O42    O     0.54852   0.19777   0.46808   0.01267  Uiso   1.00
O43    O     0.53670   0.55986   0.71886   0.01267  Uiso   1.00
O44    O     0.43323   0.56558   0.70218   0.01267  Uiso   1.00
O45    O     0.70136   0.11687   0.05812   0.01267  Uiso   1.00
O46    O     0.63888   0.09898   0.09636   0.01267  Uiso   1.00
O47    O     0.67840   0.78682   0.89910   0.01267  Uiso   1.00
O48    O     0.52240   0.84913   0.96172   0.01267  Uiso   1.00
O49    O     0.54678   0.70954   0.26110   0.01267  Uiso   1.00
O50    O     0.57484   0.81459   0.27758   0.01267  Uiso   1.00
O51    O     0.74031   0.57022   0.90714   0.01267  Uiso   1.00
O52    O     0.63578   0.55799   0.84238   0.01267  Uiso   1.00
O53    O     0.62828   0.78770   0.10188   0.01267  Uiso   1.00
O54    O     0.52031   0.66956   0.96808   0.01267  Uiso   1.00
O55    O     0.40900   0.93216   0.21886   0.01267  Uiso   1.00
O56    O     0.38660   0.01895   0.20218   0.01267  Uiso   1.00
O57    O     0.19125   0.10676   0.55812   0.01267  Uiso   1.00
O58    O     0.24738   0.20748   0.59636   0.01267  Uiso   1.00
O59    O     0.36228   0.97070   0.39910   0.01267  Uiso   1.00
O60    O     0.36259   0.18932   0.46172   0.01267  Uiso   1.00
O61    O     0.71432   0.55156   0.26110   0.01267  Uiso   1.00
O62    O     0.70274   0.46299   0.27758   0.01267  Uiso   1.00
O63    O     0.16683   0.33692   0.90714   0.01267  Uiso   1.00
O64    O     0.20660   0.28439   0.84238   0.01267  Uiso   1.00
O65    O     0.47360   0.31418   0.10188   0.01267  Uiso   1.00
O66    O     0.44777   0.29852   0.96808   0.01267  Uiso   1.00
O67    O     0.80986   0.28670   0.21886   0.01267  Uiso   1.00
O68    O     0.81558   0.18323   0.20218   0.01267  Uiso   1.00
O69    O     0.36687   0.45136   0.55812   0.01267  Uiso   1.00
O70    O     0.34898   0.38888   0.59636   0.01267  Uiso   1.00
O71    O     0.03682   0.42840   0.39910   0.01267  Uiso   1.00
O72    O     0.09913   0.27240   0.46172   0.01267  Uiso   1.00
O73    O     0.44844   0.45322   0.73890   0.01267  Uiso   1.00
O74    O     0.53701   0.42516   0.72242   0.01267  Uiso   1.00
O75    O     0.66308   0.25969   0.09286   0.01267  Uiso   1.00
O76    O     0.71561   0.36422   0.15762   0.01267  Uiso   1.00
O77    O     0.68582   0.37172   0.89812   0.01267  Uiso   1.00
O78    O     0.70148   0.47969   0.03192   0.01267  Uiso   1.00
O79    O     0.71330   0.59100   0.78114   0.01267  Uiso   1.00
O80    O     0.81677   0.61340   0.79782   0.01267  Uiso   1.00
O81    O     0.54864   0.80875   0.44188   0.01267  Uiso   1.00
O82    O     0.61112   0.75262   0.40364   0.01267  Uiso   1.00
O83    O     0.57160   0.63772   0.60090   0.01267  Uiso   1.00
O84    O     0.72760   0.63741   0.53828   0.01267  Uiso   1.00
O85    O     0.29046   0.28568   0.73890   0.01267  Uiso   1.00
O86    O     0.18541   0.29726   0.72242   0.01267  Uiso   1.00
O87    O     0.42978   0.83317   0.09286   0.01267  Uiso   1.00
O88    O     0.44201   0.79340   0.15762   0.01267  Uiso   1.00
O89    O     0.21230   0.52640   0.89812   0.01267  Uiso   1.00
O90    O     0.33044   0.55223   0.03192   0.01267  Uiso   1.00
O91    O     0.06784   0.19014   0.78114   0.01267  Uiso   1.00
O92    O     0.98105   0.18442   0.79782   0.01267  Uiso   1.00
O93    O     0.89324   0.63313   0.44188   0.01267  Uiso   1.00
O94    O     0.79252   0.65102   0.40364   0.01267  Uiso   1.00
O95    O     0.02930   0.96318   0.60090   0.01267  Uiso   1.00
O96    O     0.81068   0.90087   0.53828   0.01267  Uiso   1.00
Cd13   Cd    0.00000   0.00000   0.00000   0.01267  Uiso   1.00
Cd14   Cd    0.25000   0.75000   0.50000   0.01267  Uiso   1.00
H193   H     0.18060   0.97060   0.17340   0.01267  Uiso   1.00
H194   H     0.21690   0.93360   0.24940   0.01267  Uiso   1.00
H195   H     0.98990   0.87880   0.10980   0.01267  Uiso   1.00
H196   H     0.93400   0.86310   0.18300   0.01267  Uiso   1.00
H197   H     0.92290   0.78460   0.15940   0.01267  Uiso   1.00
H198   H     0.92840   0.81590   0.11840   0.01267  Uiso   1.00
H199   H     0.99280   0.20280   0.17340   0.01267  Uiso   1.00
H200   H     0.03250   0.31580   0.24940   0.01267  Uiso   1.00
H201   H     0.11990   0.23100   0.10980   0.01267  Uiso   1.00
H202   H     0.24900   0.31990   0.18300   0.01267  Uiso   1.00
H203   H     0.23650   0.37480   0.15940   0.01267  Uiso   1.00
H204   H     0.19000   0.30250   0.11840   0.01267  Uiso   1.00
H205   H     0.02940   0.00720   0.82660   0.01267  Uiso   1.00
H206   H     0.06640   0.96750   0.75060   0.01267  Uiso   1.00
H207   H     0.12120   0.88010   0.89020   0.01267  Uiso   1.00
H208   H     0.13690   0.75100   0.81700   0.01267  Uiso   1.00
H209   H     0.21540   0.76350   0.84060   0.01267  Uiso   1.00
H210   H     0.18410   0.81000   0.88160   0.01267  Uiso   1.00
H211   H     0.79720   0.81940   0.82660   0.01267  Uiso   1.00
H212   H     0.68420   0.78310   0.75060   0.01267  Uiso   1.00
H213   H     0.76900   0.01010   0.89020   0.01267  Uiso   1.00
H214   H     0.68010   0.06600   0.81700   0.01267  Uiso   1.00
H215   H     0.62520   0.07710   0.84060   0.01267  Uiso   1.00
H216   H     0.69750   0.07160   0.88160   0.01267  Uiso   1.00
H217   H     0.25720   0.77940   0.32660   0.01267  Uiso   1.00
H218   H     0.21750   0.81640   0.25060   0.01267  Uiso   1.00
H219   H     0.13010   0.87120   0.39020   0.01267  Uiso   1.00
H220   H     0.00100   0.88690   0.31700   0.01267  Uiso   1.00
H221   H     0.01350   0.96540   0.34060   0.01267  Uiso   1.00
H222   H     0.06000   0.93410   0.38160   0.01267  Uiso   1.00
H223   H     0.06940   0.54720   0.32660   0.01267  Uiso   1.00
H224   H     0.03310   0.43420   0.25060   0.01267  Uiso   1.00
H225   H     0.26010   0.51900   0.39020   0.01267  Uiso   1.00
H226   H     0.31600   0.43010   0.31700   0.01267  Uiso   1.00
H227   H     0.32710   0.37520   0.34060   0.01267  Uiso   1.00
H228   H     0.32160   0.44750   0.38160   0.01267  Uiso   1.00
H229   H     0.45280   0.74280   0.67340   0.01267  Uiso   1.00
H230   H     0.56580   0.78250   0.74940   0.01267  Uiso   1.00
H231   H     0.48100   0.86990   0.60980   0.01267  Uiso   1.00
H232   H     0.56990   0.99900   0.68300   0.01267  Uiso   1.00
H233   H     0.62480   0.98650   0.65940   0.01267  Uiso   1.00
H234   H     0.55250   0.94000   0.61840   0.01267  Uiso   1.00
H235   H     0.22060   0.93060   0.67340   0.01267  Uiso   1.00
H236   H     0.18360   0.96690   0.74940   0.01267  Uiso   1.00
H237   H     0.12880   0.73990   0.60980   0.01267  Uiso   1.00
H238   H     0.11310   0.68400   0.68300   0.01267  Uiso   1.00
H239   H     0.03460   0.67290   0.65940   0.01267  Uiso   1.00
H240   H     0.06590   0.67840   0.61840   0.01267  Uiso   1.00
C257   C     0.05815   0.95445   0.08710   0.01267  Uiso   1.00
C258   C     0.08208   0.92768   0.13436   0.01267  Uiso   1.00
C259   C     0.14997   0.94417   0.17614   0.01267  Uiso   1.00
C260   C     0.17138   0.92248   0.22136   0.01267  Uiso   1.00
C261   C     0.12479   0.88439   0.22458   0.01267  Uiso   1.00
C262   C     0.05667   0.86797   0.18294   0.01267  Uiso   1.00
C263   C     0.03538   0.88968   0.13776   0.01267  Uiso   1.00
C264   C     0.94441   0.82231   0.15962   0.01267  Uiso   1.00
C265   C     0.02895   0.13265   0.08710   0.01267  Uiso   1.00
C266   C     0.05228   0.20668   0.13436   0.01267  Uiso   1.00
C267   C     0.02617   0.23197   0.17614   0.01267  Uiso   1.00
C268   C     0.04998   0.29888   0.22136   0.01267  Uiso   1.00
C269   C     0.09979   0.34019   0.22458   0.01267  Uiso   1.00
C270   C     0.12627   0.31497   0.18294   0.01267  Uiso   1.00
C271   C     0.10238   0.24808   0.13776   0.01267  Uiso   1.00
C272   C     0.21521   0.33731   0.15962   0.01267  Uiso   1.00
C273   C     0.04555   0.97105   0.91290   0.01267  Uiso   1.00
C274   C     0.07232   0.94772   0.86564   0.01267  Uiso   1.00
C275   C     0.05583   0.97383   0.82386   0.01267  Uiso   1.00
C276   C     0.07752   0.95002   0.77864   0.01267  Uiso   1.00
C277   C     0.11561   0.90021   0.77542   0.01267  Uiso   1.00
C278   C     0.13203   0.87373   0.81706   0.01267  Uiso   1.00
C279   C     0.11032   0.89762   0.86224   0.01267  Uiso   1.00
C280   C     0.17769   0.78479   0.84038   0.01267  Uiso   1.00
C281   C     0.86735   0.94185   0.91290   0.01267  Uiso   1.00
C282   C     0.79332   0.91792   0.86564   0.01267  Uiso   1.00
C283   C     0.76803   0.85003   0.82386   0.01267  Uiso   1.00
C284   C     0.70112   0.82862   0.77864   0.01267  Uiso   1.00
C285   C     0.65981   0.87521   0.77542   0.01267  Uiso   1.00
C286   C     0.68503   0.94333   0.81706   0.01267  Uiso   1.00
C287   C     0.75192   0.96462   0.86224   0.01267  Uiso   1.00
C288   C     0.66269   0.05559   0.84038   0.01267  Uiso   1.00
C289   C     0.22105   0.79555   0.41290   0.01267  Uiso   1.00
C290   C     0.19772   0.82232   0.36564   0.01267  Uiso   1.00
C291   C     0.22383   0.80583   0.32386   0.01267  Uiso   1.00
C292   C     0.20002   0.82752   0.27864   0.01267  Uiso   1.00
C293   C     0.15021   0.86561   0.27542   0.01267  Uiso   1.00
C294   C     0.12373   0.88203   0.31706   0.01267  Uiso   1.00
C295   C     0.14762   0.86032   0.36224   0.01267  Uiso   1.00
C296   C     0.03479   0.92769   0.34038   0.01267  Uiso   1.00
C297   C     0.19185   0.61735   0.41290   0.01267  Uiso   1.00
C298   C     0.16792   0.54332   0.36564   0.01267  Uiso   1.00
C299   C     0.10003   0.51803   0.32386   0.01267  Uiso   1.00
C300   C     0.07862   0.45112   0.27864   0.01267  Uiso   1.00
C301   C     0.12521   0.40981   0.27542   0.01267  Uiso   1.00
C302   C     0.19333   0.43503   0.31706   0.01267  Uiso   1.00
C303   C     0.21462   0.50192   0.36224   0.01267  Uiso   1.00
C304   C     0.30559   0.41269   0.34038   0.01267  Uiso   1.00
C305   C     0.38265   0.77895   0.58710   0.01267  Uiso   1.00
C306   C     0.45668   0.80228   0.63436   0.01267  Uiso   1.00
C307   C     0.48197   0.77617   0.67614   0.01267  Uiso   1.00
C308   C     0.54888   0.79998   0.72136   0.01267  Uiso   1.00
C309   C     0.59019   0.84979   0.72458   0.01267  Uiso   1.00
C310   C     0.56497   0.87627   0.68294   0.01267  Uiso   1.00
C311   C     0.49808   0.85238   0.63776   0.01267  Uiso   1.00
C312   C     0.58731   0.96521   0.65962   0.01267  Uiso   1.00
C313   C     0.20445   0.80815   0.58710   0.01267  Uiso   1.00
C314   C     0.17768   0.83208   0.63436   0.01267  Uiso   1.00
C315   C     0.19417   0.89997   0.67614   0.01267  Uiso   1.00
C316   C     0.17248   0.92138   0.72136   0.01267  Uiso   1.00
C317   C     0.13439   0.87479   0.72458   0.01267  Uiso   1.00
C318   C     0.11797   0.80667   0.68294   0.01267  Uiso   1.00
C319   C     0.13968   0.78538   0.63776   0.01267  Uiso   1.00
C320   C     0.07231   0.69441   0.65962   0.01267  Uiso   1.00
O97    O     0.09804   0.99705   0.09010   0.01267  Uiso   1.00
O98    O     0.99994   0.93545   0.04892   0.01267  Uiso   1.00
O99    O     0.01506   0.82749   0.18606   0.01267  Uiso   1.00
O100   O     0.99206   0.09305   0.09010   0.01267  Uiso   1.00
O101   O     0.04898   0.11347   0.04892   0.01267  Uiso   1.00
O102   O     0.17100   0.35857   0.18606   0.01267  Uiso   1.00
O103   O     0.00295   0.00794   0.90990   0.01267  Uiso   1.00
O104   O     0.06455   0.95102   0.95108   0.01267  Uiso   1.00
O105   O     0.17251   0.82900   0.81394   0.01267  Uiso   1.00
O106   O     0.90695   0.90196   0.90990   0.01267  Uiso   1.00
O107   O     0.88653   0.00006   0.95108   0.01267  Uiso   1.00
O108   O     0.64143   0.98494   0.81394   0.01267  Uiso   1.00
O109   O     0.25794   0.75295   0.40990   0.01267  Uiso   1.00
O110   O     0.20102   0.81455   0.45108   0.01267  Uiso   1.00
O111   O     0.07900   0.92251   0.31394   0.01267  Uiso   1.00
O112   O     0.15196   0.65695   0.40990   0.01267  Uiso   1.00
O113   O     0.25006   0.63653   0.45108   0.01267  Uiso   1.00
O114   O     0.23494   0.39143   0.31394   0.01267  Uiso   1.00
O115   O     0.34305   0.74206   0.59010   0.01267  Uiso   1.00
O116   O     0.36347   0.79898   0.54892   0.01267  Uiso   1.00
O117   O     0.60857   0.92100   0.68606   0.01267  Uiso   1.00
O118   O     0.24705   0.84804   0.59010   0.01267  Uiso   1.00
O119   O     0.18545   0.74994   0.54892   0.01267  Uiso   1.00
O120   O     0.07749   0.76506   0.68606   0.01267  Uiso   1.00
H241   H     0.38500   0.13690   0.18180   0.01267  Uiso   1.00
H242   H     0.37620   0.20950   0.18820   0.01267  Uiso   1.00
H243   H     0.34430   0.17700   0.21600   0.01267  Uiso   1.00
H244   H     0.46130   0.31070   0.32380   0.01267  Uiso   1.00
H245   H     0.43290   0.26380   0.34300   0.01267  Uiso   1.00
H246   H     0.38460   0.27560   0.28720   0.01267  Uiso   1.00
H247   H     0.47970   0.22390   0.26140   0.01267  Uiso   1.00
H248   H     0.45650   0.18080   0.28180   0.01267  Uiso   1.00
C321   C     0.38208   0.18088   0.20796   0.01267  Uiso   1.00
C322   C     0.42959   0.27059   0.30898   0.01267  Uiso   1.00
N1     N     0.44524   0.21084   0.26668   0.01267  Uiso   1.00
H249   H     0.23550   0.16370   0.17180   0.01267  Uiso   1.00
H250   H     0.17640   0.10280   0.14400   0.01267  Uiso   1.00
H251   H     0.25060   0.10110   0.18460   0.01267  Uiso   1.00
H252   H     0.23340   0.26070   0.30600   0.01267  Uiso   1.00
H253   H     0.23100   0.25960   0.24660   0.01267  Uiso   1.00
H254   H     0.29250   0.24040   0.28900   0.01267  Uiso   1.00
H255   H     0.16290   0.16140   0.22520   0.01267  Uiso   1.00
H256   H     0.22320   0.14210   0.25940   0.01267  Uiso   1.00
C323   C     0.21850   0.12970   0.17880   0.01267  Uiso   1.00
C324   C     0.24450   0.23800   0.27280   0.01267  Uiso   1.00
N2     N     0.20740   0.16370   0.23620   0.01267  Uiso   1.00
H257   H     0.79680   0.04490   0.18180   0.01267  Uiso   1.00
H258   H     0.81200   0.97870   0.18820   0.01267  Uiso   1.00
H259   H     0.87170   0.03900   0.21600   0.01267  Uiso   1.00
H260   H     0.86250   0.01310   0.32380   0.01267  Uiso   1.00
H261   H     0.91010   0.07920   0.34300   0.01267  Uiso   1.00
H262   H     0.90260   0.01160   0.28720   0.01267  Uiso   1.00
H263   H     0.78170   0.03750   0.26140   0.01267  Uiso   1.00
H264   H     0.82530   0.10100   0.28180   0.01267  Uiso   1.00
C325   C     0.82588   0.02708   0.20796   0.01267  Uiso   1.00
C326   C     0.87939   0.03839   0.30898   0.01267  Uiso   1.00
N3     N     0.82144   0.05584   0.26668   0.01267  Uiso   1.00
H265   H     0.93630   0.00810   0.17180   0.01267  Uiso   1.00
H266   H     0.96760   0.04120   0.14400   0.01267  Uiso   1.00
H267   H     0.93400   0.08350   0.18460   0.01267  Uiso   1.00
H268   H     0.07260   0.04530   0.30600   0.01267  Uiso   1.00
H269   H     0.01560   0.98700   0.24660   0.01267  Uiso   1.00
H270   H     0.99650   0.04860   0.28900   0.01267  Uiso   1.00
H271   H     0.06230   0.06380   0.22520   0.01267  Uiso   1.00
H272   H     0.03620   0.11730   0.25940   0.01267  Uiso   1.00
C327   C     0.96030   0.04910   0.17880   0.01267  Uiso   1.00
C328   C     0.02830   0.03480   0.27280   0.01267  Uiso   1.00
N4     N     0.02880   0.07250   0.23620   0.01267  Uiso   1.00
H273   H     0.86310   0.20320   0.81820   0.01267  Uiso   1.00
H274   H     0.79050   0.18800   0.81180   0.01267  Uiso   1.00
H275   H     0.82300   0.12830   0.78400   0.01267  Uiso   1.00
H276   H     0.68930   0.13750   0.67620   0.01267  Uiso   1.00
H277   H     0.73620   0.08990   0.65700   0.01267  Uiso   1.00
H278   H     0.72440   0.09740   0.71280   0.01267  Uiso   1.00
H279   H     0.77610   0.21830   0.73860   0.01267  Uiso   1.00
H280   H     0.81920   0.17470   0.71820   0.01267  Uiso   1.00
C329   C     0.81912   0.17412   0.79204   0.01267  Uiso   1.00
C330   C     0.72941   0.12061   0.69102   0.01267  Uiso   1.00
N5     N     0.78916   0.17856   0.73332   0.01267  Uiso   1.00
H281   H     0.83630   0.06370   0.82820   0.01267  Uiso   1.00
H282   H     0.89720   0.03240   0.85600   0.01267  Uiso   1.00
H283   H     0.89890   0.06600   0.81540   0.01267  Uiso   1.00
H284   H     0.73930   0.92740   0.69400   0.01267  Uiso   1.00
H285   H     0.74040   0.98440   0.75340   0.01267  Uiso   1.00
H286   H     0.75960   0.00350   0.71100   0.01267  Uiso   1.00
H287   H     0.83860   0.93770   0.77480   0.01267  Uiso   1.00
H288   H     0.85790   0.96380   0.74060   0.01267  Uiso   1.00
C331   C     0.87030   0.03970   0.82120   0.01267  Uiso   1.00
C332   C     0.76200   0.97170   0.72720   0.01267  Uiso   1.00
N6     N     0.83630   0.97120   0.76380   0.01267  Uiso   1.00
H289   H     0.95510   0.61500   0.81820   0.01267  Uiso   1.00
H290   H     0.02130   0.62380   0.81180   0.01267  Uiso   1.00
H291   H     0.96100   0.65570   0.78400   0.01267  Uiso   1.00
H292   H     0.98690   0.53870   0.67620   0.01267  Uiso   1.00
H293   H     0.92080   0.56710   0.65700   0.01267  Uiso   1.00
H294   H     0.98840   0.61540   0.71280   0.01267  Uiso   1.00
H295   H     0.96250   0.52030   0.73860   0.01267  Uiso   1.00
H296   H     0.89900   0.54350   0.71820   0.01267  Uiso   1.00
C333   C     0.97292   0.61792   0.79204   0.01267  Uiso   1.00
C334   C     0.96161   0.57041   0.69102   0.01267  Uiso   1.00
N7     N     0.94416   0.55476   0.73332   0.01267  Uiso   1.00
H297   H     0.99190   0.76450   0.82820   0.01267  Uiso   1.00
H298   H     0.95880   0.82360   0.85600   0.01267  Uiso   1.00
H299   H     0.91650   0.74940   0.81540   0.01267  Uiso   1.00
H300   H     0.95470   0.76660   0.69400   0.01267  Uiso   1.00
H301   H     0.01300   0.76900   0.75340   0.01267  Uiso   1.00
H302   H     0.95140   0.70750   0.71100   0.01267  Uiso   1.00
H303   H     0.93620   0.83710   0.77480   0.01267  Uiso   1.00
H304   H     0.88270   0.77680   0.74060   0.01267  Uiso   1.00
C335   C     0.95090   0.78150   0.82120   0.01267  Uiso   1.00
C336   C     0.96520   0.75550   0.72720   0.01267  Uiso   1.00
N8     N     0.92750   0.79260   0.76380   0.01267  Uiso   1.00
H305   H     0.45320   0.61310   0.31820   0.01267  Uiso   1.00
H306   H     0.43800   0.54050   0.31180   0.01267  Uiso   1.00
H307   H     0.37830   0.57300   0.28400   0.01267  Uiso   1.00
H308   H     0.38750   0.43930   0.17620   0.01267  Uiso   1.00
H309   H     0.33990   0.48620   0.15700   0.01267  Uiso   1.00
H310   H     0.34740   0.47440   0.21280   0.01267  Uiso   1.00
H311   H     0.46830   0.52610   0.23860   0.01267  Uiso   1.00
H312   H     0.42470   0.56920   0.21820   0.01267  Uiso   1.00
C337   C     0.42412   0.56912   0.29204   0.01267  Uiso   1.00
C338   C     0.37061   0.47941   0.19102   0.01267  Uiso   1.00
N9     N     0.42856   0.53916   0.23332   0.01267  Uiso   1.00
H313   H     0.31370   0.58630   0.32820   0.01267  Uiso   1.00
H314   H     0.28240   0.64720   0.35600   0.01267  Uiso   1.00
H315   H     0.31600   0.64890   0.31540   0.01267  Uiso   1.00
H316   H     0.17740   0.48930   0.19400   0.01267  Uiso   1.00
H317   H     0.23440   0.49040   0.25340   0.01267  Uiso   1.00
H318   H     0.25350   0.50960   0.21100   0.01267  Uiso   1.00
H319   H     0.18770   0.58860   0.27480   0.01267  Uiso   1.00
H320   H     0.21380   0.60790   0.24060   0.01267  Uiso   1.00
C339   C     0.28970   0.62030   0.32120   0.01267  Uiso   1.00
C340   C     0.22170   0.51200   0.22720   0.01267  Uiso   1.00
N10    N     0.22120   0.58630   0.26380   0.01267  Uiso   1.00
H321   H     0.86500   0.70510   0.31820   0.01267  Uiso   1.00
H322   H     0.87380   0.77130   0.31180   0.01267  Uiso   1.00
H323   H     0.90570   0.71100   0.28400   0.01267  Uiso   1.00
H324   H     0.78870   0.73690   0.17620   0.01267  Uiso   1.00
H325   H     0.81710   0.67080   0.15700   0.01267  Uiso   1.00
H326   H     0.86540   0.73840   0.21280   0.01267  Uiso   1.00
H327   H     0.77030   0.71250   0.23860   0.01267  Uiso   1.00
H328   H     0.79350   0.64900   0.21820   0.01267  Uiso   1.00
C341   C     0.86792   0.72292   0.29204   0.01267  Uiso   1.00
C342   C     0.82041   0.71161   0.19102   0.01267  Uiso   1.00
N11    N     0.80476   0.69416   0.23332   0.01267  Uiso   1.00
H329   H     0.01450   0.74190   0.32820   0.01267  Uiso   1.00
H330   H     0.07360   0.70880   0.35600   0.01267  Uiso   1.00
H331   H     0.99940   0.66650   0.31540   0.01267  Uiso   1.00
H332   H     0.01660   0.70470   0.19400   0.01267  Uiso   1.00
H333   H     0.01900   0.76300   0.25340   0.01267  Uiso   1.00
H334   H     0.95750   0.70140   0.21100   0.01267  Uiso   1.00
H335   H     0.08710   0.68620   0.27480   0.01267  Uiso   1.00
H336   H     0.02680   0.63270   0.24060   0.01267  Uiso   1.00
C343   C     0.03150   0.70090   0.32120   0.01267  Uiso   1.00
C344   C     0.00550   0.71520   0.22720   0.01267  Uiso   1.00
N12    N     0.04260   0.67750   0.26380   0.01267  Uiso   1.00
H337   H     0.29490   0.54680   0.68180   0.01267  Uiso   1.00
H338   H     0.22870   0.56200   0.68820   0.01267  Uiso   1.00
H339   H     0.28900   0.62170   0.71600   0.01267  Uiso   1.00
H340   H     0.26310   0.61250   0.82380   0.01267  Uiso   1.00
H341   H     0.32920   0.66010   0.84300   0.01267  Uiso   1.00
H342   H     0.26160   0.65260   0.78720   0.01267  Uiso   1.00
H343   H     0.28750   0.53170   0.76140   0.01267  Uiso   1.00
H344   H     0.35100   0.57530   0.78180   0.01267  Uiso   1.00
C345   C     0.27708   0.57588   0.70796   0.01267  Uiso   1.00
C346   C     0.28839   0.62939   0.80898   0.01267  Uiso   1.00
N13    N     0.30584   0.57144   0.76668   0.01267  Uiso   1.00
H345   H     0.25810   0.68630   0.67180   0.01267  Uiso   1.00
H346   H     0.29120   0.71760   0.64400   0.01267  Uiso   1.00
H347   H     0.33350   0.68400   0.68460   0.01267  Uiso   1.00
H348   H     0.29530   0.82260   0.80600   0.01267  Uiso   1.00
H349   H     0.23700   0.76560   0.74660   0.01267  Uiso   1.00
H350   H     0.29860   0.74650   0.78900   0.01267  Uiso   1.00
H351   H     0.31380   0.81230   0.72520   0.01267  Uiso   1.00
H352   H     0.36730   0.78620   0.75940   0.01267  Uiso   1.00
C347   C     0.29910   0.71030   0.67880   0.01267  Uiso   1.00
C348   C     0.28480   0.77830   0.77280   0.01267  Uiso   1.00
N14    N     0.32250   0.77880   0.73620   0.01267  Uiso   1.00
H353   H     0.38690   0.13500   0.68180   0.01267  Uiso   1.00
H354   H     0.45950   0.12620   0.68820   0.01267  Uiso   1.00
H355   H     0.42700   0.09430   0.71600   0.01267  Uiso   1.00
H356   H     0.56070   0.21130   0.82380   0.01267  Uiso   1.00
H357   H     0.51380   0.18290   0.84300   0.01267  Uiso   1.00
H358   H     0.52560   0.13460   0.78720   0.01267  Uiso   1.00
H359   H     0.47390   0.22970   0.76140   0.01267  Uiso   1.00
H360   H     0.43080   0.20650   0.78180   0.01267  Uiso   1.00
C349   C     0.43088   0.13208   0.70796   0.01267  Uiso   1.00
C350   C     0.52059   0.17959   0.80898   0.01267  Uiso   1.00
N15    N     0.46084   0.19524   0.76668   0.01267  Uiso   1.00
H361   H     0.41370   0.98550   0.67180   0.01267  Uiso   1.00
H362   H     0.35280   0.92640   0.64400   0.01267  Uiso   1.00
H363   H     0.35110   0.00060   0.68460   0.01267  Uiso   1.00
H364   H     0.51070   0.98340   0.80600   0.01267  Uiso   1.00
H365   H     0.50960   0.98100   0.74660   0.01267  Uiso   1.00
H366   H     0.49040   0.04250   0.78900   0.01267  Uiso   1.00
H367   H     0.41140   0.91290   0.72520   0.01267  Uiso   1.00
H368   H     0.39210   0.97320   0.75940   0.01267  Uiso   1.00
C351   C     0.37970   0.96850   0.67880   0.01267  Uiso   1.00
C352   C     0.48800   0.99450   0.77280   0.01267  Uiso   1.00
N16    N     0.41370   0.95740   0.73620   0.01267  Uiso   1.00
