data_WECJIZ_clean
_audit_creation_date              2014-07-02
_audit_creation_method            'Materials Studio'
_symmetry_space_group_name_H-M    'P1'
_symmetry_Int_Tables_number       1
_symmetry_cell_setting            triclinic
loop_
_symmetry_equiv_pos_as_xyz
  x,y,z
_cell_length_a                    22.7210
_cell_length_b                    25.1986
_cell_length_c                    25.1986
_cell_angle_alpha                 103.6810
_cell_angle_beta                  108.9660
_cell_angle_gamma                 108.9660
loop_
_atom_site_label
_atom_site_type_symbol
_atom_site_fract_x
_atom_site_fract_y
_atom_site_fract_z
_atom_site_U_iso_or_equiv
_atom_site_adp_type
_atom_site_occupancy
Zn1    Zn    0.59342   0.52677   0.46599   0.01267  Uiso   1.00
Zn2    Zn    0.27546   0.00893   0.48640   0.01267  Uiso   1.00
Zn3    Zn    0.34793   0.93475   0.45911   0.01267  Uiso   1.00
Zn4    Zn    0.90658   0.53401   0.47323   0.01267  Uiso   1.00
Zn5    Zn    0.22454   0.51360   0.99107   0.01267  Uiso   1.00
Zn6    Zn    0.15207   0.54089   0.06525   0.01267  Uiso   1.00
Zn7    Zn    0.40658   0.47323   0.53401   0.01267  Uiso   1.00
Zn8    Zn    0.72454   0.99107   0.51360   0.01267  Uiso   1.00
Zn9    Zn    0.65207   0.06525   0.54089   0.01267  Uiso   1.00
Zn10   Zn    0.09342   0.46599   0.52677   0.01267  Uiso   1.00
Zn11   Zn    0.77546   0.48640   0.00893   0.01267  Uiso   1.00
Zn12   Zn    0.84793   0.45911   0.93475   0.01267  Uiso   1.00
H1     H     0.40790   0.32860   0.34840   0.01267  Uiso   1.00
H2     H     0.49950   0.07260   0.40460   0.01267  Uiso   1.00
H3     H     0.75950   0.72210   0.69110   0.01267  Uiso   1.00
H4     H     0.66230   0.58090   0.89850   0.01267  Uiso   1.00
H5     H     0.54040   0.03470   0.64430   0.01267  Uiso   1.00
H6     H     0.59200   0.29100   0.91840   0.01267  Uiso   1.00
H7     H     0.45080   0.51800   0.42860   0.01267  Uiso   1.00
H8     H     0.62370   0.65280   0.46920   0.01267  Uiso   1.00
H9     H     0.39160   0.57530   0.40970   0.01267  Uiso   1.00
H10    H     0.57000   0.71140   0.44740   0.01267  Uiso   1.00
H11    H     0.39110   0.67190   0.41090   0.01267  Uiso   1.00
H12    H     0.50990   0.75850   0.42170   0.01267  Uiso   1.00
H13    H     0.33800   0.72980   0.40640   0.01267  Uiso   1.00
H14    H     0.51690   0.86020   0.43780   0.01267  Uiso   1.00
H15    H     0.29810   0.80170   0.42190   0.01267  Uiso   1.00
H16    H     0.47250   0.92810   0.45290   0.01267  Uiso   1.00
H17    H     0.69910   0.55040   0.05300   0.01267  Uiso   1.00
H18    H     0.77400   0.44470   0.10590   0.01267  Uiso   1.00
H19    H     0.65740   0.55890   0.12330   0.01267  Uiso   1.00
H20    H     0.73930   0.45420   0.18340   0.01267  Uiso   1.00
H21    H     0.64740   0.54000   0.21200   0.01267  Uiso   1.00
H22    H     0.72160   0.48460   0.26100   0.01267  Uiso   1.00
H23    H     0.72560   0.47710   0.35470   0.01267  Uiso   1.00
H24    H     0.61030   0.55420   0.28120   0.01267  Uiso   1.00
H25    H     0.69010   0.48810   0.43050   0.01267  Uiso   1.00
H26    H     0.57730   0.56190   0.35770   0.01267  Uiso   1.00
H27    H     0.34150   0.16020   0.30000   0.01267  Uiso   1.00
H28    H     0.31310   0.20680   0.28700   0.01267  Uiso   1.00
H29    H     0.37540   0.22680   0.23000   0.01267  Uiso   1.00
H30    H     0.40350   0.17980   0.24280   0.01267  Uiso   1.00
H31    H     0.27140   0.15500   0.16080   0.01267  Uiso   1.00
H32    H     0.27750   0.10660   0.18860   0.01267  Uiso   1.00
H33    H     0.34950   0.08990   0.14530   0.01267  Uiso   1.00
H34    H     0.35100   0.14230   0.12150   0.01267  Uiso   1.00
H35    H     0.25820   0.02410   0.06250   0.01267  Uiso   1.00
H36    H     0.21730   0.06200   0.07280   0.01267  Uiso   1.00
H37    H     0.21950   0.04770   0.97750   0.01267  Uiso   1.00
H38    H     0.30050   0.08270   0.01010   0.01267  Uiso   1.00
H39    H     0.25580   0.11720   0.01820   0.01267  Uiso   1.00
H40    H     0.60090   0.18600   0.41120   0.01267  Uiso   1.00
H41    H     0.55750   0.20330   0.36170   0.01267  Uiso   1.00
H42    H     0.59590   0.13600   0.31940   0.01267  Uiso   1.00
H43    H     0.55590   0.08750   0.33970   0.01267  Uiso   1.00
H44    H     0.49430   0.12570   0.24910   0.01267  Uiso   1.00
H45    H     0.45080   0.08440   0.27340   0.01267  Uiso   1.00
H46    H     0.48320   0.00820   0.23820   0.01267  Uiso   1.00
H47    H     0.52530   0.04940   0.21300   0.01267  Uiso   1.00
H48    H     0.42100   0.04220   0.14240   0.01267  Uiso   1.00
H49    H     0.37880   0.00120   0.16760   0.01267  Uiso   1.00
H50    H     0.37050   0.93910   0.07650   0.01267  Uiso   1.00
H51    H     0.40950   0.92340   0.12980   0.01267  Uiso   1.00
H52    H     0.45120   0.96430   0.10430   0.01267  Uiso   1.00
H53    H     0.80200   0.72910   0.84830   0.01267  Uiso   1.00
H54    H     0.75910   0.76100   0.81900   0.01267  Uiso   1.00
H55    H     0.88540   0.77020   0.81540   0.01267  Uiso   1.00
H56    H     0.84150   0.79930   0.78210   0.01267  Uiso   1.00
H57    H     0.91100   0.83660   0.90940   0.01267  Uiso   1.00
H58    H     0.85960   0.86160   0.87940   0.01267  Uiso   1.00
H59    H     0.98870   0.88250   0.86970   0.01267  Uiso   1.00
H60    H     0.93510   0.90170   0.83170   0.01267  Uiso   1.00
H61    H     0.99980   0.94890   0.96150   0.01267  Uiso   1.00
H62    H     0.94720   0.96880   0.92300   0.01267  Uiso   1.00
H63    H     0.06540   0.04090   0.95230   0.01267  Uiso   1.00
H64    H     0.02590   0.00910   0.88130   0.01267  Uiso   1.00
H65    H     0.07780   0.98810   0.91810   0.01267  Uiso   1.00
H66    H     0.63930   0.67750   0.85530   0.01267  Uiso   1.00
H67    H     0.61830   0.65210   0.78550   0.01267  Uiso   1.00
H68    H     0.52880   0.56340   0.77080   0.01267  Uiso   1.00
H69    H     0.55250   0.58310   0.84110   0.01267  Uiso   1.00
H70    H     0.45940   0.60330   0.80550   0.01267  Uiso   1.00
H71    H     0.52400   0.66680   0.84040   0.01267  Uiso   1.00
H72    H     0.46030   0.60710   0.71250   0.01267  Uiso   1.00
H73    H     0.52240   0.67220   0.74860   0.01267  Uiso   1.00
H74    H     0.38780   0.64360   0.74400   0.01267  Uiso   1.00
H75    H     0.45000   0.70850   0.78190   0.01267  Uiso   1.00
H76    H     0.37920   0.70640   0.68860   0.01267  Uiso   1.00
H77    H     0.38970   0.65270   0.65330   0.01267  Uiso   1.00
H78    H     0.45210   0.71740   0.69100   0.01267  Uiso   1.00
H79    H     0.68210   0.14730   0.76390   0.01267  Uiso   1.00
H80    H     0.65210   0.11520   0.80160   0.01267  Uiso   1.00
H81    H     0.65710   0.05550   0.69490   0.01267  Uiso   1.00
H82    H     0.61870   0.02020   0.72620   0.01267  Uiso   1.00
H83    H     0.76270   0.09550   0.78470   0.01267  Uiso   1.00
H84    H     0.72240   0.05350   0.81050   0.01267  Uiso   1.00
H85    H     0.69900   0.96740   0.73100   0.01267  Uiso   1.00
H86    H     0.73900   0.00920   0.70500   0.01267  Uiso   1.00
H87    H     0.79970   0.99460   0.81420   0.01267  Uiso   1.00
H88    H     0.84180   0.04570   0.79750   0.01267  Uiso   1.00
H89    H     0.78090   0.92000   0.72120   0.01267  Uiso   1.00
H90    H     0.85890   0.95480   0.76860   0.01267  Uiso   1.00
H91    H     0.83240   0.97300   0.71320   0.01267  Uiso   1.00
H92    H     0.50910   0.16800   0.88240   0.01267  Uiso   1.00
H93    H     0.47670   0.13340   0.81200   0.01267  Uiso   1.00
H94    H     0.41940   0.19220   0.79400   0.01267  Uiso   1.00
H95    H     0.46000   0.23740   0.86160   0.01267  Uiso   1.00
H96    H     0.35580   0.11990   0.82570   0.01267  Uiso   1.00
H97    H     0.39240   0.17030   0.89050   0.01267  Uiso   1.00
H98    H     0.29140   0.16890   0.78890   0.01267  Uiso   1.00
H99    H     0.33050   0.22290   0.85150   0.01267  Uiso   1.00
H100   H     0.15740   0.07790   0.82490   0.01267  Uiso   1.00
H101   H     0.20340   0.05850   0.79730   0.01267  Uiso   1.00
H102   H     0.16160   0.09110   0.76810   0.01267  Uiso   1.00
H103   H     0.09210   0.65160   0.67140   0.01267  Uiso   1.00
H104   H     0.00050   0.59540   0.92740   0.01267  Uiso   1.00
H105   H     0.74050   0.30890   0.27790   0.01267  Uiso   1.00
H106   H     0.83770   0.10150   0.41910   0.01267  Uiso   1.00
H107   H     0.95960   0.35570   0.96530   0.01267  Uiso   1.00
H108   H     0.90800   0.08160   0.70900   0.01267  Uiso   1.00
H109   H     0.04920   0.57140   0.48200   0.01267  Uiso   1.00
H110   H     0.87630   0.53080   0.34720   0.01267  Uiso   1.00
H111   H     0.10840   0.59030   0.42470   0.01267  Uiso   1.00
H112   H     0.93000   0.55260   0.28860   0.01267  Uiso   1.00
H113   H     0.10890   0.58910   0.32810   0.01267  Uiso   1.00
H114   H     0.99010   0.57830   0.24150   0.01267  Uiso   1.00
H115   H     0.16200   0.59360   0.27020   0.01267  Uiso   1.00
H116   H     0.98310   0.56220   0.13980   0.01267  Uiso   1.00
H117   H     0.20190   0.57810   0.19830   0.01267  Uiso   1.00
H118   H     0.02750   0.54710   0.07190   0.01267  Uiso   1.00
H119   H     0.80090   0.94700   0.44960   0.01267  Uiso   1.00
H120   H     0.72600   0.89410   0.55530   0.01267  Uiso   1.00
H121   H     0.84260   0.87670   0.44110   0.01267  Uiso   1.00
H122   H     0.76070   0.81660   0.54580   0.01267  Uiso   1.00
H123   H     0.85260   0.78800   0.46000   0.01267  Uiso   1.00
H124   H     0.77840   0.73900   0.51540   0.01267  Uiso   1.00
H125   H     0.77440   0.64530   0.52290   0.01267  Uiso   1.00
H126   H     0.88970   0.71880   0.44580   0.01267  Uiso   1.00
H127   H     0.80990   0.56950   0.51190   0.01267  Uiso   1.00
H128   H     0.92270   0.64230   0.43810   0.01267  Uiso   1.00
H129   H     0.15850   0.70000   0.83980   0.01267  Uiso   1.00
H130   H     0.18690   0.71300   0.79320   0.01267  Uiso   1.00
H131   H     0.12460   0.77000   0.77320   0.01267  Uiso   1.00
H132   H     0.09650   0.75720   0.82020   0.01267  Uiso   1.00
H133   H     0.22860   0.83920   0.84500   0.01267  Uiso   1.00
H134   H     0.22250   0.81140   0.89340   0.01267  Uiso   1.00
H135   H     0.15050   0.85470   0.91010   0.01267  Uiso   1.00
H136   H     0.14900   0.87850   0.85770   0.01267  Uiso   1.00
H137   H     0.24180   0.93750   0.97590   0.01267  Uiso   1.00
H138   H     0.28270   0.92720   0.93800   0.01267  Uiso   1.00
H139   H     0.28050   0.02250   0.95230   0.01267  Uiso   1.00
H140   H     0.19950   0.98990   0.91730   0.01267  Uiso   1.00
H141   H     0.24420   0.98180   0.88280   0.01267  Uiso   1.00
H142   H     0.89910   0.58880   0.81400   0.01267  Uiso   1.00
H143   H     0.94250   0.63830   0.79670   0.01267  Uiso   1.00
H144   H     0.90410   0.68060   0.86400   0.01267  Uiso   1.00
H145   H     0.94410   0.66030   0.91250   0.01267  Uiso   1.00
H146   H     0.00570   0.75090   0.87430   0.01267  Uiso   1.00
H147   H     0.04920   0.72660   0.91560   0.01267  Uiso   1.00
H148   H     0.01680   0.76180   0.99180   0.01267  Uiso   1.00
H149   H     0.97470   0.78700   0.95060   0.01267  Uiso   1.00
H150   H     0.07900   0.85760   0.95780   0.01267  Uiso   1.00
H151   H     0.12120   0.83240   0.99880   0.01267  Uiso   1.00
H152   H     0.12950   0.92350   0.06090   0.01267  Uiso   1.00
H153   H     0.09050   0.87020   0.07660   0.01267  Uiso   1.00
H154   H     0.04880   0.89570   0.03570   0.01267  Uiso   1.00
H155   H     0.69800   0.15170   0.27090   0.01267  Uiso   1.00
H156   H     0.74090   0.18100   0.23900   0.01267  Uiso   1.00
H157   H     0.61460   0.18460   0.22980   0.01267  Uiso   1.00
H158   H     0.65850   0.21790   0.20070   0.01267  Uiso   1.00
H159   H     0.58900   0.09060   0.16340   0.01267  Uiso   1.00
H160   H     0.64040   0.12060   0.13840   0.01267  Uiso   1.00
H161   H     0.51130   0.13030   0.11750   0.01267  Uiso   1.00
H162   H     0.56490   0.16830   0.09830   0.01267  Uiso   1.00
H163   H     0.50020   0.03850   0.05110   0.01267  Uiso   1.00
H164   H     0.55280   0.07700   0.03120   0.01267  Uiso   1.00
H165   H     0.43460   0.04770   0.95910   0.01267  Uiso   1.00
H166   H     0.47410   0.11870   0.99090   0.01267  Uiso   1.00
H167   H     0.42220   0.08190   0.01190   0.01267  Uiso   1.00
H168   H     0.86070   0.14470   0.32250   0.01267  Uiso   1.00
H169   H     0.88170   0.21450   0.34790   0.01267  Uiso   1.00
H170   H     0.97120   0.22920   0.43660   0.01267  Uiso   1.00
H171   H     0.94750   0.15890   0.41690   0.01267  Uiso   1.00
H172   H     0.04060   0.19450   0.39670   0.01267  Uiso   1.00
H173   H     0.97600   0.15960   0.33320   0.01267  Uiso   1.00
H174   H     0.03970   0.28750   0.39290   0.01267  Uiso   1.00
H175   H     0.97760   0.25140   0.32780   0.01267  Uiso   1.00
H176   H     0.11220   0.25600   0.35640   0.01267  Uiso   1.00
H177   H     0.05000   0.21810   0.29150   0.01267  Uiso   1.00
H178   H     0.12080   0.31140   0.29360   0.01267  Uiso   1.00
H179   H     0.11030   0.34670   0.34730   0.01267  Uiso   1.00
H180   H     0.04790   0.30900   0.28260   0.01267  Uiso   1.00
H181   H     0.81790   0.23610   0.85270   0.01267  Uiso   1.00
H182   H     0.84790   0.19840   0.88480   0.01267  Uiso   1.00
H183   H     0.84290   0.30510   0.94450   0.01267  Uiso   1.00
H184   H     0.88130   0.27380   0.97980   0.01267  Uiso   1.00
H185   H     0.73730   0.21530   0.90450   0.01267  Uiso   1.00
H186   H     0.77760   0.18950   0.94650   0.01267  Uiso   1.00
H187   H     0.80100   0.26900   0.03260   0.01267  Uiso   1.00
H188   H     0.76100   0.29500   0.99080   0.01267  Uiso   1.00
H189   H     0.70030   0.18580   0.00540   0.01267  Uiso   1.00
H190   H     0.65820   0.20250   0.95430   0.01267  Uiso   1.00
H191   H     0.71910   0.27880   0.08000   0.01267  Uiso   1.00
H192   H     0.64110   0.23140   0.04520   0.01267  Uiso   1.00
H193   H     0.66760   0.28680   0.02700   0.01267  Uiso   1.00
H194   H     0.99090   0.11760   0.83200   0.01267  Uiso   1.00
H195   H     0.02330   0.18800   0.86660   0.01267  Uiso   1.00
H196   H     0.08060   0.20600   0.80780   0.01267  Uiso   1.00
H197   H     0.04000   0.13840   0.76260   0.01267  Uiso   1.00
H198   H     0.14420   0.17430   0.88010   0.01267  Uiso   1.00
H199   H     0.10760   0.10950   0.82970   0.01267  Uiso   1.00
H200   H     0.20860   0.21110   0.83110   0.01267  Uiso   1.00
H201   H     0.16950   0.14850   0.77710   0.01267  Uiso   1.00
H202   H     0.34260   0.17510   0.92210   0.01267  Uiso   1.00
H203   H     0.29660   0.20270   0.94150   0.01267  Uiso   1.00
H204   H     0.33840   0.23190   0.90890   0.01267  Uiso   1.00
H205   H     0.59210   0.67140   0.65160   0.01267  Uiso   1.00
H206   H     0.50050   0.92740   0.59540   0.01267  Uiso   1.00
H207   H     0.24050   0.27790   0.30890   0.01267  Uiso   1.00
H208   H     0.33770   0.41910   0.10150   0.01267  Uiso   1.00
H209   H     0.45960   0.96530   0.35570   0.01267  Uiso   1.00
H210   H     0.40800   0.70900   0.08160   0.01267  Uiso   1.00
H211   H     0.54920   0.48200   0.57140   0.01267  Uiso   1.00
H212   H     0.37630   0.34720   0.53080   0.01267  Uiso   1.00
H213   H     0.60840   0.42470   0.59030   0.01267  Uiso   1.00
H214   H     0.43000   0.28860   0.55260   0.01267  Uiso   1.00
H215   H     0.60890   0.32810   0.58910   0.01267  Uiso   1.00
H216   H     0.49010   0.24150   0.57830   0.01267  Uiso   1.00
H217   H     0.66200   0.27020   0.59360   0.01267  Uiso   1.00
H218   H     0.48310   0.13980   0.56220   0.01267  Uiso   1.00
H219   H     0.70190   0.19830   0.57810   0.01267  Uiso   1.00
H220   H     0.52750   0.07190   0.54710   0.01267  Uiso   1.00
H221   H     0.30090   0.44960   0.94700   0.01267  Uiso   1.00
H222   H     0.22600   0.55530   0.89410   0.01267  Uiso   1.00
H223   H     0.34260   0.44110   0.87670   0.01267  Uiso   1.00
H224   H     0.26070   0.54580   0.81660   0.01267  Uiso   1.00
H225   H     0.35260   0.46000   0.78800   0.01267  Uiso   1.00
H226   H     0.27840   0.51540   0.73900   0.01267  Uiso   1.00
H227   H     0.27440   0.52290   0.64530   0.01267  Uiso   1.00
H228   H     0.38970   0.44580   0.71880   0.01267  Uiso   1.00
H229   H     0.30990   0.51190   0.56950   0.01267  Uiso   1.00
H230   H     0.42270   0.43810   0.64230   0.01267  Uiso   1.00
H231   H     0.65850   0.83980   0.70000   0.01267  Uiso   1.00
H232   H     0.68690   0.79320   0.71300   0.01267  Uiso   1.00
H233   H     0.62460   0.77320   0.77000   0.01267  Uiso   1.00
H234   H     0.59650   0.82020   0.75720   0.01267  Uiso   1.00
H235   H     0.72860   0.84500   0.83920   0.01267  Uiso   1.00
H236   H     0.72250   0.89340   0.81140   0.01267  Uiso   1.00
H237   H     0.65050   0.91010   0.85470   0.01267  Uiso   1.00
H238   H     0.64900   0.85770   0.87850   0.01267  Uiso   1.00
H239   H     0.74180   0.97590   0.93750   0.01267  Uiso   1.00
H240   H     0.78270   0.93800   0.92720   0.01267  Uiso   1.00
H241   H     0.78050   0.95230   0.02250   0.01267  Uiso   1.00
H242   H     0.69950   0.91730   0.98990   0.01267  Uiso   1.00
H243   H     0.74420   0.88280   0.98180   0.01267  Uiso   1.00
H244   H     0.39910   0.81400   0.58880   0.01267  Uiso   1.00
H245   H     0.44250   0.79670   0.63830   0.01267  Uiso   1.00
H246   H     0.40410   0.86400   0.68060   0.01267  Uiso   1.00
H247   H     0.44410   0.91250   0.66030   0.01267  Uiso   1.00
H248   H     0.50570   0.87430   0.75090   0.01267  Uiso   1.00
H249   H     0.54920   0.91560   0.72660   0.01267  Uiso   1.00
H250   H     0.51680   0.99180   0.76180   0.01267  Uiso   1.00
H251   H     0.47470   0.95060   0.78700   0.01267  Uiso   1.00
H252   H     0.57900   0.95780   0.85760   0.01267  Uiso   1.00
H253   H     0.62120   0.99880   0.83240   0.01267  Uiso   1.00
H254   H     0.62950   0.06090   0.92350   0.01267  Uiso   1.00
H255   H     0.59050   0.07660   0.87020   0.01267  Uiso   1.00
H256   H     0.54880   0.03570   0.89570   0.01267  Uiso   1.00
H257   H     0.19800   0.27090   0.15170   0.01267  Uiso   1.00
H258   H     0.24090   0.23900   0.18100   0.01267  Uiso   1.00
H259   H     0.11460   0.22980   0.18460   0.01267  Uiso   1.00
H260   H     0.15850   0.20070   0.21790   0.01267  Uiso   1.00
H261   H     0.08900   0.16340   0.09060   0.01267  Uiso   1.00
H262   H     0.14040   0.13840   0.12060   0.01267  Uiso   1.00
H263   H     0.01130   0.11750   0.13030   0.01267  Uiso   1.00
H264   H     0.06490   0.09830   0.16830   0.01267  Uiso   1.00
H265   H     0.00020   0.05110   0.03850   0.01267  Uiso   1.00
H266   H     0.05280   0.03120   0.07700   0.01267  Uiso   1.00
H267   H     0.93460   0.95910   0.04770   0.01267  Uiso   1.00
H268   H     0.97410   0.99090   0.11870   0.01267  Uiso   1.00
H269   H     0.92220   0.01190   0.08190   0.01267  Uiso   1.00
H270   H     0.36070   0.32250   0.14470   0.01267  Uiso   1.00
H271   H     0.38170   0.34790   0.21450   0.01267  Uiso   1.00
H272   H     0.47120   0.43660   0.22920   0.01267  Uiso   1.00
H273   H     0.44750   0.41690   0.15890   0.01267  Uiso   1.00
H274   H     0.54060   0.39670   0.19450   0.01267  Uiso   1.00
H275   H     0.47600   0.33320   0.15960   0.01267  Uiso   1.00
H276   H     0.53970   0.39290   0.28750   0.01267  Uiso   1.00
H277   H     0.47760   0.32780   0.25140   0.01267  Uiso   1.00
H278   H     0.61220   0.35640   0.25600   0.01267  Uiso   1.00
H279   H     0.55000   0.29150   0.21810   0.01267  Uiso   1.00
H280   H     0.62080   0.29360   0.31140   0.01267  Uiso   1.00
H281   H     0.61030   0.34730   0.34670   0.01267  Uiso   1.00
H282   H     0.54790   0.28260   0.30900   0.01267  Uiso   1.00
H283   H     0.31790   0.85270   0.23610   0.01267  Uiso   1.00
H284   H     0.34790   0.88480   0.19840   0.01267  Uiso   1.00
H285   H     0.34290   0.94450   0.30510   0.01267  Uiso   1.00
H286   H     0.38130   0.97980   0.27380   0.01267  Uiso   1.00
H287   H     0.23730   0.90450   0.21530   0.01267  Uiso   1.00
H288   H     0.27760   0.94650   0.18950   0.01267  Uiso   1.00
H289   H     0.30100   0.03260   0.26900   0.01267  Uiso   1.00
H290   H     0.26100   0.99080   0.29500   0.01267  Uiso   1.00
H291   H     0.20030   0.00540   0.18580   0.01267  Uiso   1.00
H292   H     0.15820   0.95430   0.20250   0.01267  Uiso   1.00
H293   H     0.21910   0.08000   0.27880   0.01267  Uiso   1.00
H294   H     0.14110   0.04520   0.23140   0.01267  Uiso   1.00
H295   H     0.16760   0.02700   0.28680   0.01267  Uiso   1.00
H296   H     0.49090   0.83200   0.11760   0.01267  Uiso   1.00
H297   H     0.52330   0.86660   0.18800   0.01267  Uiso   1.00
H298   H     0.58060   0.80780   0.20600   0.01267  Uiso   1.00
H299   H     0.54000   0.76260   0.13840   0.01267  Uiso   1.00
H300   H     0.64420   0.88010   0.17430   0.01267  Uiso   1.00
H301   H     0.60760   0.82970   0.10950   0.01267  Uiso   1.00
H302   H     0.70860   0.83110   0.21110   0.01267  Uiso   1.00
H303   H     0.66950   0.77710   0.14850   0.01267  Uiso   1.00
H304   H     0.84260   0.92210   0.17510   0.01267  Uiso   1.00
H305   H     0.79660   0.94150   0.20270   0.01267  Uiso   1.00
H306   H     0.83840   0.90890   0.23190   0.01267  Uiso   1.00
H307   H     0.90790   0.34840   0.32860   0.01267  Uiso   1.00
H308   H     0.99950   0.40460   0.07260   0.01267  Uiso   1.00
H309   H     0.25950   0.69110   0.72210   0.01267  Uiso   1.00
H310   H     0.16230   0.89850   0.58090   0.01267  Uiso   1.00
H311   H     0.04040   0.64430   0.03470   0.01267  Uiso   1.00
H312   H     0.09200   0.91840   0.29100   0.01267  Uiso   1.00
H313   H     0.95080   0.42860   0.51800   0.01267  Uiso   1.00
H314   H     0.12370   0.46920   0.65280   0.01267  Uiso   1.00
H315   H     0.89160   0.40970   0.57530   0.01267  Uiso   1.00
H316   H     0.07000   0.44740   0.71140   0.01267  Uiso   1.00
H317   H     0.89110   0.41090   0.67190   0.01267  Uiso   1.00
H318   H     0.00990   0.42170   0.75850   0.01267  Uiso   1.00
H319   H     0.83800   0.40640   0.72980   0.01267  Uiso   1.00
H320   H     0.01690   0.43780   0.86020   0.01267  Uiso   1.00
H321   H     0.79810   0.42190   0.80170   0.01267  Uiso   1.00
H322   H     0.97250   0.45290   0.92810   0.01267  Uiso   1.00
H323   H     0.19910   0.05300   0.55040   0.01267  Uiso   1.00
H324   H     0.27400   0.10590   0.44470   0.01267  Uiso   1.00
H325   H     0.15740   0.12330   0.55890   0.01267  Uiso   1.00
H326   H     0.23930   0.18340   0.45420   0.01267  Uiso   1.00
H327   H     0.14740   0.21200   0.54000   0.01267  Uiso   1.00
H328   H     0.22160   0.26100   0.48460   0.01267  Uiso   1.00
H329   H     0.22560   0.35470   0.47710   0.01267  Uiso   1.00
H330   H     0.11030   0.28120   0.55420   0.01267  Uiso   1.00
H331   H     0.19010   0.43050   0.48810   0.01267  Uiso   1.00
H332   H     0.07730   0.35770   0.56190   0.01267  Uiso   1.00
H333   H     0.84150   0.30000   0.16020   0.01267  Uiso   1.00
H334   H     0.81310   0.28700   0.20680   0.01267  Uiso   1.00
H335   H     0.87540   0.23000   0.22680   0.01267  Uiso   1.00
H336   H     0.90350   0.24280   0.17980   0.01267  Uiso   1.00
H337   H     0.77140   0.16080   0.15500   0.01267  Uiso   1.00
H338   H     0.77750   0.18860   0.10660   0.01267  Uiso   1.00
H339   H     0.84950   0.14530   0.08990   0.01267  Uiso   1.00
H340   H     0.85100   0.12150   0.14230   0.01267  Uiso   1.00
H341   H     0.75820   0.06250   0.02410   0.01267  Uiso   1.00
H342   H     0.71730   0.07280   0.06200   0.01267  Uiso   1.00
H343   H     0.71950   0.97750   0.04770   0.01267  Uiso   1.00
H344   H     0.80050   0.01010   0.08270   0.01267  Uiso   1.00
H345   H     0.75580   0.01820   0.11720   0.01267  Uiso   1.00
H346   H     0.10090   0.41120   0.18600   0.01267  Uiso   1.00
H347   H     0.05750   0.36170   0.20330   0.01267  Uiso   1.00
H348   H     0.09590   0.31940   0.13600   0.01267  Uiso   1.00
H349   H     0.05590   0.33970   0.08750   0.01267  Uiso   1.00
H350   H     0.99430   0.24910   0.12570   0.01267  Uiso   1.00
H351   H     0.95080   0.27340   0.08440   0.01267  Uiso   1.00
H352   H     0.98320   0.23820   0.00820   0.01267  Uiso   1.00
H353   H     0.02530   0.21300   0.04940   0.01267  Uiso   1.00
H354   H     0.92100   0.14240   0.04220   0.01267  Uiso   1.00
H355   H     0.87880   0.16760   0.00120   0.01267  Uiso   1.00
H356   H     0.87050   0.07650   0.93910   0.01267  Uiso   1.00
H357   H     0.90950   0.12980   0.92340   0.01267  Uiso   1.00
H358   H     0.95120   0.10430   0.96430   0.01267  Uiso   1.00
H359   H     0.30200   0.84830   0.72910   0.01267  Uiso   1.00
H360   H     0.25910   0.81900   0.76100   0.01267  Uiso   1.00
H361   H     0.38540   0.81540   0.77020   0.01267  Uiso   1.00
H362   H     0.34150   0.78210   0.79930   0.01267  Uiso   1.00
H363   H     0.41100   0.90940   0.83660   0.01267  Uiso   1.00
H364   H     0.35960   0.87940   0.86160   0.01267  Uiso   1.00
H365   H     0.48870   0.86970   0.88250   0.01267  Uiso   1.00
H366   H     0.43510   0.83170   0.90170   0.01267  Uiso   1.00
H367   H     0.49980   0.96150   0.94890   0.01267  Uiso   1.00
H368   H     0.44720   0.92300   0.96880   0.01267  Uiso   1.00
H369   H     0.56540   0.95230   0.04090   0.01267  Uiso   1.00
H370   H     0.52590   0.88130   0.00910   0.01267  Uiso   1.00
H371   H     0.57780   0.91810   0.98810   0.01267  Uiso   1.00
H372   H     0.13930   0.85530   0.67750   0.01267  Uiso   1.00
H373   H     0.11830   0.78550   0.65210   0.01267  Uiso   1.00
H374   H     0.02880   0.77080   0.56340   0.01267  Uiso   1.00
H375   H     0.05250   0.84110   0.58310   0.01267  Uiso   1.00
H376   H     0.95940   0.80550   0.60330   0.01267  Uiso   1.00
H377   H     0.02400   0.84040   0.66680   0.01267  Uiso   1.00
H378   H     0.96030   0.71250   0.60710   0.01267  Uiso   1.00
H379   H     0.02240   0.74860   0.67220   0.01267  Uiso   1.00
H380   H     0.88780   0.74400   0.64360   0.01267  Uiso   1.00
H381   H     0.95000   0.78190   0.70850   0.01267  Uiso   1.00
H382   H     0.87920   0.68860   0.70640   0.01267  Uiso   1.00
H383   H     0.88970   0.65330   0.65270   0.01267  Uiso   1.00
H384   H     0.95210   0.69100   0.71740   0.01267  Uiso   1.00
H385   H     0.18210   0.76390   0.14730   0.01267  Uiso   1.00
H386   H     0.15210   0.80160   0.11520   0.01267  Uiso   1.00
H387   H     0.15710   0.69490   0.05550   0.01267  Uiso   1.00
H388   H     0.11870   0.72620   0.02020   0.01267  Uiso   1.00
H389   H     0.26270   0.78470   0.09550   0.01267  Uiso   1.00
H390   H     0.22240   0.81050   0.05350   0.01267  Uiso   1.00
H391   H     0.19900   0.73100   0.96740   0.01267  Uiso   1.00
H392   H     0.23900   0.70500   0.00920   0.01267  Uiso   1.00
H393   H     0.29970   0.81420   0.99460   0.01267  Uiso   1.00
H394   H     0.34180   0.79750   0.04570   0.01267  Uiso   1.00
H395   H     0.28090   0.72120   0.92000   0.01267  Uiso   1.00
H396   H     0.35890   0.76860   0.95480   0.01267  Uiso   1.00
H397   H     0.33240   0.71320   0.97300   0.01267  Uiso   1.00
H398   H     0.00910   0.88240   0.16800   0.01267  Uiso   1.00
H399   H     0.97670   0.81200   0.13340   0.01267  Uiso   1.00
H400   H     0.91940   0.79400   0.19220   0.01267  Uiso   1.00
H401   H     0.96000   0.86160   0.23740   0.01267  Uiso   1.00
H402   H     0.85580   0.82570   0.11990   0.01267  Uiso   1.00
H403   H     0.89240   0.89050   0.17030   0.01267  Uiso   1.00
H404   H     0.79140   0.78890   0.16890   0.01267  Uiso   1.00
H405   H     0.83050   0.85150   0.22290   0.01267  Uiso   1.00
H406   H     0.65740   0.82490   0.07790   0.01267  Uiso   1.00
H407   H     0.70340   0.79730   0.05850   0.01267  Uiso   1.00
H408   H     0.66160   0.76810   0.09110   0.01267  Uiso   1.00
C1     C     0.54160   0.41455   0.43607   0.01267  Uiso   1.00
C2     C     0.49990   0.34688   0.41052   0.01267  Uiso   1.00
C3     C     0.43590   0.31272   0.36808   0.01267  Uiso   1.00
C4     C     0.41320   0.24881   0.35479   0.01267  Uiso   1.00
C5     C     0.46350   0.23794   0.39034   0.01267  Uiso   1.00
C6     C     0.45890   0.18062   0.39636   0.01267  Uiso   1.00
C7     C     0.49970   0.15122   0.39220   0.01267  Uiso   1.00
C8     C     0.47800   0.09824   0.40514   0.01267  Uiso   1.00
C9     C     0.42310   0.08835   0.41841   0.01267  Uiso   1.00
C10    C     0.38680   0.03977   0.43547   0.01267  Uiso   1.00
C11    C     0.68450   0.61566   0.58534   0.01267  Uiso   1.00
C12    C     0.70400   0.63108   0.65106   0.01267  Uiso   1.00
C13    C     0.74070   0.68652   0.69708   0.01267  Uiso   1.00
C14    C     0.74840   0.68579   0.75549   0.01267  Uiso   1.00
C15    C     0.71740   0.62734   0.75148   0.01267  Uiso   1.00
C16    C     0.71370   0.60550   0.79942   0.01267  Uiso   1.00
C17    C     0.67660   0.61195   0.83187   0.01267  Uiso   1.00
C18    C     0.68360   0.58107   0.87261   0.01267  Uiso   1.00
C19    C     0.72390   0.55222   0.87008   0.01267  Uiso   1.00
C20    C     0.74540   0.51835   0.90647   0.01267  Uiso   1.00
C21    C     0.41100   0.03121   0.58085   0.01267  Uiso   1.00
C22    C     0.46940   0.06810   0.64172   0.01267  Uiso   1.00
C23    C     0.53040   0.06355   0.66525   0.01267  Uiso   1.00
C24    C     0.57650   0.10740   0.72488   0.01267  Uiso   1.00
C25    C     0.54940   0.14484   0.74436   0.01267  Uiso   1.00
C26    C     0.58190   0.19937   0.80101   0.01267  Uiso   1.00
C27    C     0.55730   0.21439   0.84241   0.01267  Uiso   1.00
C28    C     0.60090   0.27363   0.88683   0.01267  Uiso   1.00
C29    C     0.65770   0.30299   0.87851   0.01267  Uiso   1.00
C30    C     0.71340   0.36564   0.91492   0.01267  Uiso   1.00
C31    C     0.47520   0.55782   0.43340   0.01267  Uiso   1.00
C32    C     0.57610   0.63672   0.45656   0.01267  Uiso   1.00
C33    C     0.43900   0.59204   0.42148   0.01267  Uiso   1.00
C34    C     0.54450   0.67260   0.44440   0.01267  Uiso   1.00
C35    C     0.47360   0.65093   0.42719   0.01267  Uiso   1.00
C36    C     0.43750   0.68831   0.41867   0.01267  Uiso   1.00
C37    C     0.46640   0.74470   0.42120   0.01267  Uiso   1.00
C38    C     0.43390   0.78659   0.42331   0.01267  Uiso   1.00
C39    C     0.36700   0.77027   0.41693   0.01267  Uiso   1.00
C40    C     0.47260   0.84721   0.43555   0.01267  Uiso   1.00
C41    C     0.34320   0.81355   0.42605   0.01267  Uiso   1.00
C42    C     0.44530   0.88763   0.44419   0.01267  Uiso   1.00
C43    C     0.70720   0.53052   0.07948   0.01267  Uiso   1.00
C44    C     0.75180   0.46931   0.11069   0.01267  Uiso   1.00
C45    C     0.68360   0.53724   0.12256   0.01267  Uiso   1.00
C46    C     0.73110   0.47486   0.15774   0.01267  Uiso   1.00
C47    C     0.69840   0.51193   0.16507   0.01267  Uiso   1.00
C48    C     0.67640   0.52082   0.21398   0.01267  Uiso   1.00
C49    C     0.69350   0.50458   0.25942   0.01267  Uiso   1.00
C50    C     0.67240   0.51492   0.30948   0.01267  Uiso   1.00
C51    C     0.69560   0.49497   0.35467   0.01267  Uiso   1.00
C52    C     0.62740   0.54043   0.31117   0.01267  Uiso   1.00
C53    C     0.67400   0.50183   0.40013   0.01267  Uiso   1.00
C54    C     0.60820   0.54510   0.35750   0.01267  Uiso   1.00
C55    C     0.35310   0.19840   0.29420   0.01267  Uiso   1.00
C56    C     0.36390   0.18880   0.23620   0.01267  Uiso   1.00
C57    C     0.30250   0.13850   0.17810   0.01267  Uiso   1.00
C58    C     0.32220   0.11010   0.12950   0.01267  Uiso   1.00
C59    C     0.25910   0.06400   0.06920   0.01267  Uiso   1.00
C60    C     0.25900   0.07930   0.01350   0.01267  Uiso   1.00
C61    C     0.55760   0.17036   0.37524   0.01267  Uiso   1.00
C62    C     0.55490   0.12026   0.32594   0.01267  Uiso   1.00
C63    C     0.49170   0.09477   0.26623   0.01267  Uiso   1.00
C64    C     0.48480   0.03880   0.22080   0.01267  Uiso   1.00
C65    C     0.41940   0.01160   0.15980   0.01267  Uiso   1.00
C66    C     0.41190   0.95410   0.11310   0.01267  Uiso   1.00
C67    C     0.78890   0.74175   0.81445   0.01267  Uiso   1.00
C68    C     0.85420   0.78850   0.81730   0.01267  Uiso   1.00
C69    C     0.89180   0.84580   0.87420   0.01267  Uiso   1.00
C70    C     0.95290   0.89570   0.86910   0.01267  Uiso   1.00
C71    C     0.98250   0.95490   0.92390   0.01267  Uiso   1.00
C72    C     0.04410   0.00310   0.91830   0.01267  Uiso   1.00
C73    C     0.62170   0.64070   0.82010   0.01267  Uiso   1.00
C74    C     0.54900   0.59800   0.80860   0.01267  Uiso   1.00
C75    C     0.50110   0.62950   0.80490   0.01267  Uiso   1.00
C76    C     0.48130   0.64400   0.74820   0.01267  Uiso   1.00
C77    C     0.42950   0.67230   0.74550   0.01267  Uiso   1.00
C78    C     0.41090   0.68870   0.68930   0.01267  Uiso   1.00
C79    C     0.64650   0.11104   0.76078   0.01267  Uiso   1.00
C80    C     0.65730   0.05684   0.73376   0.01267  Uiso   1.00
C81    C     0.72430   0.05697   0.77343   0.01267  Uiso   1.00
C82    C     0.73750   0.00585   0.74215   0.01267  Uiso   1.00
C83    C     0.80400   0.00531   0.78069   0.01267  Uiso   1.00
C84    C     0.82070   0.95880   0.74220   0.01267  Uiso   1.00
C85    C     0.49550   0.17250   0.84350   0.01267  Uiso   1.00
C86    C     0.43770   0.19470   0.83550   0.01267  Uiso   1.00
C87    C     0.37420   0.16320   0.84760   0.01267  Uiso   1.00
C88    C     0.31160   0.17910   0.83230   0.01267  Uiso   1.00
C89    C     0.18700   0.08870   0.80550   0.01267  Uiso   1.00
C90    C     0.95840   0.56393   0.58545   0.01267  Uiso   1.00
C91    C     0.00010   0.58948   0.65312   0.01267  Uiso   1.00
C92    C     0.06410   0.63192   0.68728   0.01267  Uiso   1.00
C93    C     0.08680   0.64521   0.75119   0.01267  Uiso   1.00
C94    C     0.03650   0.60966   0.76206   0.01267  Uiso   1.00
C95    C     0.04110   0.60364   0.81938   0.01267  Uiso   1.00
C96    C     0.00030   0.60780   0.84878   0.01267  Uiso   1.00
C97    C     0.02200   0.59486   0.90176   0.01267  Uiso   1.00
C98    C     0.07690   0.58159   0.91165   0.01267  Uiso   1.00
C99    C     0.11320   0.56453   0.96023   0.01267  Uiso   1.00
C100   C     0.81550   0.41466   0.38434   0.01267  Uiso   1.00
C101   C     0.79600   0.34894   0.36892   0.01267  Uiso   1.00
C102   C     0.75930   0.30292   0.31348   0.01267  Uiso   1.00
C103   C     0.75160   0.24451   0.31421   0.01267  Uiso   1.00
C104   C     0.78260   0.24852   0.37266   0.01267  Uiso   1.00
C105   C     0.78630   0.20058   0.39450   0.01267  Uiso   1.00
C106   C     0.82340   0.16813   0.38805   0.01267  Uiso   1.00
C107   C     0.81640   0.12739   0.41893   0.01267  Uiso   1.00
C108   C     0.77610   0.12992   0.44778   0.01267  Uiso   1.00
C109   C     0.75460   0.09353   0.48165   0.01267  Uiso   1.00
C110   C     0.08900   0.41915   0.96879   0.01267  Uiso   1.00
C111   C     0.03060   0.35828   0.93190   0.01267  Uiso   1.00
C112   C     0.96960   0.33475   0.93645   0.01267  Uiso   1.00
C113   C     0.92350   0.27512   0.89260   0.01267  Uiso   1.00
C114   C     0.95060   0.25564   0.85516   0.01267  Uiso   1.00
C115   C     0.91810   0.19899   0.80063   0.01267  Uiso   1.00
C116   C     0.94270   0.15759   0.78561   0.01267  Uiso   1.00
C117   C     0.89910   0.11317   0.72637   0.01267  Uiso   1.00
C118   C     0.84230   0.12149   0.69701   0.01267  Uiso   1.00
C119   C     0.78660   0.08508   0.63436   0.01267  Uiso   1.00
C120   C     0.02480   0.56660   0.44218   0.01267  Uiso   1.00
C121   C     0.92390   0.54344   0.36328   0.01267  Uiso   1.00
C122   C     0.06100   0.57852   0.40796   0.01267  Uiso   1.00
C123   C     0.95550   0.55560   0.32740   0.01267  Uiso   1.00
C124   C     0.02640   0.57281   0.34907   0.01267  Uiso   1.00
C125   C     0.06250   0.58133   0.31169   0.01267  Uiso   1.00
C126   C     0.03360   0.57880   0.25530   0.01267  Uiso   1.00
C127   C     0.06610   0.57669   0.21341   0.01267  Uiso   1.00
C128   C     0.13300   0.58307   0.22973   0.01267  Uiso   1.00
C129   C     0.02740   0.56445   0.15279   0.01267  Uiso   1.00
C130   C     0.15680   0.57395   0.18645   0.01267  Uiso   1.00
C131   C     0.05470   0.55581   0.11237   0.01267  Uiso   1.00
C132   C     0.79280   0.92052   0.46948   0.01267  Uiso   1.00
C133   C     0.74820   0.88931   0.53069   0.01267  Uiso   1.00
C134   C     0.81640   0.87744   0.46276   0.01267  Uiso   1.00
C135   C     0.76890   0.84226   0.52514   0.01267  Uiso   1.00
C136   C     0.80160   0.83493   0.48807   0.01267  Uiso   1.00
C137   C     0.82360   0.78602   0.47918   0.01267  Uiso   1.00
C138   C     0.80650   0.74058   0.49542   0.01267  Uiso   1.00
C139   C     0.82760   0.69052   0.48508   0.01267  Uiso   1.00
C140   C     0.80440   0.64533   0.50503   0.01267  Uiso   1.00
C141   C     0.87260   0.68883   0.45957   0.01267  Uiso   1.00
C142   C     0.82600   0.59987   0.49817   0.01267  Uiso   1.00
C143   C     0.89180   0.64250   0.45490   0.01267  Uiso   1.00
C144   C     0.14690   0.70580   0.80160   0.01267  Uiso   1.00
C145   C     0.13610   0.76380   0.81120   0.01267  Uiso   1.00
C146   C     0.19750   0.82190   0.86150   0.01267  Uiso   1.00
C147   C     0.17780   0.87050   0.88990   0.01267  Uiso   1.00
C148   C     0.24090   0.93080   0.93600   0.01267  Uiso   1.00
C149   C     0.24100   0.98650   0.92070   0.01267  Uiso   1.00
C150   C     0.94240   0.62476   0.82964   0.01267  Uiso   1.00
C151   C     0.94510   0.67406   0.87974   0.01267  Uiso   1.00
C152   C     0.00830   0.73377   0.90523   0.01267  Uiso   1.00
C153   C     0.01520   0.77920   0.96120   0.01267  Uiso   1.00
C154   C     0.08060   0.84020   0.98840   0.01267  Uiso   1.00
C155   C     0.08810   0.88690   0.04590   0.01267  Uiso   1.00
C156   C     0.71110   0.18555   0.25825   0.01267  Uiso   1.00
C157   C     0.64580   0.18270   0.21150   0.01267  Uiso   1.00
C158   C     0.60820   0.12580   0.15420   0.01267  Uiso   1.00
C159   C     0.54710   0.13090   0.10430   0.01267  Uiso   1.00
C160   C     0.51750   0.07610   0.04510   0.01267  Uiso   1.00
C161   C     0.45590   0.08170   0.99690   0.01267  Uiso   1.00
C162   C     0.87830   0.17990   0.35930   0.01267  Uiso   1.00
C163   C     0.95100   0.19140   0.40200   0.01267  Uiso   1.00
C164   C     0.99890   0.19510   0.37050   0.01267  Uiso   1.00
C165   C     0.01870   0.25180   0.35600   0.01267  Uiso   1.00
C166   C     0.07050   0.25450   0.32770   0.01267  Uiso   1.00
C167   C     0.08910   0.31070   0.31130   0.01267  Uiso   1.00
C168   C     0.85350   0.23922   0.88896   0.01267  Uiso   1.00
C169   C     0.84270   0.26624   0.94316   0.01267  Uiso   1.00
C170   C     0.77570   0.22657   0.94303   0.01267  Uiso   1.00
C171   C     0.76250   0.25785   0.99415   0.01267  Uiso   1.00
C172   C     0.69600   0.21931   0.99469   0.01267  Uiso   1.00
C173   C     0.67930   0.25780   0.04120   0.01267  Uiso   1.00
C174   C     0.00450   0.15650   0.82750   0.01267  Uiso   1.00
C175   C     0.06230   0.16450   0.80530   0.01267  Uiso   1.00
C176   C     0.12580   0.15240   0.83680   0.01267  Uiso   1.00
C177   C     0.18840   0.16770   0.82090   0.01267  Uiso   1.00
C178   C     0.31300   0.19450   0.91130   0.01267  Uiso   1.00
C179   C     0.45840   0.58545   0.56393   0.01267  Uiso   1.00
C180   C     0.50010   0.65312   0.58948   0.01267  Uiso   1.00
C181   C     0.56410   0.68728   0.63192   0.01267  Uiso   1.00
C182   C     0.58680   0.75119   0.64521   0.01267  Uiso   1.00
C183   C     0.53650   0.76206   0.60966   0.01267  Uiso   1.00
C184   C     0.54110   0.81938   0.60364   0.01267  Uiso   1.00
C185   C     0.50030   0.84878   0.60780   0.01267  Uiso   1.00
C186   C     0.52200   0.90176   0.59486   0.01267  Uiso   1.00
C187   C     0.57690   0.91165   0.58159   0.01267  Uiso   1.00
C188   C     0.61320   0.96023   0.56453   0.01267  Uiso   1.00
C189   C     0.31550   0.38434   0.41466   0.01267  Uiso   1.00
C190   C     0.29600   0.36892   0.34894   0.01267  Uiso   1.00
C191   C     0.25930   0.31348   0.30292   0.01267  Uiso   1.00
C192   C     0.25160   0.31421   0.24451   0.01267  Uiso   1.00
C193   C     0.28260   0.37266   0.24852   0.01267  Uiso   1.00
C194   C     0.28630   0.39450   0.20058   0.01267  Uiso   1.00
C195   C     0.32340   0.38805   0.16813   0.01267  Uiso   1.00
C196   C     0.31640   0.41893   0.12739   0.01267  Uiso   1.00
C197   C     0.27610   0.44778   0.12992   0.01267  Uiso   1.00
C198   C     0.25460   0.48165   0.09353   0.01267  Uiso   1.00
C199   C     0.58900   0.96879   0.41915   0.01267  Uiso   1.00
C200   C     0.53060   0.93190   0.35828   0.01267  Uiso   1.00
C201   C     0.46960   0.93645   0.33475   0.01267  Uiso   1.00
C202   C     0.42350   0.89260   0.27512   0.01267  Uiso   1.00
C203   C     0.45060   0.85516   0.25564   0.01267  Uiso   1.00
C204   C     0.41810   0.80063   0.19899   0.01267  Uiso   1.00
C205   C     0.44270   0.78561   0.15759   0.01267  Uiso   1.00
C206   C     0.39910   0.72637   0.11317   0.01267  Uiso   1.00
C207   C     0.34230   0.69701   0.12149   0.01267  Uiso   1.00
C208   C     0.28660   0.63436   0.08508   0.01267  Uiso   1.00
C209   C     0.52480   0.44218   0.56660   0.01267  Uiso   1.00
C210   C     0.42390   0.36328   0.54344   0.01267  Uiso   1.00
C211   C     0.56100   0.40796   0.57852   0.01267  Uiso   1.00
C212   C     0.45550   0.32740   0.55560   0.01267  Uiso   1.00
C213   C     0.52640   0.34907   0.57281   0.01267  Uiso   1.00
C214   C     0.56250   0.31169   0.58133   0.01267  Uiso   1.00
C215   C     0.53360   0.25530   0.57880   0.01267  Uiso   1.00
C216   C     0.56610   0.21341   0.57669   0.01267  Uiso   1.00
C217   C     0.63300   0.22973   0.58307   0.01267  Uiso   1.00
C218   C     0.52740   0.15279   0.56445   0.01267  Uiso   1.00
C219   C     0.65680   0.18645   0.57395   0.01267  Uiso   1.00
C220   C     0.55470   0.11237   0.55581   0.01267  Uiso   1.00
C221   C     0.29280   0.46948   0.92052   0.01267  Uiso   1.00
C222   C     0.24820   0.53069   0.88931   0.01267  Uiso   1.00
C223   C     0.31640   0.46276   0.87744   0.01267  Uiso   1.00
C224   C     0.26890   0.52514   0.84226   0.01267  Uiso   1.00
C225   C     0.30160   0.48807   0.83493   0.01267  Uiso   1.00
C226   C     0.32360   0.47918   0.78602   0.01267  Uiso   1.00
C227   C     0.30650   0.49542   0.74058   0.01267  Uiso   1.00
C228   C     0.32760   0.48508   0.69052   0.01267  Uiso   1.00
C229   C     0.30440   0.50503   0.64533   0.01267  Uiso   1.00
C230   C     0.37260   0.45957   0.68883   0.01267  Uiso   1.00
C231   C     0.32600   0.49817   0.59987   0.01267  Uiso   1.00
C232   C     0.39180   0.45490   0.64250   0.01267  Uiso   1.00
C233   C     0.64690   0.80160   0.70580   0.01267  Uiso   1.00
C234   C     0.63610   0.81120   0.76380   0.01267  Uiso   1.00
C235   C     0.69750   0.86150   0.82190   0.01267  Uiso   1.00
C236   C     0.67780   0.88990   0.87050   0.01267  Uiso   1.00
C237   C     0.74090   0.93600   0.93080   0.01267  Uiso   1.00
C238   C     0.74100   0.92070   0.98650   0.01267  Uiso   1.00
C239   C     0.44240   0.82964   0.62476   0.01267  Uiso   1.00
C240   C     0.44510   0.87974   0.67406   0.01267  Uiso   1.00
C241   C     0.50830   0.90523   0.73377   0.01267  Uiso   1.00
C242   C     0.51520   0.96120   0.77920   0.01267  Uiso   1.00
C243   C     0.58060   0.98840   0.84020   0.01267  Uiso   1.00
C244   C     0.58810   0.04590   0.88690   0.01267  Uiso   1.00
C245   C     0.21110   0.25825   0.18555   0.01267  Uiso   1.00
C246   C     0.14580   0.21150   0.18270   0.01267  Uiso   1.00
C247   C     0.10820   0.15420   0.12580   0.01267  Uiso   1.00
C248   C     0.04710   0.10430   0.13090   0.01267  Uiso   1.00
C249   C     0.01750   0.04510   0.07610   0.01267  Uiso   1.00
C250   C     0.95590   0.99690   0.08170   0.01267  Uiso   1.00
C251   C     0.37830   0.35930   0.17990   0.01267  Uiso   1.00
C252   C     0.45100   0.40200   0.19140   0.01267  Uiso   1.00
C253   C     0.49890   0.37050   0.19510   0.01267  Uiso   1.00
C254   C     0.51870   0.35600   0.25180   0.01267  Uiso   1.00
C255   C     0.57050   0.32770   0.25450   0.01267  Uiso   1.00
C256   C     0.58910   0.31130   0.31070   0.01267  Uiso   1.00
C257   C     0.35350   0.88896   0.23922   0.01267  Uiso   1.00
C258   C     0.34270   0.94316   0.26624   0.01267  Uiso   1.00
C259   C     0.27570   0.94303   0.22657   0.01267  Uiso   1.00
C260   C     0.26250   0.99415   0.25785   0.01267  Uiso   1.00
C261   C     0.19600   0.99469   0.21931   0.01267  Uiso   1.00
C262   C     0.17930   0.04120   0.25780   0.01267  Uiso   1.00
C263   C     0.50450   0.82750   0.15650   0.01267  Uiso   1.00
C264   C     0.56230   0.80530   0.16450   0.01267  Uiso   1.00
C265   C     0.62580   0.83680   0.15240   0.01267  Uiso   1.00
C266   C     0.68840   0.82090   0.16770   0.01267  Uiso   1.00
C267   C     0.81300   0.91130   0.19450   0.01267  Uiso   1.00
C268   C     0.04160   0.43607   0.41455   0.01267  Uiso   1.00
C269   C     0.99990   0.41052   0.34688   0.01267  Uiso   1.00
C270   C     0.93590   0.36808   0.31272   0.01267  Uiso   1.00
C271   C     0.91320   0.35479   0.24881   0.01267  Uiso   1.00
C272   C     0.96350   0.39034   0.23794   0.01267  Uiso   1.00
C273   C     0.95890   0.39636   0.18062   0.01267  Uiso   1.00
C274   C     0.99970   0.39220   0.15122   0.01267  Uiso   1.00
C275   C     0.97800   0.40514   0.09824   0.01267  Uiso   1.00
C276   C     0.92310   0.41841   0.08835   0.01267  Uiso   1.00
C277   C     0.88680   0.43547   0.03977   0.01267  Uiso   1.00
C278   C     0.18450   0.58534   0.61566   0.01267  Uiso   1.00
C279   C     0.20400   0.65106   0.63108   0.01267  Uiso   1.00
C280   C     0.24070   0.69708   0.68652   0.01267  Uiso   1.00
C281   C     0.24840   0.75549   0.68579   0.01267  Uiso   1.00
C282   C     0.21740   0.75148   0.62734   0.01267  Uiso   1.00
C283   C     0.21370   0.79942   0.60550   0.01267  Uiso   1.00
C284   C     0.17660   0.83187   0.61195   0.01267  Uiso   1.00
C285   C     0.18360   0.87261   0.58107   0.01267  Uiso   1.00
C286   C     0.22390   0.87008   0.55222   0.01267  Uiso   1.00
C287   C     0.24540   0.90647   0.51835   0.01267  Uiso   1.00
C288   C     0.91100   0.58085   0.03121   0.01267  Uiso   1.00
C289   C     0.96940   0.64172   0.06810   0.01267  Uiso   1.00
C290   C     0.03040   0.66525   0.06355   0.01267  Uiso   1.00
C291   C     0.07650   0.72488   0.10740   0.01267  Uiso   1.00
C292   C     0.04940   0.74436   0.14484   0.01267  Uiso   1.00
C293   C     0.08190   0.80101   0.19937   0.01267  Uiso   1.00
C294   C     0.05730   0.84241   0.21439   0.01267  Uiso   1.00
C295   C     0.10090   0.88683   0.27363   0.01267  Uiso   1.00
C296   C     0.15770   0.87851   0.30299   0.01267  Uiso   1.00
C297   C     0.21340   0.91492   0.36564   0.01267  Uiso   1.00
C298   C     0.97520   0.43340   0.55782   0.01267  Uiso   1.00
C299   C     0.07610   0.45656   0.63672   0.01267  Uiso   1.00
C300   C     0.93900   0.42148   0.59204   0.01267  Uiso   1.00
C301   C     0.04450   0.44440   0.67260   0.01267  Uiso   1.00
C302   C     0.97360   0.42719   0.65093   0.01267  Uiso   1.00
C303   C     0.93750   0.41867   0.68831   0.01267  Uiso   1.00
C304   C     0.96640   0.42120   0.74470   0.01267  Uiso   1.00
C305   C     0.93390   0.42331   0.78659   0.01267  Uiso   1.00
C306   C     0.86700   0.41693   0.77027   0.01267  Uiso   1.00
C307   C     0.97260   0.43555   0.84721   0.01267  Uiso   1.00
C308   C     0.84320   0.42605   0.81355   0.01267  Uiso   1.00
C309   C     0.94530   0.44419   0.88763   0.01267  Uiso   1.00
C310   C     0.20720   0.07948   0.53052   0.01267  Uiso   1.00
C311   C     0.25180   0.11069   0.46931   0.01267  Uiso   1.00
C312   C     0.18360   0.12256   0.53724   0.01267  Uiso   1.00
C313   C     0.23110   0.15774   0.47486   0.01267  Uiso   1.00
C314   C     0.19840   0.16507   0.51193   0.01267  Uiso   1.00
C315   C     0.17640   0.21398   0.52082   0.01267  Uiso   1.00
C316   C     0.19350   0.25942   0.50458   0.01267  Uiso   1.00
C317   C     0.17240   0.30948   0.51492   0.01267  Uiso   1.00
C318   C     0.19560   0.35467   0.49497   0.01267  Uiso   1.00
C319   C     0.12740   0.31117   0.54043   0.01267  Uiso   1.00
C320   C     0.17400   0.40013   0.50183   0.01267  Uiso   1.00
C321   C     0.10820   0.35750   0.54510   0.01267  Uiso   1.00
C322   C     0.85310   0.29420   0.19840   0.01267  Uiso   1.00
C323   C     0.86390   0.23620   0.18880   0.01267  Uiso   1.00
C324   C     0.80250   0.17810   0.13850   0.01267  Uiso   1.00
C325   C     0.82220   0.12950   0.11010   0.01267  Uiso   1.00
C326   C     0.75910   0.06920   0.06400   0.01267  Uiso   1.00
C327   C     0.75900   0.01350   0.07930   0.01267  Uiso   1.00
C328   C     0.05760   0.37524   0.17036   0.01267  Uiso   1.00
C329   C     0.05490   0.32594   0.12026   0.01267  Uiso   1.00
C330   C     0.99170   0.26623   0.09477   0.01267  Uiso   1.00
C331   C     0.98480   0.22080   0.03880   0.01267  Uiso   1.00
C332   C     0.91940   0.15980   0.01160   0.01267  Uiso   1.00
C333   C     0.91190   0.11310   0.95410   0.01267  Uiso   1.00
C334   C     0.28890   0.81445   0.74175   0.01267  Uiso   1.00
C335   C     0.35420   0.81730   0.78850   0.01267  Uiso   1.00
C336   C     0.39180   0.87420   0.84580   0.01267  Uiso   1.00
C337   C     0.45290   0.86910   0.89570   0.01267  Uiso   1.00
C338   C     0.48250   0.92390   0.95490   0.01267  Uiso   1.00
C339   C     0.54410   0.91830   0.00310   0.01267  Uiso   1.00
C340   C     0.12170   0.82010   0.64070   0.01267  Uiso   1.00
C341   C     0.04900   0.80860   0.59800   0.01267  Uiso   1.00
C342   C     0.00110   0.80490   0.62950   0.01267  Uiso   1.00
C343   C     0.98130   0.74820   0.64400   0.01267  Uiso   1.00
C344   C     0.92950   0.74550   0.67230   0.01267  Uiso   1.00
C345   C     0.91090   0.68930   0.68870   0.01267  Uiso   1.00
C346   C     0.14650   0.76078   0.11104   0.01267  Uiso   1.00
C347   C     0.15730   0.73376   0.05684   0.01267  Uiso   1.00
C348   C     0.22430   0.77343   0.05697   0.01267  Uiso   1.00
C349   C     0.23750   0.74215   0.00585   0.01267  Uiso   1.00
C350   C     0.30400   0.78069   0.00531   0.01267  Uiso   1.00
C351   C     0.32070   0.74220   0.95880   0.01267  Uiso   1.00
C352   C     0.99550   0.84350   0.17250   0.01267  Uiso   1.00
C353   C     0.93770   0.83550   0.19470   0.01267  Uiso   1.00
C354   C     0.87420   0.84760   0.16320   0.01267  Uiso   1.00
C355   C     0.81160   0.83230   0.17910   0.01267  Uiso   1.00
C356   C     0.68700   0.80550   0.08870   0.01267  Uiso   1.00
C357   C     0.25000   0.15170   0.84830   0.01267  Uiso   1.00
C358   C     0.75000   0.84830   0.15170   0.01267  Uiso   1.00
S1     S     0.53787   0.30343   0.43563   0.01267  Uiso   1.00
S2     S     0.39677   0.14465   0.41723   0.01267  Uiso   1.00
S3     S     0.67879   0.57547   0.67781   0.01267  Uiso   1.00
S4     S     0.75457   0.56105   0.81719   0.01267  Uiso   1.00
S5     S     0.46832   0.12705   0.69097   0.01267  Uiso   1.00
S6     S     0.65802   0.25804   0.81616   0.01267  Uiso   1.00
S7     S     0.96213   0.56437   0.69657   0.01267  Uiso   1.00
S8     S     0.10323   0.58277   0.85535   0.01267  Uiso   1.00
S9     S     0.82121   0.32219   0.42453   0.01267  Uiso   1.00
S10    S     0.74543   0.18281   0.43895   0.01267  Uiso   1.00
S11    S     0.03168   0.30903   0.87295   0.01267  Uiso   1.00
S12    S     0.84198   0.18384   0.74196   0.01267  Uiso   1.00
S13    S     0.46213   0.69657   0.56437   0.01267  Uiso   1.00
S14    S     0.60323   0.85535   0.58277   0.01267  Uiso   1.00
S15    S     0.32121   0.42453   0.32219   0.01267  Uiso   1.00
S16    S     0.24543   0.43895   0.18281   0.01267  Uiso   1.00
S17    S     0.53168   0.87295   0.30903   0.01267  Uiso   1.00
S18    S     0.34198   0.74196   0.18384   0.01267  Uiso   1.00
S19    S     0.03787   0.43563   0.30343   0.01267  Uiso   1.00
S20    S     0.89677   0.41723   0.14465   0.01267  Uiso   1.00
S21    S     0.17879   0.67781   0.57547   0.01267  Uiso   1.00
S22    S     0.25457   0.81719   0.56105   0.01267  Uiso   1.00
S23    S     0.96832   0.69097   0.12705   0.01267  Uiso   1.00
S24    S     0.15802   0.81616   0.25804   0.01267  Uiso   1.00
N1     N     0.54340   0.57982   0.45156   0.01267  Uiso   1.00
N2     N     0.38250   0.87240   0.44078   0.01267  Uiso   1.00
N3     N     0.74110   0.49745   0.07299   0.01267  Uiso   1.00
N4     N     0.63130   0.52703   0.40263   0.01267  Uiso   1.00
N5     N     0.95660   0.54844   0.42018   0.01267  Uiso   1.00
N6     N     0.11750   0.55922   0.12760   0.01267  Uiso   1.00
N7     N     0.75890   0.92701   0.50255   0.01267  Uiso   1.00
N8     N     0.86870   0.59737   0.47297   0.01267  Uiso   1.00
N9     N     0.45660   0.42018   0.54844   0.01267  Uiso   1.00
N10    N     0.61750   0.12760   0.55922   0.01267  Uiso   1.00
N11    N     0.25890   0.50255   0.92701   0.01267  Uiso   1.00
N12    N     0.36870   0.47297   0.59737   0.01267  Uiso   1.00
N13    N     0.04340   0.45156   0.57982   0.01267  Uiso   1.00
N14    N     0.88250   0.44078   0.87240   0.01267  Uiso   1.00
N15    N     0.24110   0.07299   0.49745   0.01267  Uiso   1.00
N16    N     0.13130   0.40263   0.52703   0.01267  Uiso   1.00
O1     O     0.60540   0.43599   0.46535   0.01267  Uiso   1.00
O2     O     0.50942   0.44550   0.42624   0.01267  Uiso   1.00
O3     O     0.40260   0.99630   0.43186   0.01267  Uiso   1.00
O4     O     0.34248   0.04627   0.45271   0.01267  Uiso   1.00
O5     O     0.64830   0.55858   0.55292   0.01267  Uiso   1.00
O6     O     0.70229   0.65574   0.56624   0.01267  Uiso   1.00
O7     O     0.78291   0.49480   0.89404   0.01267  Uiso   1.00
O8     O     0.72674   0.51668   0.94822   0.01267  Uiso   1.00
O9     O     0.41641   0.99035   0.54573   0.01267  Uiso   1.00
O10    O     0.36027   0.04397   0.56875   0.01267  Uiso   1.00
O11    O     0.76335   0.37942   0.90096   0.01267  Uiso   1.00
O12    O     0.20576   0.95558   0.39910   0.01267  Uiso   1.00
O13    O     0.89460   0.53465   0.56401   0.01267  Uiso   1.00
O14    O     0.99058   0.57376   0.55450   0.01267  Uiso   1.00
O15    O     0.09740   0.56814   0.00370   0.01267  Uiso   1.00
O16    O     0.15752   0.54729   0.95373   0.01267  Uiso   1.00
O17    O     0.85170   0.44708   0.44142   0.01267  Uiso   1.00
O18    O     0.79771   0.43376   0.34426   0.01267  Uiso   1.00
O19    O     0.71709   0.10596   0.50520   0.01267  Uiso   1.00
O20    O     0.77326   0.05178   0.48332   0.01267  Uiso   1.00
O21    O     0.08359   0.45427   0.00965   0.01267  Uiso   1.00
O22    O     0.13973   0.43125   0.95603   0.01267  Uiso   1.00
O23    O     0.73665   0.09904   0.62058   0.01267  Uiso   1.00
O24    O     0.29424   0.60090   0.04442   0.01267  Uiso   1.00
O25    O     0.39460   0.56401   0.53465   0.01267  Uiso   1.00
O26    O     0.49058   0.55450   0.57376   0.01267  Uiso   1.00
O27    O     0.59740   0.00370   0.56814   0.01267  Uiso   1.00
O28    O     0.65752   0.95373   0.54729   0.01267  Uiso   1.00
O29    O     0.35170   0.44142   0.44708   0.01267  Uiso   1.00
O30    O     0.29771   0.34426   0.43376   0.01267  Uiso   1.00
O31    O     0.21709   0.50520   0.10596   0.01267  Uiso   1.00
O32    O     0.27326   0.48332   0.05178   0.01267  Uiso   1.00
O33    O     0.58359   0.00965   0.45427   0.01267  Uiso   1.00
O34    O     0.63973   0.95603   0.43125   0.01267  Uiso   1.00
O35    O     0.23665   0.62058   0.09904   0.01267  Uiso   1.00
O36    O     0.79424   0.04442   0.60090   0.01267  Uiso   1.00
O37    O     0.10540   0.46535   0.43599   0.01267  Uiso   1.00
O38    O     0.00942   0.42624   0.44550   0.01267  Uiso   1.00
O39    O     0.90260   0.43186   0.99630   0.01267  Uiso   1.00
O40    O     0.84248   0.45271   0.04627   0.01267  Uiso   1.00
O41    O     0.14830   0.55292   0.55858   0.01267  Uiso   1.00
O42    O     0.20229   0.56624   0.65574   0.01267  Uiso   1.00
O43    O     0.28291   0.89404   0.49480   0.01267  Uiso   1.00
O44    O     0.22674   0.94822   0.51668   0.01267  Uiso   1.00
O45    O     0.91641   0.54573   0.99035   0.01267  Uiso   1.00
O46    O     0.86027   0.56875   0.04397   0.01267  Uiso   1.00
O47    O     0.26335   0.90096   0.37942   0.01267  Uiso   1.00
O48    O     0.70576   0.39910   0.95558   0.01267  Uiso   1.00
