data_image0
_cell_length_a       30.7911
_cell_length_b       30.7911
_cell_length_c       30.7911
_cell_angle_alpha    90
_cell_angle_beta     90
_cell_angle_gamma    90

_symmetry_space_group_name_H-M    "P 1"
_symmetry_int_tables_number       1

loop_
  _symmetry_equiv_pos_as_xyz
  'x, y, z'

loop_
  _atom_site_label
  _atom_site_occupancy
  _atom_site_fract_x
  _atom_site_fract_y
  _atom_site_fract_z
  _atom_site_thermal_displace_type
  _atom_site_B_iso_or_equiv
  _atom_site_type_symbol
  O1       1.0000 0.15586  0.04462  0.29273  Biso   1.000  O
  O2       1.0000 0.15605  0.95497  0.20750  Biso   1.000  O
  O3       1.0000 0.15586  0.54462  0.79273  Biso   1.000  O
  O4       1.0000 0.15605  0.45497  0.70750  Biso   1.000  O
  O5       1.0000 0.65586  0.04462  0.79273  Biso   1.000  O
  O6       1.0000 0.65605  0.95497  0.70750  Biso   1.000  O
  O7       1.0000 0.65586  0.54462  0.29273  Biso   1.000  O
  O8       1.0000 0.65605  0.45497  0.20750  Biso   1.000  O
  O9       1.0000 0.84414  0.95538  0.29273  Biso   1.000  O
  O10      1.0000 0.84395  0.04503  0.20750  Biso   1.000  O
  O11      1.0000 0.84414  0.45538  0.79273  Biso   1.000  O
  O12      1.0000 0.84395  0.54503  0.70750  Biso   1.000  O
  O13      1.0000 0.34414  0.95538  0.79273  Biso   1.000  O
  O14      1.0000 0.34395  0.04503  0.70750  Biso   1.000  O
  O15      1.0000 0.34414  0.45538  0.29273  Biso   1.000  O
  O16      1.0000 0.34395  0.54503  0.20750  Biso   1.000  O
  O17      1.0000 0.84414  0.04462  0.70727  Biso   1.000  O
  O18      1.0000 0.84395  0.95497  0.79250  Biso   1.000  O
  O19      1.0000 0.84414  0.54462  0.20727  Biso   1.000  O
  O20      1.0000 0.84395  0.45497  0.29250  Biso   1.000  O
  O21      1.0000 0.34414  0.04462  0.20727  Biso   1.000  O
  O22      1.0000 0.34395  0.95497  0.29250  Biso   1.000  O
  O23      1.0000 0.34414  0.54462  0.70727  Biso   1.000  O
  O24      1.0000 0.34395  0.45497  0.79250  Biso   1.000  O
  O25      1.0000 0.15586  0.95538  0.70727  Biso   1.000  O
  O26      1.0000 0.15605  0.04503  0.79250  Biso   1.000  O
  O27      1.0000 0.15586  0.45538  0.20727  Biso   1.000  O
  O28      1.0000 0.15605  0.54503  0.29250  Biso   1.000  O
  O29      1.0000 0.65586  0.95538  0.20727  Biso   1.000  O
  O30      1.0000 0.65605  0.04503  0.29250  Biso   1.000  O
  O31      1.0000 0.65586  0.45538  0.70727  Biso   1.000  O
  O32      1.0000 0.65605  0.54503  0.79250  Biso   1.000  O
  O33      1.0000 0.29273  0.15586  0.04462  Biso   1.000  O
  O34      1.0000 0.20750  0.15605  0.95497  Biso   1.000  O
  O35      1.0000 0.29273  0.65586  0.54462  Biso   1.000  O
  O36      1.0000 0.20750  0.65605  0.45497  Biso   1.000  O
  O37      1.0000 0.79273  0.15586  0.54462  Biso   1.000  O
  O38      1.0000 0.70750  0.15605  0.45497  Biso   1.000  O
  O39      1.0000 0.79273  0.65586  0.04462  Biso   1.000  O
  O40      1.0000 0.70750  0.65605  0.95497  Biso   1.000  O
  O41      1.0000 0.29273  0.84414  0.95538  Biso   1.000  O
  O42      1.0000 0.20750  0.84395  0.04503  Biso   1.000  O
  O43      1.0000 0.29273  0.34414  0.45538  Biso   1.000  O
  O44      1.0000 0.20750  0.34395  0.54503  Biso   1.000  O
  O45      1.0000 0.79273  0.84414  0.45538  Biso   1.000  O
  O46      1.0000 0.70750  0.84395  0.54503  Biso   1.000  O
  O47      1.0000 0.79273  0.34414  0.95538  Biso   1.000  O
  O48      1.0000 0.70750  0.34395  0.04503  Biso   1.000  O
  O49      1.0000 0.70727  0.84414  0.04462  Biso   1.000  O
  O50      1.0000 0.79250  0.84395  0.95497  Biso   1.000  O
  O51      1.0000 0.70727  0.34414  0.54462  Biso   1.000  O
  O52      1.0000 0.79250  0.34395  0.45497  Biso   1.000  O
  O53      1.0000 0.20727  0.84414  0.54462  Biso   1.000  O
  O54      1.0000 0.29250  0.84395  0.45497  Biso   1.000  O
  O55      1.0000 0.20727  0.34414  0.04462  Biso   1.000  O
  O56      1.0000 0.29250  0.34395  0.95497  Biso   1.000  O
  O57      1.0000 0.70727  0.15586  0.95538  Biso   1.000  O
  O58      1.0000 0.79250  0.15605  0.04503  Biso   1.000  O
  O59      1.0000 0.70727  0.65586  0.45538  Biso   1.000  O
  O60      1.0000 0.79250  0.65605  0.54503  Biso   1.000  O
  O61      1.0000 0.20727  0.15586  0.45538  Biso   1.000  O
  O62      1.0000 0.29250  0.15605  0.54503  Biso   1.000  O
  O63      1.0000 0.20727  0.65586  0.95538  Biso   1.000  O
  O64      1.0000 0.29250  0.65605  0.04503  Biso   1.000  O
  O65      1.0000 0.04462  0.29273  0.15586  Biso   1.000  O
  O66      1.0000 0.95497  0.20750  0.15605  Biso   1.000  O
  O67      1.0000 0.04462  0.79273  0.65586  Biso   1.000  O
  O68      1.0000 0.95497  0.70750  0.65605  Biso   1.000  O
  O69      1.0000 0.54462  0.29273  0.65586  Biso   1.000  O
  O70      1.0000 0.45497  0.20750  0.65605  Biso   1.000  O
  O71      1.0000 0.54462  0.79273  0.15586  Biso   1.000  O
  O72      1.0000 0.45497  0.70750  0.15605  Biso   1.000  O
  O73      1.0000 0.95538  0.29273  0.84414  Biso   1.000  O
  O74      1.0000 0.04503  0.20750  0.84395  Biso   1.000  O
  O75      1.0000 0.95538  0.79273  0.34414  Biso   1.000  O
  O76      1.0000 0.04503  0.70750  0.34395  Biso   1.000  O
  O77      1.0000 0.45538  0.29273  0.34414  Biso   1.000  O
  O78      1.0000 0.54503  0.20750  0.34395  Biso   1.000  O
  O79      1.0000 0.45538  0.79273  0.84414  Biso   1.000  O
  O80      1.0000 0.54503  0.70750  0.84395  Biso   1.000  O
  O81      1.0000 0.04462  0.70727  0.84414  Biso   1.000  O
  O82      1.0000 0.95497  0.79250  0.84395  Biso   1.000  O
  O83      1.0000 0.04462  0.20727  0.34414  Biso   1.000  O
  O84      1.0000 0.95497  0.29250  0.34395  Biso   1.000  O
  O85      1.0000 0.54462  0.70727  0.34414  Biso   1.000  O
  O86      1.0000 0.45497  0.79250  0.34395  Biso   1.000  O
  O87      1.0000 0.54462  0.20727  0.84414  Biso   1.000  O
  O88      1.0000 0.45497  0.29250  0.84395  Biso   1.000  O
  O89      1.0000 0.95538  0.70727  0.15586  Biso   1.000  O
  O90      1.0000 0.04503  0.79250  0.15605  Biso   1.000  O
  O91      1.0000 0.95538  0.20727  0.65586  Biso   1.000  O
  O92      1.0000 0.04503  0.29250  0.65605  Biso   1.000  O
  O93      1.0000 0.45538  0.70727  0.65586  Biso   1.000  O
  O94      1.0000 0.54503  0.79250  0.65605  Biso   1.000  O
  O95      1.0000 0.45538  0.20727  0.15586  Biso   1.000  O
  O96      1.0000 0.54503  0.29250  0.15605  Biso   1.000  O
  O97      1.0000 0.04462  0.15586  0.70727  Biso   1.000  O
  O98      1.0000 0.95497  0.15605  0.79250  Biso   1.000  O
  O99      1.0000 0.04462  0.65586  0.20727  Biso   1.000  O
  O100     1.0000 0.95497  0.65605  0.29250  Biso   1.000  O
  O101     1.0000 0.54462  0.15586  0.20727  Biso   1.000  O
  O102     1.0000 0.45497  0.15605  0.29250  Biso   1.000  O
  O103     1.0000 0.54462  0.65586  0.70727  Biso   1.000  O
  O104     1.0000 0.45497  0.65605  0.79250  Biso   1.000  O
  O105     1.0000 0.95538  0.84414  0.70727  Biso   1.000  O
  O106     1.0000 0.04503  0.84395  0.79250  Biso   1.000  O
  O107     1.0000 0.95538  0.34414  0.20727  Biso   1.000  O
  O108     1.0000 0.04503  0.34395  0.29250  Biso   1.000  O
  O109     1.0000 0.45538  0.84414  0.20727  Biso   1.000  O
  O110     1.0000 0.54503  0.84395  0.29250  Biso   1.000  O
  O111     1.0000 0.45538  0.34414  0.70727  Biso   1.000  O
  O112     1.0000 0.54503  0.34395  0.79250  Biso   1.000  O
  O113     1.0000 0.04462  0.84414  0.29273  Biso   1.000  O
  O114     1.0000 0.95497  0.84395  0.20750  Biso   1.000  O
  O115     1.0000 0.04462  0.34414  0.79273  Biso   1.000  O
  O116     1.0000 0.95497  0.34395  0.70750  Biso   1.000  O
  O117     1.0000 0.54462  0.84414  0.79273  Biso   1.000  O
  O118     1.0000 0.45497  0.84395  0.70750  Biso   1.000  O
  O119     1.0000 0.54462  0.34414  0.29273  Biso   1.000  O
  O120     1.0000 0.45497  0.34395  0.20750  Biso   1.000  O
  O121     1.0000 0.95538  0.15586  0.29273  Biso   1.000  O
  O122     1.0000 0.04503  0.15605  0.20750  Biso   1.000  O
  O123     1.0000 0.95538  0.65586  0.79273  Biso   1.000  O
  O124     1.0000 0.04503  0.65605  0.70750  Biso   1.000  O
  O125     1.0000 0.45538  0.15586  0.79273  Biso   1.000  O
  O126     1.0000 0.54503  0.15605  0.70750  Biso   1.000  O
  O127     1.0000 0.45538  0.65586  0.29273  Biso   1.000  O
  O128     1.0000 0.54503  0.65605  0.20750  Biso   1.000  O
  O129     1.0000 0.15586  0.29273  0.95538  Biso   1.000  O
  O130     1.0000 0.15605  0.20750  0.04503  Biso   1.000  O
  O131     1.0000 0.15586  0.79273  0.45538  Biso   1.000  O
  O132     1.0000 0.15605  0.70750  0.54503  Biso   1.000  O
  O133     1.0000 0.65586  0.29273  0.45538  Biso   1.000  O
  O134     1.0000 0.65605  0.20750  0.54503  Biso   1.000  O
  O135     1.0000 0.65586  0.79273  0.95538  Biso   1.000  O
  O136     1.0000 0.65605  0.70750  0.04503  Biso   1.000  O
  O137     1.0000 0.84414  0.29273  0.04462  Biso   1.000  O
  O138     1.0000 0.84395  0.20750  0.95497  Biso   1.000  O
  O139     1.0000 0.84414  0.79273  0.54462  Biso   1.000  O
  O140     1.0000 0.84395  0.70750  0.45497  Biso   1.000  O
  O141     1.0000 0.34414  0.29273  0.54462  Biso   1.000  O
  O142     1.0000 0.34395  0.20750  0.45497  Biso   1.000  O
  O143     1.0000 0.34414  0.79273  0.04462  Biso   1.000  O
  O144     1.0000 0.34395  0.70750  0.95497  Biso   1.000  O
  O145     1.0000 0.84414  0.70727  0.95538  Biso   1.000  O
  O146     1.0000 0.84395  0.79250  0.04503  Biso   1.000  O
  O147     1.0000 0.84414  0.20727  0.45538  Biso   1.000  O
  O148     1.0000 0.84395  0.29250  0.54503  Biso   1.000  O
  O149     1.0000 0.34414  0.70727  0.45538  Biso   1.000  O
  O150     1.0000 0.34395  0.79250  0.54503  Biso   1.000  O
  O151     1.0000 0.34414  0.20727  0.95538  Biso   1.000  O
  O152     1.0000 0.34395  0.29250  0.04503  Biso   1.000  O
  O153     1.0000 0.15586  0.70727  0.04462  Biso   1.000  O
  O154     1.0000 0.15605  0.79250  0.95497  Biso   1.000  O
  O155     1.0000 0.15586  0.20727  0.54462  Biso   1.000  O
  O156     1.0000 0.15605  0.29250  0.45497  Biso   1.000  O
  O157     1.0000 0.65586  0.70727  0.54462  Biso   1.000  O
  O158     1.0000 0.65605  0.79250  0.45497  Biso   1.000  O
  O159     1.0000 0.65586  0.20727  0.04462  Biso   1.000  O
  O160     1.0000 0.65605  0.29250  0.95497  Biso   1.000  O
  O161     1.0000 0.29273  0.04462  0.84414  Biso   1.000  O
  O162     1.0000 0.20750  0.95497  0.84395  Biso   1.000  O
  O163     1.0000 0.29273  0.54462  0.34414  Biso   1.000  O
  O164     1.0000 0.20750  0.45497  0.34395  Biso   1.000  O
  O165     1.0000 0.79273  0.04462  0.34414  Biso   1.000  O
  O166     1.0000 0.70750  0.95497  0.34395  Biso   1.000  O
  O167     1.0000 0.79273  0.54462  0.84414  Biso   1.000  O
  O168     1.0000 0.70750  0.45497  0.84395  Biso   1.000  O
  O169     1.0000 0.29273  0.95538  0.15586  Biso   1.000  O
  O170     1.0000 0.20750  0.04503  0.15605  Biso   1.000  O
  O171     1.0000 0.29273  0.45538  0.65586  Biso   1.000  O
  O172     1.0000 0.20750  0.54503  0.65605  Biso   1.000  O
  O173     1.0000 0.79273  0.95538  0.65586  Biso   1.000  O
  O174     1.0000 0.70750  0.04503  0.65605  Biso   1.000  O
  O175     1.0000 0.79273  0.45538  0.15586  Biso   1.000  O
  O176     1.0000 0.70750  0.54503  0.15605  Biso   1.000  O
  O177     1.0000 0.70727  0.04462  0.15586  Biso   1.000  O
  O178     1.0000 0.79250  0.95497  0.15605  Biso   1.000  O
  O179     1.0000 0.70727  0.54462  0.65586  Biso   1.000  O
  O180     1.0000 0.79250  0.45497  0.65605  Biso   1.000  O
  O181     1.0000 0.20727  0.04462  0.65586  Biso   1.000  O
  O182     1.0000 0.29250  0.95497  0.65605  Biso   1.000  O
  O183     1.0000 0.20727  0.54462  0.15586  Biso   1.000  O
  O184     1.0000 0.29250  0.45497  0.15605  Biso   1.000  O
  O185     1.0000 0.70727  0.95538  0.84414  Biso   1.000  O
  O186     1.0000 0.79250  0.04503  0.84395  Biso   1.000  O
  O187     1.0000 0.70727  0.45538  0.34414  Biso   1.000  O
  O188     1.0000 0.79250  0.54503  0.34395  Biso   1.000  O
  O189     1.0000 0.20727  0.95538  0.34414  Biso   1.000  O
  O190     1.0000 0.29250  0.04503  0.34395  Biso   1.000  O
  O191     1.0000 0.20727  0.45538  0.84414  Biso   1.000  O
  O192     1.0000 0.29250  0.54503  0.84395  Biso   1.000  O
  O193     1.0000 0.84414  0.95538  0.70727  Biso   1.000  O
  O194     1.0000 0.84395  0.04503  0.79250  Biso   1.000  O
  O195     1.0000 0.84414  0.45538  0.20727  Biso   1.000  O
  O196     1.0000 0.84395  0.54503  0.29250  Biso   1.000  O
  O197     1.0000 0.34414  0.95538  0.20727  Biso   1.000  O
  O198     1.0000 0.34395  0.04503  0.29250  Biso   1.000  O
  O199     1.0000 0.34414  0.45538  0.70727  Biso   1.000  O
  O200     1.0000 0.34395  0.54503  0.79250  Biso   1.000  O
  O201     1.0000 0.15586  0.04462  0.70727  Biso   1.000  O
  O202     1.0000 0.15605  0.95497  0.79250  Biso   1.000  O
  O203     1.0000 0.15586  0.54462  0.20727  Biso   1.000  O
  O204     1.0000 0.15605  0.45497  0.29250  Biso   1.000  O
  O205     1.0000 0.65586  0.04462  0.20727  Biso   1.000  O
  O206     1.0000 0.65605  0.95497  0.29250  Biso   1.000  O
  O207     1.0000 0.65586  0.54462  0.70727  Biso   1.000  O
  O208     1.0000 0.65605  0.45497  0.79250  Biso   1.000  O
  O209     1.0000 0.15586  0.95538  0.29273  Biso   1.000  O
  O210     1.0000 0.15605  0.04503  0.20750  Biso   1.000  O
  O211     1.0000 0.15586  0.45538  0.79273  Biso   1.000  O
  O212     1.0000 0.15605  0.54503  0.70750  Biso   1.000  O
  O213     1.0000 0.65586  0.95538  0.79273  Biso   1.000  O
  O214     1.0000 0.65605  0.04503  0.70750  Biso   1.000  O
  O215     1.0000 0.65586  0.45538  0.29273  Biso   1.000  O
  O216     1.0000 0.65605  0.54503  0.20750  Biso   1.000  O
  O217     1.0000 0.84414  0.04462  0.29273  Biso   1.000  O
  O218     1.0000 0.84395  0.95497  0.20750  Biso   1.000  O
  O219     1.0000 0.84414  0.54462  0.79273  Biso   1.000  O
  O220     1.0000 0.84395  0.45497  0.70750  Biso   1.000  O
  O221     1.0000 0.34414  0.04462  0.79273  Biso   1.000  O
  O222     1.0000 0.34395  0.95497  0.70750  Biso   1.000  O
  O223     1.0000 0.34414  0.54462  0.29273  Biso   1.000  O
  O224     1.0000 0.34395  0.45497  0.20750  Biso   1.000  O
  O225     1.0000 0.70727  0.84414  0.95538  Biso   1.000  O
  O226     1.0000 0.79250  0.84395  0.04503  Biso   1.000  O
  O227     1.0000 0.70727  0.34414  0.45538  Biso   1.000  O
  O228     1.0000 0.79250  0.34395  0.54503  Biso   1.000  O
  O229     1.0000 0.20727  0.84414  0.45538  Biso   1.000  O
  O230     1.0000 0.29250  0.84395  0.54503  Biso   1.000  O
  O231     1.0000 0.20727  0.34414  0.95538  Biso   1.000  O
  O232     1.0000 0.29250  0.34395  0.04503  Biso   1.000  O
  O233     1.0000 0.70727  0.15586  0.04462  Biso   1.000  O
  O234     1.0000 0.79250  0.15605  0.95497  Biso   1.000  O
  O235     1.0000 0.70727  0.65586  0.54462  Biso   1.000  O
  O236     1.0000 0.79250  0.65605  0.45497  Biso   1.000  O
  O237     1.0000 0.20727  0.15586  0.54462  Biso   1.000  O
  O238     1.0000 0.29250  0.15605  0.45497  Biso   1.000  O
  O239     1.0000 0.20727  0.65586  0.04462  Biso   1.000  O
  O240     1.0000 0.29250  0.65605  0.95497  Biso   1.000  O
  O241     1.0000 0.29273  0.15586  0.95538  Biso   1.000  O
  O242     1.0000 0.20750  0.15605  0.04503  Biso   1.000  O
  O243     1.0000 0.29273  0.65586  0.45538  Biso   1.000  O
  O244     1.0000 0.20750  0.65605  0.54503  Biso   1.000  O
  O245     1.0000 0.79273  0.15586  0.45538  Biso   1.000  O
  O246     1.0000 0.70750  0.15605  0.54503  Biso   1.000  O
  O247     1.0000 0.79273  0.65586  0.95538  Biso   1.000  O
  O248     1.0000 0.70750  0.65605  0.04503  Biso   1.000  O
  O249     1.0000 0.29273  0.84414  0.04462  Biso   1.000  O
  O250     1.0000 0.20750  0.84395  0.95497  Biso   1.000  O
  O251     1.0000 0.29273  0.34414  0.54462  Biso   1.000  O
  O252     1.0000 0.20750  0.34395  0.45497  Biso   1.000  O
  O253     1.0000 0.79273  0.84414  0.54462  Biso   1.000  O
  O254     1.0000 0.70750  0.84395  0.45497  Biso   1.000  O
  O255     1.0000 0.79273  0.34414  0.04462  Biso   1.000  O
  O256     1.0000 0.70750  0.34395  0.95497  Biso   1.000  O
  O257     1.0000 0.95538  0.70727  0.84414  Biso   1.000  O
  O258     1.0000 0.04503  0.79250  0.84395  Biso   1.000  O
  O259     1.0000 0.95538  0.20727  0.34414  Biso   1.000  O
  O260     1.0000 0.04503  0.29250  0.34395  Biso   1.000  O
  O261     1.0000 0.45538  0.70727  0.34414  Biso   1.000  O
  O262     1.0000 0.54503  0.79250  0.34395  Biso   1.000  O
  O263     1.0000 0.45538  0.20727  0.84414  Biso   1.000  O
  O264     1.0000 0.54503  0.29250  0.84395  Biso   1.000  O
  O265     1.0000 0.04462  0.70727  0.15586  Biso   1.000  O
  O266     1.0000 0.95497  0.79250  0.15605  Biso   1.000  O
  O267     1.0000 0.04462  0.20727  0.65586  Biso   1.000  O
  O268     1.0000 0.95497  0.29250  0.65605  Biso   1.000  O
  O269     1.0000 0.54462  0.70727  0.65586  Biso   1.000  O
  O270     1.0000 0.45497  0.79250  0.65605  Biso   1.000  O
  O271     1.0000 0.54462  0.20727  0.15586  Biso   1.000  O
  O272     1.0000 0.45497  0.29250  0.15605  Biso   1.000  O
  O273     1.0000 0.95538  0.29273  0.15586  Biso   1.000  O
  O274     1.0000 0.04503  0.20750  0.15605  Biso   1.000  O
  O275     1.0000 0.95538  0.79273  0.65586  Biso   1.000  O
  O276     1.0000 0.04503  0.70750  0.65605  Biso   1.000  O
  O277     1.0000 0.45538  0.29273  0.65586  Biso   1.000  O
  O278     1.0000 0.54503  0.20750  0.65605  Biso   1.000  O
  O279     1.0000 0.45538  0.79273  0.15586  Biso   1.000  O
  O280     1.0000 0.54503  0.70750  0.15605  Biso   1.000  O
  O281     1.0000 0.04462  0.29273  0.84414  Biso   1.000  O
  O282     1.0000 0.95497  0.20750  0.84395  Biso   1.000  O
  O283     1.0000 0.04462  0.79273  0.34414  Biso   1.000  O
  O284     1.0000 0.95497  0.70750  0.34395  Biso   1.000  O
  O285     1.0000 0.54462  0.29273  0.34414  Biso   1.000  O
  O286     1.0000 0.45497  0.20750  0.34395  Biso   1.000  O
  O287     1.0000 0.54462  0.79273  0.84414  Biso   1.000  O
  O288     1.0000 0.45497  0.70750  0.84395  Biso   1.000  O
  O289     1.0000 0.95538  0.84414  0.29273  Biso   1.000  O
  O290     1.0000 0.04503  0.84395  0.20750  Biso   1.000  O
  O291     1.0000 0.95538  0.34414  0.79273  Biso   1.000  O
  O292     1.0000 0.04503  0.34395  0.70750  Biso   1.000  O
  O293     1.0000 0.45538  0.84414  0.79273  Biso   1.000  O
  O294     1.0000 0.54503  0.84395  0.70750  Biso   1.000  O
  O295     1.0000 0.45538  0.34414  0.29273  Biso   1.000  O
  O296     1.0000 0.54503  0.34395  0.20750  Biso   1.000  O
  O297     1.0000 0.04462  0.15586  0.29273  Biso   1.000  O
  O298     1.0000 0.95497  0.15605  0.20750  Biso   1.000  O
  O299     1.0000 0.04462  0.65586  0.79273  Biso   1.000  O
  O300     1.0000 0.95497  0.65605  0.70750  Biso   1.000  O
  O301     1.0000 0.54462  0.15586  0.79273  Biso   1.000  O
  O302     1.0000 0.45497  0.15605  0.70750  Biso   1.000  O
  O303     1.0000 0.54462  0.65586  0.29273  Biso   1.000  O
  O304     1.0000 0.45497  0.65605  0.20750  Biso   1.000  O
  O305     1.0000 0.95538  0.15586  0.70727  Biso   1.000  O
  O306     1.0000 0.04503  0.15605  0.79250  Biso   1.000  O
  O307     1.0000 0.95538  0.65586  0.20727  Biso   1.000  O
  O308     1.0000 0.04503  0.65605  0.29250  Biso   1.000  O
  O309     1.0000 0.45538  0.15586  0.20727  Biso   1.000  O
  O310     1.0000 0.54503  0.15605  0.29250  Biso   1.000  O
  O311     1.0000 0.45538  0.65586  0.70727  Biso   1.000  O
  O312     1.0000 0.54503  0.65605  0.79250  Biso   1.000  O
  O313     1.0000 0.04462  0.84414  0.70727  Biso   1.000  O
  O314     1.0000 0.95497  0.84395  0.79250  Biso   1.000  O
  O315     1.0000 0.04462  0.34414  0.20727  Biso   1.000  O
  O316     1.0000 0.95497  0.34395  0.29250  Biso   1.000  O
  O317     1.0000 0.54462  0.84414  0.20727  Biso   1.000  O
  O318     1.0000 0.45497  0.84395  0.29250  Biso   1.000  O
  O319     1.0000 0.54462  0.34414  0.70727  Biso   1.000  O
  O320     1.0000 0.45497  0.34395  0.79250  Biso   1.000  O
  O321     1.0000 0.84414  0.70727  0.04462  Biso   1.000  O
  O322     1.0000 0.84395  0.79250  0.95497  Biso   1.000  O
  O323     1.0000 0.84414  0.20727  0.54462  Biso   1.000  O
  O324     1.0000 0.84395  0.29250  0.45497  Biso   1.000  O
  O325     1.0000 0.34414  0.70727  0.54462  Biso   1.000  O
  O326     1.0000 0.34395  0.79250  0.45497  Biso   1.000  O
  O327     1.0000 0.34414  0.20727  0.04462  Biso   1.000  O
  O328     1.0000 0.34395  0.29250  0.95497  Biso   1.000  O
  O329     1.0000 0.15586  0.70727  0.95538  Biso   1.000  O
  O330     1.0000 0.15605  0.79250  0.04503  Biso   1.000  O
  O331     1.0000 0.15586  0.20727  0.45538  Biso   1.000  O
  O332     1.0000 0.15605  0.29250  0.54503  Biso   1.000  O
  O333     1.0000 0.65586  0.70727  0.45538  Biso   1.000  O
  O334     1.0000 0.65605  0.79250  0.54503  Biso   1.000  O
  O335     1.0000 0.65586  0.20727  0.95538  Biso   1.000  O
  O336     1.0000 0.65605  0.29250  0.04503  Biso   1.000  O
  O337     1.0000 0.15586  0.29273  0.04462  Biso   1.000  O
  O338     1.0000 0.15605  0.20750  0.95497  Biso   1.000  O
  O339     1.0000 0.15586  0.79273  0.54462  Biso   1.000  O
  O340     1.0000 0.15605  0.70750  0.45497  Biso   1.000  O
  O341     1.0000 0.65586  0.29273  0.54462  Biso   1.000  O
  O342     1.0000 0.65605  0.20750  0.45497  Biso   1.000  O
  O343     1.0000 0.65586  0.79273  0.04462  Biso   1.000  O
  O344     1.0000 0.65605  0.70750  0.95497  Biso   1.000  O
  O345     1.0000 0.84414  0.29273  0.95538  Biso   1.000  O
  O346     1.0000 0.84395  0.20750  0.04503  Biso   1.000  O
  O347     1.0000 0.84414  0.79273  0.45538  Biso   1.000  O
  O348     1.0000 0.84395  0.70750  0.54503  Biso   1.000  O
  O349     1.0000 0.34414  0.29273  0.45538  Biso   1.000  O
  O350     1.0000 0.34395  0.20750  0.54503  Biso   1.000  O
  O351     1.0000 0.34414  0.79273  0.95538  Biso   1.000  O
  O352     1.0000 0.34395  0.70750  0.04503  Biso   1.000  O
  O353     1.0000 0.70727  0.95538  0.15586  Biso   1.000  O
  O354     1.0000 0.79250  0.04503  0.15605  Biso   1.000  O
  O355     1.0000 0.70727  0.45538  0.65586  Biso   1.000  O
  O356     1.0000 0.79250  0.54503  0.65605  Biso   1.000  O
  O357     1.0000 0.20727  0.95538  0.65586  Biso   1.000  O
  O358     1.0000 0.29250  0.04503  0.65605  Biso   1.000  O
  O359     1.0000 0.20727  0.45538  0.15586  Biso   1.000  O
  O360     1.0000 0.29250  0.54503  0.15605  Biso   1.000  O
  O361     1.0000 0.70727  0.04462  0.84414  Biso   1.000  O
  O362     1.0000 0.79250  0.95497  0.84395  Biso   1.000  O
  O363     1.0000 0.70727  0.54462  0.34414  Biso   1.000  O
  O364     1.0000 0.79250  0.45497  0.34395  Biso   1.000  O
  O365     1.0000 0.20727  0.04462  0.34414  Biso   1.000  O
  O366     1.0000 0.29250  0.95497  0.34395  Biso   1.000  O
  O367     1.0000 0.20727  0.54462  0.84414  Biso   1.000  O
  O368     1.0000 0.29250  0.45497  0.84395  Biso   1.000  O
  O369     1.0000 0.29273  0.95538  0.84414  Biso   1.000  O
  O370     1.0000 0.20750  0.04503  0.84395  Biso   1.000  O
  O371     1.0000 0.29273  0.45538  0.34414  Biso   1.000  O
  O372     1.0000 0.20750  0.54503  0.34395  Biso   1.000  O
  O373     1.0000 0.79273  0.95538  0.34414  Biso   1.000  O
  O374     1.0000 0.70750  0.04503  0.34395  Biso   1.000  O
  O375     1.0000 0.79273  0.45538  0.84414  Biso   1.000  O
  O376     1.0000 0.70750  0.54503  0.84395  Biso   1.000  O
  O377     1.0000 0.29273  0.04462  0.15586  Biso   1.000  O
  O378     1.0000 0.20750  0.95497  0.15605  Biso   1.000  O
  O379     1.0000 0.29273  0.54462  0.65586  Biso   1.000  O
  O380     1.0000 0.20750  0.45497  0.65605  Biso   1.000  O
  O381     1.0000 0.79273  0.04462  0.65586  Biso   1.000  O
  O382     1.0000 0.70750  0.95497  0.65605  Biso   1.000  O
  O383     1.0000 0.79273  0.54462  0.15586  Biso   1.000  O
  O384     1.0000 0.70750  0.45497  0.15605  Biso   1.000  O
  Cl1      1.0000 0.25000  0.00000  0.25000  Biso   1.000  Cl
  Cl2      1.0000 0.25000  0.50000  0.75000  Biso   1.000  Cl
  Cl3      1.0000 0.75000  0.00000  0.25000  Biso   1.000  Cl
  Cl4      1.0000 0.75000  0.50000  0.75000  Biso   1.000  Cl
  Cl5      1.0000 0.25000  0.50000  0.25000  Biso   1.000  Cl
  Cl6      1.0000 0.75000  0.00000  0.75000  Biso   1.000  Cl
  Cl7      1.0000 0.75000  0.50000  0.25000  Biso   1.000  Cl
  Cl8      1.0000 0.25000  0.00000  0.75000  Biso   1.000  Cl
  Cl9      1.0000 0.25000  0.25000  0.00000  Biso   1.000  Cl
  Cl10     1.0000 0.25000  0.75000  0.50000  Biso   1.000  Cl
  Cl11     1.0000 0.25000  0.75000  0.00000  Biso   1.000  Cl
  Cl12     1.0000 0.25000  0.25000  0.50000  Biso   1.000  Cl
  Cl13     1.0000 0.75000  0.75000  0.00000  Biso   1.000  Cl
  Cl14     1.0000 0.75000  0.25000  0.50000  Biso   1.000  Cl
  Cl15     1.0000 0.75000  0.25000  0.00000  Biso   1.000  Cl
  Cl16     1.0000 0.75000  0.75000  0.50000  Biso   1.000  Cl
  Cl17     1.0000 0.00000  0.25000  0.25000  Biso   1.000  Cl
  Cl18     1.0000 0.50000  0.25000  0.75000  Biso   1.000  Cl
  Cl19     1.0000 0.00000  0.25000  0.75000  Biso   1.000  Cl
  Cl20     1.0000 0.50000  0.25000  0.25000  Biso   1.000  Cl
  Cl21     1.0000 0.00000  0.75000  0.75000  Biso   1.000  Cl
  Cl22     1.0000 0.50000  0.75000  0.25000  Biso   1.000  Cl
  Cl23     1.0000 0.00000  0.75000  0.25000  Biso   1.000  Cl
  Cl24     1.0000 0.50000  0.75000  0.75000  Biso   1.000  Cl
  Cu1      1.0000 0.16761  0.00000  0.24967  Biso   1.000  Cu
  Cu2      1.0000 0.16761  0.50000  0.74967  Biso   1.000  Cu
  Cu3      1.0000 0.66761  0.00000  0.74967  Biso   1.000  Cu
  Cu4      1.0000 0.66761  0.50000  0.24967  Biso   1.000  Cu
  Cu5      1.0000 0.83239  0.00000  0.24967  Biso   1.000  Cu
  Cu6      1.0000 0.83239  0.50000  0.74967  Biso   1.000  Cu
  Cu7      1.0000 0.33239  0.00000  0.74967  Biso   1.000  Cu
  Cu8      1.0000 0.33239  0.50000  0.24967  Biso   1.000  Cu
  Cu9      1.0000 0.83239  0.00000  0.75033  Biso   1.000  Cu
  Cu10     1.0000 0.83239  0.50000  0.25033  Biso   1.000  Cu
  Cu11     1.0000 0.33239  0.00000  0.25033  Biso   1.000  Cu
  Cu12     1.0000 0.33239  0.50000  0.75033  Biso   1.000  Cu
  Cu13     1.0000 0.16761  0.00000  0.75033  Biso   1.000  Cu
  Cu14     1.0000 0.16761  0.50000  0.25033  Biso   1.000  Cu
  Cu15     1.0000 0.66761  0.00000  0.25033  Biso   1.000  Cu
  Cu16     1.0000 0.66761  0.50000  0.75033  Biso   1.000  Cu
  Cu17     1.0000 0.24967  0.16761  0.00000  Biso   1.000  Cu
  Cu18     1.0000 0.24967  0.66761  0.50000  Biso   1.000  Cu
  Cu19     1.0000 0.74967  0.16761  0.50000  Biso   1.000  Cu
  Cu20     1.0000 0.74967  0.66761  0.00000  Biso   1.000  Cu
  Cu21     1.0000 0.24967  0.83239  0.00000  Biso   1.000  Cu
  Cu22     1.0000 0.24967  0.33239  0.50000  Biso   1.000  Cu
  Cu23     1.0000 0.74967  0.83239  0.50000  Biso   1.000  Cu
  Cu24     1.0000 0.74967  0.33239  0.00000  Biso   1.000  Cu
  Cu25     1.0000 0.75033  0.83239  0.00000  Biso   1.000  Cu
  Cu26     1.0000 0.75033  0.33239  0.50000  Biso   1.000  Cu
  Cu27     1.0000 0.25033  0.83239  0.50000  Biso   1.000  Cu
  Cu28     1.0000 0.25033  0.33239  0.00000  Biso   1.000  Cu
  Cu29     1.0000 0.75033  0.16761  0.00000  Biso   1.000  Cu
  Cu30     1.0000 0.75033  0.66761  0.50000  Biso   1.000  Cu
  Cu31     1.0000 0.25033  0.16761  0.50000  Biso   1.000  Cu
  Cu32     1.0000 0.25033  0.66761  0.00000  Biso   1.000  Cu
  Cu33     1.0000 0.00000  0.24967  0.16761  Biso   1.000  Cu
  Cu34     1.0000 0.00000  0.74967  0.66761  Biso   1.000  Cu
  Cu35     1.0000 0.50000  0.24967  0.66761  Biso   1.000  Cu
  Cu36     1.0000 0.50000  0.74967  0.16761  Biso   1.000  Cu
  Cu37     1.0000 0.00000  0.24967  0.83239  Biso   1.000  Cu
  Cu38     1.0000 0.00000  0.74967  0.33239  Biso   1.000  Cu
  Cu39     1.0000 0.50000  0.24967  0.33239  Biso   1.000  Cu
  Cu40     1.0000 0.50000  0.74967  0.83239  Biso   1.000  Cu
  Cu41     1.0000 0.00000  0.75033  0.83239  Biso   1.000  Cu
  Cu42     1.0000 0.00000  0.25033  0.33239  Biso   1.000  Cu
  Cu43     1.0000 0.50000  0.75033  0.33239  Biso   1.000  Cu
  Cu44     1.0000 0.50000  0.25033  0.83239  Biso   1.000  Cu
  Cu45     1.0000 0.00000  0.75033  0.16761  Biso   1.000  Cu
  Cu46     1.0000 0.00000  0.25033  0.66761  Biso   1.000  Cu
  Cu47     1.0000 0.50000  0.75033  0.66761  Biso   1.000  Cu
  Cu48     1.0000 0.50000  0.25033  0.16761  Biso   1.000  Cu
  Cu49     1.0000 0.00000  0.16761  0.75033  Biso   1.000  Cu
  Cu50     1.0000 0.00000  0.66761  0.25033  Biso   1.000  Cu
  Cu51     1.0000 0.50000  0.16761  0.25033  Biso   1.000  Cu
  Cu52     1.0000 0.50000  0.66761  0.75033  Biso   1.000  Cu
  Cu53     1.0000 0.00000  0.83239  0.75033  Biso   1.000  Cu
  Cu54     1.0000 0.00000  0.33239  0.25033  Biso   1.000  Cu
  Cu55     1.0000 0.50000  0.83239  0.25033  Biso   1.000  Cu
  Cu56     1.0000 0.50000  0.33239  0.75033  Biso   1.000  Cu
  Cu57     1.0000 0.00000  0.83239  0.24967  Biso   1.000  Cu
  Cu58     1.0000 0.00000  0.33239  0.74967  Biso   1.000  Cu
  Cu59     1.0000 0.50000  0.83239  0.74967  Biso   1.000  Cu
  Cu60     1.0000 0.50000  0.33239  0.24967  Biso   1.000  Cu
  Cu61     1.0000 0.00000  0.16761  0.24967  Biso   1.000  Cu
  Cu62     1.0000 0.00000  0.66761  0.74967  Biso   1.000  Cu
  Cu63     1.0000 0.50000  0.16761  0.74967  Biso   1.000  Cu
  Cu64     1.0000 0.50000  0.66761  0.24967  Biso   1.000  Cu
  Cu65     1.0000 0.16761  0.24967  0.00000  Biso   1.000  Cu
  Cu66     1.0000 0.16761  0.74967  0.50000  Biso   1.000  Cu
  Cu67     1.0000 0.66761  0.24967  0.50000  Biso   1.000  Cu
  Cu68     1.0000 0.66761  0.74967  0.00000  Biso   1.000  Cu
  Cu69     1.0000 0.83239  0.24967  0.00000  Biso   1.000  Cu
  Cu70     1.0000 0.83239  0.74967  0.50000  Biso   1.000  Cu
  Cu71     1.0000 0.33239  0.24967  0.50000  Biso   1.000  Cu
  Cu72     1.0000 0.33239  0.74967  0.00000  Biso   1.000  Cu
  Cu73     1.0000 0.83239  0.75033  0.00000  Biso   1.000  Cu
  Cu74     1.0000 0.83239  0.25033  0.50000  Biso   1.000  Cu
  Cu75     1.0000 0.33239  0.75033  0.50000  Biso   1.000  Cu
  Cu76     1.0000 0.33239  0.25033  0.00000  Biso   1.000  Cu
  Cu77     1.0000 0.16761  0.75033  0.00000  Biso   1.000  Cu
  Cu78     1.0000 0.16761  0.25033  0.50000  Biso   1.000  Cu
  Cu79     1.0000 0.66761  0.75033  0.50000  Biso   1.000  Cu
  Cu80     1.0000 0.66761  0.25033  0.00000  Biso   1.000  Cu
  Cu81     1.0000 0.24967  0.00000  0.83239  Biso   1.000  Cu
  Cu82     1.0000 0.24967  0.50000  0.33239  Biso   1.000  Cu
  Cu83     1.0000 0.74967  0.00000  0.33239  Biso   1.000  Cu
  Cu84     1.0000 0.74967  0.50000  0.83239  Biso   1.000  Cu
  Cu85     1.0000 0.24967  0.00000  0.16761  Biso   1.000  Cu
  Cu86     1.0000 0.24967  0.50000  0.66761  Biso   1.000  Cu
  Cu87     1.0000 0.74967  0.00000  0.66761  Biso   1.000  Cu
  Cu88     1.0000 0.74967  0.50000  0.16761  Biso   1.000  Cu
  Cu89     1.0000 0.75033  0.00000  0.16761  Biso   1.000  Cu
  Cu90     1.0000 0.75033  0.50000  0.66761  Biso   1.000  Cu
  Cu91     1.0000 0.25033  0.00000  0.66761  Biso   1.000  Cu
  Cu92     1.0000 0.25033  0.50000  0.16761  Biso   1.000  Cu
  Cu93     1.0000 0.75033  0.00000  0.83239  Biso   1.000  Cu
  Cu94     1.0000 0.75033  0.50000  0.33239  Biso   1.000  Cu
  Cu95     1.0000 0.25033  0.00000  0.33239  Biso   1.000  Cu
  Cu96     1.0000 0.25033  0.50000  0.83239  Biso   1.000  Cu
  C1       1.0000 0.17338  0.05822  0.32662  Biso   1.000  C
  C2       1.0000 0.15235  0.09690  0.34765  Biso   1.000  C
  C3       1.0000 0.17338  0.55822  0.82662  Biso   1.000  C
  C4       1.0000 0.15235  0.59690  0.84765  Biso   1.000  C
  C5       1.0000 0.82662  0.94178  0.32662  Biso   1.000  C
  C6       1.0000 0.84765  0.90310  0.34765  Biso   1.000  C
  C7       1.0000 0.82662  0.44178  0.82662  Biso   1.000  C
  C8       1.0000 0.84765  0.40310  0.84765  Biso   1.000  C
  C9       1.0000 0.32662  0.44178  0.32662  Biso   1.000  C
  C10      1.0000 0.34765  0.40310  0.34765  Biso   1.000  C
  C11      1.0000 0.82662  0.05822  0.67338  Biso   1.000  C
  C12      1.0000 0.84765  0.09690  0.65235  Biso   1.000  C
  C13      1.0000 0.82662  0.55822  0.17338  Biso   1.000  C
  C14      1.0000 0.84765  0.59690  0.15235  Biso   1.000  C
  C15      1.0000 0.32662  0.05822  0.17338  Biso   1.000  C
  C16      1.0000 0.34765  0.09690  0.15235  Biso   1.000  C
  C17      1.0000 0.17338  0.94178  0.67338  Biso   1.000  C
  C18      1.0000 0.15235  0.90310  0.65235  Biso   1.000  C
  C19      1.0000 0.17338  0.44178  0.17338  Biso   1.000  C
  C20      1.0000 0.15235  0.40310  0.15235  Biso   1.000  C
  C21      1.0000 0.32662  0.17338  0.05822  Biso   1.000  C
  C22      1.0000 0.34765  0.15235  0.09690  Biso   1.000  C
  C23      1.0000 0.32662  0.67338  0.55822  Biso   1.000  C
  C24      1.0000 0.34765  0.65235  0.59690  Biso   1.000  C
  C25      1.0000 0.32662  0.82662  0.94178  Biso   1.000  C
  C26      1.0000 0.34765  0.84765  0.90310  Biso   1.000  C
  C27      1.0000 0.32662  0.32662  0.44178  Biso   1.000  C
  C28      1.0000 0.34765  0.34765  0.40310  Biso   1.000  C
  C29      1.0000 0.67338  0.82662  0.05822  Biso   1.000  C
  C30      1.0000 0.65235  0.84765  0.09690  Biso   1.000  C
  C31      1.0000 0.67338  0.32662  0.55822  Biso   1.000  C
  C32      1.0000 0.65235  0.34765  0.59690  Biso   1.000  C
  C33      1.0000 0.17338  0.32662  0.05822  Biso   1.000  C
  C34      1.0000 0.15235  0.34765  0.09690  Biso   1.000  C
  C35      1.0000 0.67338  0.17338  0.94178  Biso   1.000  C
  C36      1.0000 0.65235  0.15235  0.90310  Biso   1.000  C
  C37      1.0000 0.67338  0.67338  0.44178  Biso   1.000  C
  C38      1.0000 0.65235  0.65235  0.40310  Biso   1.000  C
  C39      1.0000 0.17338  0.17338  0.44178  Biso   1.000  C
  C40      1.0000 0.15235  0.15235  0.40310  Biso   1.000  C
  C41      1.0000 0.05822  0.32662  0.17338  Biso   1.000  C
  C42      1.0000 0.09690  0.34765  0.15235  Biso   1.000  C
  C43      1.0000 0.55822  0.32662  0.67338  Biso   1.000  C
  C44      1.0000 0.59690  0.34765  0.65235  Biso   1.000  C
  C45      1.0000 0.94178  0.32662  0.82662  Biso   1.000  C
  C46      1.0000 0.90310  0.34765  0.84765  Biso   1.000  C
  C47      1.0000 0.44178  0.32662  0.32662  Biso   1.000  C
  C48      1.0000 0.40310  0.34765  0.34765  Biso   1.000  C
  C49      1.0000 0.05822  0.67338  0.82662  Biso   1.000  C
  C50      1.0000 0.09690  0.65235  0.84765  Biso   1.000  C
  C51      1.0000 0.05822  0.17338  0.32662  Biso   1.000  C
  C52      1.0000 0.09690  0.15235  0.34765  Biso   1.000  C
  C53      1.0000 0.55822  0.67338  0.32662  Biso   1.000  C
  C54      1.0000 0.59690  0.65235  0.34765  Biso   1.000  C
  C55      1.0000 0.94178  0.67338  0.17338  Biso   1.000  C
  C56      1.0000 0.90310  0.65235  0.15235  Biso   1.000  C
  C57      1.0000 0.44178  0.67338  0.67338  Biso   1.000  C
  C58      1.0000 0.40310  0.65235  0.65235  Biso   1.000  C
  C59      1.0000 0.44178  0.17338  0.17338  Biso   1.000  C
  C60      1.0000 0.40310  0.15235  0.15235  Biso   1.000  C
  C61      1.0000 0.05822  0.17338  0.67338  Biso   1.000  C
  C62      1.0000 0.09690  0.15235  0.65235  Biso   1.000  C
  C63      1.0000 0.55822  0.17338  0.17338  Biso   1.000  C
  C64      1.0000 0.59690  0.15235  0.15235  Biso   1.000  C
  C65      1.0000 0.94178  0.82662  0.67338  Biso   1.000  C
  C66      1.0000 0.90310  0.84765  0.65235  Biso   1.000  C
  C67      1.0000 0.94178  0.32662  0.17338  Biso   1.000  C
  C68      1.0000 0.90310  0.34765  0.15235  Biso   1.000  C
  C69      1.0000 0.44178  0.82662  0.17338  Biso   1.000  C
  C70      1.0000 0.40310  0.84765  0.15235  Biso   1.000  C
  C71      1.0000 0.05822  0.82662  0.32662  Biso   1.000  C
  C72      1.0000 0.09690  0.84765  0.34765  Biso   1.000  C
  C73      1.0000 0.55822  0.82662  0.82662  Biso   1.000  C
  C74      1.0000 0.59690  0.84765  0.84765  Biso   1.000  C
  C75      1.0000 0.55822  0.32662  0.32662  Biso   1.000  C
  C76      1.0000 0.59690  0.34765  0.34765  Biso   1.000  C
  C77      1.0000 0.94178  0.17338  0.32662  Biso   1.000  C
  C78      1.0000 0.90310  0.15235  0.34765  Biso   1.000  C
  C79      1.0000 0.44178  0.17338  0.82662  Biso   1.000  C
  C80      1.0000 0.40310  0.15235  0.84765  Biso   1.000  C
  C81      1.0000 0.17338  0.32662  0.94178  Biso   1.000  C
  C82      1.0000 0.15235  0.34765  0.90310  Biso   1.000  C
  C83      1.0000 0.17338  0.82662  0.44178  Biso   1.000  C
  C84      1.0000 0.15235  0.84765  0.40310  Biso   1.000  C
  C85      1.0000 0.82662  0.32662  0.05822  Biso   1.000  C
  C86      1.0000 0.84765  0.34765  0.09690  Biso   1.000  C
  C87      1.0000 0.82662  0.82662  0.55822  Biso   1.000  C
  C88      1.0000 0.84765  0.84765  0.59690  Biso   1.000  C
  C89      1.0000 0.32662  0.32662  0.55822  Biso   1.000  C
  C90      1.0000 0.34765  0.34765  0.59690  Biso   1.000  C
  C91      1.0000 0.82662  0.67338  0.94178  Biso   1.000  C
  C92      1.0000 0.84765  0.65235  0.90310  Biso   1.000  C
  C93      1.0000 0.82662  0.17338  0.44178  Biso   1.000  C
  C94      1.0000 0.84765  0.15235  0.40310  Biso   1.000  C
  C95      1.0000 0.32662  0.17338  0.94178  Biso   1.000  C
  C96      1.0000 0.34765  0.15235  0.90310  Biso   1.000  C
  C97      1.0000 0.17338  0.67338  0.05822  Biso   1.000  C
  C98      1.0000 0.15235  0.65235  0.09690  Biso   1.000  C
  C99      1.0000 0.17338  0.17338  0.55822  Biso   1.000  C
  C100     1.0000 0.15235  0.15235  0.59690  Biso   1.000  C
  C101     1.0000 0.32662  0.05822  0.82662  Biso   1.000  C
  C102     1.0000 0.34765  0.09690  0.84765  Biso   1.000  C
  C103     1.0000 0.32662  0.55822  0.32662  Biso   1.000  C
  C104     1.0000 0.34765  0.59690  0.34765  Biso   1.000  C
  C105     1.0000 0.32662  0.94178  0.17338  Biso   1.000  C
  C106     1.0000 0.34765  0.90310  0.15235  Biso   1.000  C
  C107     1.0000 0.32662  0.44178  0.67338  Biso   1.000  C
  C108     1.0000 0.34765  0.40310  0.65235  Biso   1.000  C
  C109     1.0000 0.67338  0.05822  0.17338  Biso   1.000  C
  C110     1.0000 0.65235  0.09690  0.15235  Biso   1.000  C
  C111     1.0000 0.67338  0.55822  0.67338  Biso   1.000  C
  C112     1.0000 0.65235  0.59690  0.65235  Biso   1.000  C
  C113     1.0000 0.17338  0.55822  0.17338  Biso   1.000  C
  C114     1.0000 0.15235  0.59690  0.15235  Biso   1.000  C
  C115     1.0000 0.67338  0.94178  0.82662  Biso   1.000  C
  C116     1.0000 0.65235  0.90310  0.84765  Biso   1.000  C
  C117     1.0000 0.67338  0.44178  0.32662  Biso   1.000  C
  C118     1.0000 0.65235  0.40310  0.34765  Biso   1.000  C
  C119     1.0000 0.17338  0.94178  0.32662  Biso   1.000  C
  C120     1.0000 0.15235  0.90310  0.34765  Biso   1.000  C
  C121     1.0000 0.82662  0.94178  0.67338  Biso   1.000  C
  C122     1.0000 0.84765  0.90310  0.65235  Biso   1.000  C
  C123     1.0000 0.82662  0.44178  0.17338  Biso   1.000  C
  C124     1.0000 0.84765  0.40310  0.15235  Biso   1.000  C
  C125     1.0000 0.17338  0.05822  0.67338  Biso   1.000  C
  C126     1.0000 0.15235  0.09690  0.65235  Biso   1.000  C
  C127     1.0000 0.17338  0.44178  0.82662  Biso   1.000  C
  C128     1.0000 0.15235  0.40310  0.84765  Biso   1.000  C
  C129     1.0000 0.82662  0.05822  0.32662  Biso   1.000  C
  C130     1.0000 0.84765  0.09690  0.34765  Biso   1.000  C
  C131     1.0000 0.82662  0.55822  0.82662  Biso   1.000  C
  C132     1.0000 0.84765  0.59690  0.84765  Biso   1.000  C
  C133     1.0000 0.67338  0.82662  0.94178  Biso   1.000  C
  C134     1.0000 0.65235  0.84765  0.90310  Biso   1.000  C
  C135     1.0000 0.67338  0.32662  0.44178  Biso   1.000  C
  C136     1.0000 0.65235  0.34765  0.40310  Biso   1.000  C
  C137     1.0000 0.67338  0.17338  0.05822  Biso   1.000  C
  C138     1.0000 0.65235  0.15235  0.09690  Biso   1.000  C
  C139     1.0000 0.67338  0.67338  0.55822  Biso   1.000  C
  C140     1.0000 0.65235  0.65235  0.59690  Biso   1.000  C
  C141     1.0000 0.32662  0.67338  0.44178  Biso   1.000  C
  C142     1.0000 0.34765  0.65235  0.40310  Biso   1.000  C
  C143     1.0000 0.32662  0.82662  0.05822  Biso   1.000  C
  C144     1.0000 0.34765  0.84765  0.09690  Biso   1.000  C
  C145     1.0000 0.94178  0.67338  0.82662  Biso   1.000  C
  C146     1.0000 0.90310  0.65235  0.84765  Biso   1.000  C
  C147     1.0000 0.44178  0.67338  0.32662  Biso   1.000  C
  C148     1.0000 0.40310  0.65235  0.34765  Biso   1.000  C
  C149     1.0000 0.05822  0.67338  0.17338  Biso   1.000  C
  C150     1.0000 0.09690  0.65235  0.15235  Biso   1.000  C
  C151     1.0000 0.55822  0.67338  0.67338  Biso   1.000  C
  C152     1.0000 0.59690  0.65235  0.65235  Biso   1.000  C
  C153     1.0000 0.44178  0.32662  0.67338  Biso   1.000  C
  C154     1.0000 0.40310  0.34765  0.65235  Biso   1.000  C
  C155     1.0000 0.05822  0.32662  0.82662  Biso   1.000  C
  C156     1.0000 0.09690  0.34765  0.84765  Biso   1.000  C
  C157     1.0000 0.94178  0.82662  0.32662  Biso   1.000  C
  C158     1.0000 0.90310  0.84765  0.34765  Biso   1.000  C
  C159     1.0000 0.44178  0.82662  0.82662  Biso   1.000  C
  C160     1.0000 0.40310  0.84765  0.84765  Biso   1.000  C
  C161     1.0000 0.55822  0.17338  0.82662  Biso   1.000  C
  C162     1.0000 0.59690  0.15235  0.84765  Biso   1.000  C
  C163     1.0000 0.94178  0.17338  0.67338  Biso   1.000  C
  C164     1.0000 0.90310  0.15235  0.65235  Biso   1.000  C
  C165     1.0000 0.05822  0.82662  0.67338  Biso   1.000  C
  C166     1.0000 0.09690  0.84765  0.65235  Biso   1.000  C
  C167     1.0000 0.55822  0.82662  0.17338  Biso   1.000  C
  C168     1.0000 0.59690  0.84765  0.15235  Biso   1.000  C
  C169     1.0000 0.82662  0.67338  0.05822  Biso   1.000  C
  C170     1.0000 0.84765  0.65235  0.09690  Biso   1.000  C
  C171     1.0000 0.82662  0.17338  0.55822  Biso   1.000  C
  C172     1.0000 0.84765  0.15235  0.59690  Biso   1.000  C
  C173     1.0000 0.17338  0.67338  0.94178  Biso   1.000  C
  C174     1.0000 0.15235  0.65235  0.90310  Biso   1.000  C
  C175     1.0000 0.17338  0.82662  0.55822  Biso   1.000  C
  C176     1.0000 0.15235  0.84765  0.59690  Biso   1.000  C
  C177     1.0000 0.82662  0.32662  0.94178  Biso   1.000  C
  C178     1.0000 0.84765  0.34765  0.90310  Biso   1.000  C
  C179     1.0000 0.82662  0.82662  0.44178  Biso   1.000  C
  C180     1.0000 0.84765  0.84765  0.40310  Biso   1.000  C
  C181     1.0000 0.67338  0.94178  0.17338  Biso   1.000  C
  C182     1.0000 0.65235  0.90310  0.15235  Biso   1.000  C
  C183     1.0000 0.67338  0.44178  0.67338  Biso   1.000  C
  C184     1.0000 0.65235  0.40310  0.65235  Biso   1.000  C
  C185     1.0000 0.67338  0.05822  0.82662  Biso   1.000  C
  C186     1.0000 0.65235  0.09690  0.84765  Biso   1.000  C
  C187     1.0000 0.67338  0.55822  0.32662  Biso   1.000  C
  C188     1.0000 0.65235  0.59690  0.34765  Biso   1.000  C
  C189     1.0000 0.32662  0.94178  0.82662  Biso   1.000  C
  C190     1.0000 0.34765  0.90310  0.84765  Biso   1.000  C
  C191     1.0000 0.32662  0.55822  0.67338  Biso   1.000  C
  C192     1.0000 0.34765  0.59690  0.65235  Biso   1.000  C
  C193     1.0000 0.11513  0.11513  0.32949  Biso   1.000  C
  H1       1.0000 0.10270  0.10270  0.30500  Biso   1.000  H
  C194     1.0000 0.11513  0.61513  0.82949  Biso   1.000  C
  H2       1.0000 0.10270  0.60270  0.80500  Biso   1.000  H
  C195     1.0000 0.61513  0.11513  0.82949  Biso   1.000  C
  H3       1.0000 0.60270  0.10270  0.80500  Biso   1.000  H
  C196     1.0000 0.61513  0.61513  0.32949  Biso   1.000  C
  H4       1.0000 0.60270  0.60270  0.30500  Biso   1.000  H
  C197     1.0000 0.88487  0.88487  0.32949  Biso   1.000  C
  H5       1.0000 0.89730  0.89730  0.30500  Biso   1.000  H
  C198     1.0000 0.88487  0.38487  0.82949  Biso   1.000  C
  H6       1.0000 0.89730  0.39730  0.80500  Biso   1.000  H
  C199     1.0000 0.38487  0.88487  0.82949  Biso   1.000  C
  H7       1.0000 0.39730  0.89730  0.80500  Biso   1.000  H
  C200     1.0000 0.38487  0.38487  0.32949  Biso   1.000  C
  H8       1.0000 0.39730  0.39730  0.30500  Biso   1.000  H
  C201     1.0000 0.88487  0.11513  0.67051  Biso   1.000  C
  H9       1.0000 0.89730  0.10270  0.69500  Biso   1.000  H
  C202     1.0000 0.88487  0.61513  0.17051  Biso   1.000  C
  H10      1.0000 0.89730  0.60270  0.19500  Biso   1.000  H
  C203     1.0000 0.38487  0.11513  0.17051  Biso   1.000  C
  H11      1.0000 0.39730  0.10270  0.19500  Biso   1.000  H
  C204     1.0000 0.38487  0.61513  0.67051  Biso   1.000  C
  H12      1.0000 0.39730  0.60270  0.69500  Biso   1.000  H
  C205     1.0000 0.11513  0.88487  0.67051  Biso   1.000  C
  H13      1.0000 0.10270  0.89730  0.69500  Biso   1.000  H
  C206     1.0000 0.11513  0.38487  0.17051  Biso   1.000  C
  H14      1.0000 0.10270  0.39730  0.19500  Biso   1.000  H
  C207     1.0000 0.61513  0.88487  0.17051  Biso   1.000  C
  H15      1.0000 0.60270  0.89730  0.19500  Biso   1.000  H
  C208     1.0000 0.61513  0.38487  0.67051  Biso   1.000  C
  H16      1.0000 0.60270  0.39730  0.69500  Biso   1.000  H
  C209     1.0000 0.32949  0.11513  0.11513  Biso   1.000  C
  H17      1.0000 0.30500  0.10270  0.10270  Biso   1.000  H
  C210     1.0000 0.32949  0.61513  0.61513  Biso   1.000  C
  H18      1.0000 0.30500  0.60270  0.60270  Biso   1.000  H
  C211     1.0000 0.82949  0.11513  0.61513  Biso   1.000  C
  H19      1.0000 0.80500  0.10270  0.60270  Biso   1.000  H
  C212     1.0000 0.82949  0.61513  0.11513  Biso   1.000  C
  H20      1.0000 0.80500  0.60270  0.10270  Biso   1.000  H
  C213     1.0000 0.32949  0.88487  0.88487  Biso   1.000  C
  H21      1.0000 0.30500  0.89730  0.89730  Biso   1.000  H
  C214     1.0000 0.32949  0.38487  0.38487  Biso   1.000  C
  H22      1.0000 0.30500  0.39730  0.39730  Biso   1.000  H
  C215     1.0000 0.82949  0.88487  0.38487  Biso   1.000  C
  H23      1.0000 0.80500  0.89730  0.39730  Biso   1.000  H
  C216     1.0000 0.82949  0.38487  0.88487  Biso   1.000  C
  H24      1.0000 0.80500  0.39730  0.89730  Biso   1.000  H
  C217     1.0000 0.67051  0.88487  0.11513  Biso   1.000  C
  H25      1.0000 0.69500  0.89730  0.10270  Biso   1.000  H
  C218     1.0000 0.67051  0.38487  0.61513  Biso   1.000  C
  H26      1.0000 0.69500  0.39730  0.60270  Biso   1.000  H
  C219     1.0000 0.17051  0.88487  0.61513  Biso   1.000  C
  H27      1.0000 0.19500  0.89730  0.60270  Biso   1.000  H
  C220     1.0000 0.17051  0.38487  0.11513  Biso   1.000  C
  H28      1.0000 0.19500  0.39730  0.10270  Biso   1.000  H
  C221     1.0000 0.67051  0.11513  0.88487  Biso   1.000  C
  H29      1.0000 0.69500  0.10270  0.89730  Biso   1.000  H
  C222     1.0000 0.67051  0.61513  0.38487  Biso   1.000  C
  H30      1.0000 0.69500  0.60270  0.39730  Biso   1.000  H
  C223     1.0000 0.17051  0.11513  0.38487  Biso   1.000  C
  H31      1.0000 0.19500  0.10270  0.39730  Biso   1.000  H
  C224     1.0000 0.17051  0.61513  0.88487  Biso   1.000  C
  H32      1.0000 0.19500  0.60270  0.89730  Biso   1.000  H
  C225     1.0000 0.11513  0.32949  0.11513  Biso   1.000  C
  H33      1.0000 0.10270  0.30500  0.10270  Biso   1.000  H
  C226     1.0000 0.11513  0.82949  0.61513  Biso   1.000  C
  H34      1.0000 0.10270  0.80500  0.60270  Biso   1.000  H
  C227     1.0000 0.61513  0.32949  0.61513  Biso   1.000  C
  H35      1.0000 0.60270  0.30500  0.60270  Biso   1.000  H
  C228     1.0000 0.61513  0.82949  0.11513  Biso   1.000  C
  H36      1.0000 0.60270  0.80500  0.10270  Biso   1.000  H
  C229     1.0000 0.88487  0.32949  0.88487  Biso   1.000  C
  H37      1.0000 0.89730  0.30500  0.89730  Biso   1.000  H
  C230     1.0000 0.88487  0.82949  0.38487  Biso   1.000  C
  H38      1.0000 0.89730  0.80500  0.39730  Biso   1.000  H
  C231     1.0000 0.38487  0.32949  0.38487  Biso   1.000  C
  H39      1.0000 0.39730  0.30500  0.39730  Biso   1.000  H
  C232     1.0000 0.38487  0.82949  0.88487  Biso   1.000  C
  H40      1.0000 0.39730  0.80500  0.89730  Biso   1.000  H
  C233     1.0000 0.11513  0.67051  0.88487  Biso   1.000  C
  H41      1.0000 0.10270  0.69500  0.89730  Biso   1.000  H
  C234     1.0000 0.11513  0.17051  0.38487  Biso   1.000  C
  H42      1.0000 0.10270  0.19500  0.39730  Biso   1.000  H
  C235     1.0000 0.61513  0.67051  0.38487  Biso   1.000  C
  H43      1.0000 0.60270  0.69500  0.39730  Biso   1.000  H
  C236     1.0000 0.61513  0.17051  0.88487  Biso   1.000  C
  H44      1.0000 0.60270  0.19500  0.89730  Biso   1.000  H
  C237     1.0000 0.88487  0.67051  0.11513  Biso   1.000  C
  H45      1.0000 0.89730  0.69500  0.10270  Biso   1.000  H
  C238     1.0000 0.88487  0.17051  0.61513  Biso   1.000  C
  H46      1.0000 0.89730  0.19500  0.60270  Biso   1.000  H
  C239     1.0000 0.38487  0.67051  0.61513  Biso   1.000  C
  H47      1.0000 0.39730  0.69500  0.60270  Biso   1.000  H
  C240     1.0000 0.38487  0.17051  0.11513  Biso   1.000  C
  H48      1.0000 0.39730  0.19500  0.10270  Biso   1.000  H
  C241     1.0000 0.11513  0.11513  0.67051  Biso   1.000  C
  H49      1.0000 0.10270  0.10270  0.69500  Biso   1.000  H
  C242     1.0000 0.11513  0.61513  0.17051  Biso   1.000  C
  H50      1.0000 0.10270  0.60270  0.19500  Biso   1.000  H
  C243     1.0000 0.61513  0.11513  0.17051  Biso   1.000  C
  H51      1.0000 0.60270  0.10270  0.19500  Biso   1.000  H
  C244     1.0000 0.61513  0.61513  0.67051  Biso   1.000  C
  H52      1.0000 0.60270  0.60270  0.69500  Biso   1.000  H
  C245     1.0000 0.88487  0.88487  0.67051  Biso   1.000  C
  H53      1.0000 0.89730  0.89730  0.69500  Biso   1.000  H
  C246     1.0000 0.88487  0.38487  0.17051  Biso   1.000  C
  H54      1.0000 0.89730  0.39730  0.19500  Biso   1.000  H
  C247     1.0000 0.38487  0.88487  0.17051  Biso   1.000  C
  H55      1.0000 0.39730  0.89730  0.19500  Biso   1.000  H
  C248     1.0000 0.38487  0.38487  0.67051  Biso   1.000  C
  H56      1.0000 0.39730  0.39730  0.69500  Biso   1.000  H
  C249     1.0000 0.11513  0.88487  0.32949  Biso   1.000  C
  H57      1.0000 0.10270  0.89730  0.30500  Biso   1.000  H
  C250     1.0000 0.11513  0.38487  0.82949  Biso   1.000  C
  H58      1.0000 0.10270  0.39730  0.80500  Biso   1.000  H
  C251     1.0000 0.61513  0.88487  0.82949  Biso   1.000  C
  H59      1.0000 0.60270  0.89730  0.80500  Biso   1.000  H
  C252     1.0000 0.61513  0.38487  0.32949  Biso   1.000  C
  H60      1.0000 0.60270  0.39730  0.30500  Biso   1.000  H
  C253     1.0000 0.88487  0.11513  0.32949  Biso   1.000  C
  H61      1.0000 0.89730  0.10270  0.30500  Biso   1.000  H
  C254     1.0000 0.88487  0.61513  0.82949  Biso   1.000  C
  H62      1.0000 0.89730  0.60270  0.80500  Biso   1.000  H
  C255     1.0000 0.38487  0.11513  0.82949  Biso   1.000  C
  H63      1.0000 0.39730  0.10270  0.80500  Biso   1.000  H
  C256     1.0000 0.38487  0.61513  0.32949  Biso   1.000  C
  H64      1.0000 0.39730  0.60270  0.30500  Biso   1.000  H
  C257     1.0000 0.11513  0.32949  0.88487  Biso   1.000  C
  H65      1.0000 0.10270  0.30500  0.89730  Biso   1.000  H
  C258     1.0000 0.11513  0.82949  0.38487  Biso   1.000  C
  H66      1.0000 0.10270  0.80500  0.39730  Biso   1.000  H
  C259     1.0000 0.61513  0.32949  0.38487  Biso   1.000  C
  H67      1.0000 0.60270  0.30500  0.39730  Biso   1.000  H
  C260     1.0000 0.61513  0.82949  0.88487  Biso   1.000  C
  H68      1.0000 0.60270  0.80500  0.89730  Biso   1.000  H
  C261     1.0000 0.88487  0.32949  0.11513  Biso   1.000  C
  H69      1.0000 0.89730  0.30500  0.10270  Biso   1.000  H
  C262     1.0000 0.88487  0.82949  0.61513  Biso   1.000  C
  H70      1.0000 0.89730  0.80500  0.60270  Biso   1.000  H
  C263     1.0000 0.38487  0.32949  0.61513  Biso   1.000  C
  H71      1.0000 0.39730  0.30500  0.60270  Biso   1.000  H
  C264     1.0000 0.38487  0.82949  0.11513  Biso   1.000  C
  H72      1.0000 0.39730  0.80500  0.10270  Biso   1.000  H
  C265     1.0000 0.88487  0.67051  0.88487  Biso   1.000  C
  H73      1.0000 0.89730  0.69500  0.89730  Biso   1.000  H
  C266     1.0000 0.88487  0.17051  0.38487  Biso   1.000  C
  H74      1.0000 0.89730  0.19500  0.39730  Biso   1.000  H
  C267     1.0000 0.38487  0.67051  0.38487  Biso   1.000  C
  H75      1.0000 0.39730  0.69500  0.39730  Biso   1.000  H
  C268     1.0000 0.38487  0.17051  0.88487  Biso   1.000  C
  H76      1.0000 0.39730  0.19500  0.89730  Biso   1.000  H
  C269     1.0000 0.11513  0.67051  0.11513  Biso   1.000  C
  H77      1.0000 0.10270  0.69500  0.10270  Biso   1.000  H
  C270     1.0000 0.11513  0.17051  0.61513  Biso   1.000  C
  H78      1.0000 0.10270  0.19500  0.60270  Biso   1.000  H
  C271     1.0000 0.61513  0.67051  0.61513  Biso   1.000  C
  H79      1.0000 0.60270  0.69500  0.60270  Biso   1.000  H
  C272     1.0000 0.61513  0.17051  0.11513  Biso   1.000  C
  H80      1.0000 0.60270  0.19500  0.10270  Biso   1.000  H
  C273     1.0000 0.32949  0.11513  0.88487  Biso   1.000  C
  H81      1.0000 0.30500  0.10270  0.89730  Biso   1.000  H
  C274     1.0000 0.32949  0.61513  0.38487  Biso   1.000  C
  H82      1.0000 0.30500  0.60270  0.39730  Biso   1.000  H
  C275     1.0000 0.82949  0.11513  0.38487  Biso   1.000  C
  H83      1.0000 0.80500  0.10270  0.39730  Biso   1.000  H
  C276     1.0000 0.82949  0.61513  0.88487  Biso   1.000  C
  H84      1.0000 0.80500  0.60270  0.89730  Biso   1.000  H
  C277     1.0000 0.32949  0.88487  0.11513  Biso   1.000  C
  H85      1.0000 0.30500  0.89730  0.10270  Biso   1.000  H
  C278     1.0000 0.32949  0.38487  0.61513  Biso   1.000  C
  H86      1.0000 0.30500  0.39730  0.60270  Biso   1.000  H
  C279     1.0000 0.82949  0.88487  0.61513  Biso   1.000  C
  H87      1.0000 0.80500  0.89730  0.60270  Biso   1.000  H
  C280     1.0000 0.82949  0.38487  0.11513  Biso   1.000  C
  H88      1.0000 0.80500  0.39730  0.10270  Biso   1.000  H
  C281     1.0000 0.67051  0.11513  0.11513  Biso   1.000  C
  H89      1.0000 0.69500  0.10270  0.10270  Biso   1.000  H
  C282     1.0000 0.67051  0.61513  0.61513  Biso   1.000  C
  H90      1.0000 0.69500  0.60270  0.60270  Biso   1.000  H
  C283     1.0000 0.17051  0.11513  0.61513  Biso   1.000  C
  H91      1.0000 0.19500  0.10270  0.60270  Biso   1.000  H
  C284     1.0000 0.17051  0.61513  0.11513  Biso   1.000  C
  H92      1.0000 0.19500  0.60270  0.10270  Biso   1.000  H
  C285     1.0000 0.67051  0.88487  0.88487  Biso   1.000  C
  H93      1.0000 0.69500  0.89730  0.89730  Biso   1.000  H
  C286     1.0000 0.67051  0.38487  0.38487  Biso   1.000  C
  H94      1.0000 0.69500  0.39730  0.39730  Biso   1.000  H
  C287     1.0000 0.17051  0.88487  0.38487  Biso   1.000  C
  H95      1.0000 0.19500  0.89730  0.39730  Biso   1.000  H
  C288     1.0000 0.17051  0.38487  0.88487  Biso   1.000  C
  H96      1.0000 0.19500  0.39730  0.89730  Biso   1.000  H
  C289     1.0000 0.17321  0.94126  0.17321  Biso   1.000  C
  C290     1.0000 0.15185  0.90340  0.15185  Biso   1.000  C
  C291     1.0000 0.17321  0.44126  0.67321  Biso   1.000  C
  C292     1.0000 0.15185  0.40340  0.65185  Biso   1.000  C
  C293     1.0000 0.67321  0.94126  0.67321  Biso   1.000  C
  C294     1.0000 0.65185  0.90340  0.65185  Biso   1.000  C
  C295     1.0000 0.67321  0.44126  0.17321  Biso   1.000  C
  C296     1.0000 0.65185  0.40340  0.15185  Biso   1.000  C
  C297     1.0000 0.82679  0.05874  0.17321  Biso   1.000  C
  C298     1.0000 0.84815  0.09660  0.15185  Biso   1.000  C
  C299     1.0000 0.82679  0.55874  0.67321  Biso   1.000  C
  C300     1.0000 0.84815  0.59660  0.65185  Biso   1.000  C
  C301     1.0000 0.32679  0.05874  0.67321  Biso   1.000  C
  C302     1.0000 0.34815  0.09660  0.65185  Biso   1.000  C
  C303     1.0000 0.32679  0.55874  0.17321  Biso   1.000  C
  C304     1.0000 0.34815  0.59660  0.15185  Biso   1.000  C
  C305     1.0000 0.82679  0.94126  0.82679  Biso   1.000  C
  C306     1.0000 0.84815  0.90340  0.84815  Biso   1.000  C
  C307     1.0000 0.82679  0.44126  0.32679  Biso   1.000  C
  C308     1.0000 0.84815  0.40340  0.34815  Biso   1.000  C
  C309     1.0000 0.32679  0.94126  0.32679  Biso   1.000  C
  C310     1.0000 0.34815  0.90340  0.34815  Biso   1.000  C
  C311     1.0000 0.32679  0.44126  0.82679  Biso   1.000  C
  C312     1.0000 0.34815  0.40340  0.84815  Biso   1.000  C
  C313     1.0000 0.17321  0.05874  0.82679  Biso   1.000  C
  C314     1.0000 0.15185  0.09660  0.84815  Biso   1.000  C
  C315     1.0000 0.17321  0.55874  0.32679  Biso   1.000  C
  C316     1.0000 0.15185  0.59660  0.34815  Biso   1.000  C
  C317     1.0000 0.67321  0.05874  0.32679  Biso   1.000  C
  C318     1.0000 0.65185  0.09660  0.34815  Biso   1.000  C
  C319     1.0000 0.67321  0.55874  0.82679  Biso   1.000  C
  C320     1.0000 0.65185  0.59660  0.84815  Biso   1.000  C
  C321     1.0000 0.17321  0.17321  0.94126  Biso   1.000  C
  C322     1.0000 0.15185  0.15185  0.90340  Biso   1.000  C
  C323     1.0000 0.17321  0.67321  0.44126  Biso   1.000  C
  C324     1.0000 0.15185  0.65185  0.40340  Biso   1.000  C
  C325     1.0000 0.67321  0.17321  0.44126  Biso   1.000  C
  C326     1.0000 0.65185  0.15185  0.40340  Biso   1.000  C
  C327     1.0000 0.67321  0.67321  0.94126  Biso   1.000  C
  C328     1.0000 0.65185  0.65185  0.90340  Biso   1.000  C
  C329     1.0000 0.17321  0.82679  0.05874  Biso   1.000  C
  C330     1.0000 0.15185  0.84815  0.09660  Biso   1.000  C
  C331     1.0000 0.17321  0.32679  0.55874  Biso   1.000  C
  C332     1.0000 0.15185  0.34815  0.59660  Biso   1.000  C
  C333     1.0000 0.67321  0.82679  0.55874  Biso   1.000  C
  C334     1.0000 0.65185  0.84815  0.59660  Biso   1.000  C
  C335     1.0000 0.67321  0.32679  0.05874  Biso   1.000  C
  C336     1.0000 0.65185  0.34815  0.09660  Biso   1.000  C
  C337     1.0000 0.82679  0.82679  0.94126  Biso   1.000  C
  C338     1.0000 0.84815  0.84815  0.90340  Biso   1.000  C
  C339     1.0000 0.82679  0.32679  0.44126  Biso   1.000  C
  C340     1.0000 0.84815  0.34815  0.40340  Biso   1.000  C
  C341     1.0000 0.32679  0.82679  0.44126  Biso   1.000  C
  C342     1.0000 0.34815  0.84815  0.40340  Biso   1.000  C
  C343     1.0000 0.32679  0.32679  0.94126  Biso   1.000  C
  C344     1.0000 0.34815  0.34815  0.90340  Biso   1.000  C
  C345     1.0000 0.82679  0.17321  0.05874  Biso   1.000  C
  C346     1.0000 0.84815  0.15185  0.09660  Biso   1.000  C
  C347     1.0000 0.82679  0.67321  0.55874  Biso   1.000  C
  C348     1.0000 0.84815  0.65185  0.59660  Biso   1.000  C
  C349     1.0000 0.32679  0.17321  0.55874  Biso   1.000  C
  C350     1.0000 0.34815  0.15185  0.59660  Biso   1.000  C
  C351     1.0000 0.32679  0.67321  0.05874  Biso   1.000  C
  C352     1.0000 0.34815  0.65185  0.09660  Biso   1.000  C
  C353     1.0000 0.94126  0.17321  0.17321  Biso   1.000  C
  C354     1.0000 0.90340  0.15185  0.15185  Biso   1.000  C
  C355     1.0000 0.94126  0.67321  0.67321  Biso   1.000  C
  C356     1.0000 0.90340  0.65185  0.65185  Biso   1.000  C
  C357     1.0000 0.44126  0.17321  0.67321  Biso   1.000  C
  C358     1.0000 0.40340  0.15185  0.65185  Biso   1.000  C
  C359     1.0000 0.44126  0.67321  0.17321  Biso   1.000  C
  C360     1.0000 0.40340  0.65185  0.15185  Biso   1.000  C
  C361     1.0000 0.05874  0.17321  0.82679  Biso   1.000  C
  C362     1.0000 0.09660  0.15185  0.84815  Biso   1.000  C
  C363     1.0000 0.05874  0.67321  0.32679  Biso   1.000  C
  C364     1.0000 0.09660  0.65185  0.34815  Biso   1.000  C
  C365     1.0000 0.55874  0.17321  0.32679  Biso   1.000  C
  C366     1.0000 0.59660  0.15185  0.34815  Biso   1.000  C
  C367     1.0000 0.55874  0.67321  0.82679  Biso   1.000  C
  C368     1.0000 0.59660  0.65185  0.84815  Biso   1.000  C
  C369     1.0000 0.94126  0.82679  0.82679  Biso   1.000  C
  C370     1.0000 0.90340  0.84815  0.84815  Biso   1.000  C
  C371     1.0000 0.94126  0.32679  0.32679  Biso   1.000  C
  C372     1.0000 0.90340  0.34815  0.34815  Biso   1.000  C
  C373     1.0000 0.44126  0.82679  0.32679  Biso   1.000  C
  C374     1.0000 0.40340  0.84815  0.34815  Biso   1.000  C
  C375     1.0000 0.44126  0.32679  0.82679  Biso   1.000  C
  C376     1.0000 0.40340  0.34815  0.84815  Biso   1.000  C
  C377     1.0000 0.05874  0.82679  0.17321  Biso   1.000  C
  C378     1.0000 0.09660  0.84815  0.15185  Biso   1.000  C
  C379     1.0000 0.05874  0.32679  0.67321  Biso   1.000  C
  C380     1.0000 0.09660  0.34815  0.65185  Biso   1.000  C
  C381     1.0000 0.55874  0.82679  0.67321  Biso   1.000  C
  C382     1.0000 0.59660  0.84815  0.65185  Biso   1.000  C
  C383     1.0000 0.55874  0.32679  0.17321  Biso   1.000  C
  C384     1.0000 0.59660  0.34815  0.15185  Biso   1.000  C
  C385     1.0000 0.94126  0.17321  0.82679  Biso   1.000  C
  C386     1.0000 0.90340  0.15185  0.84815  Biso   1.000  C
  C387     1.0000 0.94126  0.67321  0.32679  Biso   1.000  C
  C388     1.0000 0.90340  0.65185  0.34815  Biso   1.000  C
  C389     1.0000 0.44126  0.17321  0.32679  Biso   1.000  C
  C390     1.0000 0.40340  0.15185  0.34815  Biso   1.000  C
  C391     1.0000 0.44126  0.67321  0.82679  Biso   1.000  C
  C392     1.0000 0.40340  0.65185  0.84815  Biso   1.000  C
  C393     1.0000 0.05874  0.82679  0.82679  Biso   1.000  C
  C394     1.0000 0.09660  0.84815  0.84815  Biso   1.000  C
  C395     1.0000 0.05874  0.32679  0.32679  Biso   1.000  C
  C396     1.0000 0.09660  0.34815  0.34815  Biso   1.000  C
  C397     1.0000 0.55874  0.82679  0.32679  Biso   1.000  C
  C398     1.0000 0.59660  0.84815  0.34815  Biso   1.000  C
  C399     1.0000 0.55874  0.32679  0.82679  Biso   1.000  C
  C400     1.0000 0.59660  0.34815  0.84815  Biso   1.000  C
  C401     1.0000 0.94126  0.82679  0.17321  Biso   1.000  C
  C402     1.0000 0.90340  0.84815  0.15185  Biso   1.000  C
  C403     1.0000 0.94126  0.32679  0.67321  Biso   1.000  C
  C404     1.0000 0.90340  0.34815  0.65185  Biso   1.000  C
  C405     1.0000 0.44126  0.82679  0.67321  Biso   1.000  C
  C406     1.0000 0.40340  0.84815  0.65185  Biso   1.000  C
  C407     1.0000 0.44126  0.32679  0.17321  Biso   1.000  C
  C408     1.0000 0.40340  0.34815  0.15185  Biso   1.000  C
  C409     1.0000 0.05874  0.17321  0.17321  Biso   1.000  C
  C410     1.0000 0.09660  0.15185  0.15185  Biso   1.000  C
  C411     1.0000 0.05874  0.67321  0.67321  Biso   1.000  C
  C412     1.0000 0.09660  0.65185  0.65185  Biso   1.000  C
  C413     1.0000 0.55874  0.17321  0.67321  Biso   1.000  C
  C414     1.0000 0.59660  0.15185  0.65185  Biso   1.000  C
  C415     1.0000 0.55874  0.67321  0.17321  Biso   1.000  C
  C416     1.0000 0.59660  0.65185  0.15185  Biso   1.000  C
  C417     1.0000 0.17321  0.17321  0.05874  Biso   1.000  C
  C418     1.0000 0.15185  0.15185  0.09660  Biso   1.000  C
  C419     1.0000 0.17321  0.67321  0.55874  Biso   1.000  C
  C420     1.0000 0.15185  0.65185  0.59660  Biso   1.000  C
  C421     1.0000 0.67321  0.17321  0.55874  Biso   1.000  C
  C422     1.0000 0.65185  0.15185  0.59660  Biso   1.000  C
  C423     1.0000 0.67321  0.67321  0.05874  Biso   1.000  C
  C424     1.0000 0.65185  0.65185  0.09660  Biso   1.000  C
  C425     1.0000 0.82679  0.17321  0.94126  Biso   1.000  C
  C426     1.0000 0.84815  0.15185  0.90340  Biso   1.000  C
  C427     1.0000 0.82679  0.67321  0.44126  Biso   1.000  C
  C428     1.0000 0.84815  0.65185  0.40340  Biso   1.000  C
  C429     1.0000 0.32679  0.17321  0.44126  Biso   1.000  C
  C430     1.0000 0.34815  0.15185  0.40340  Biso   1.000  C
  C431     1.0000 0.32679  0.67321  0.94126  Biso   1.000  C
  C432     1.0000 0.34815  0.65185  0.90340  Biso   1.000  C
  C433     1.0000 0.82679  0.82679  0.05874  Biso   1.000  C
  C434     1.0000 0.84815  0.84815  0.09660  Biso   1.000  C
  C435     1.0000 0.82679  0.32679  0.55874  Biso   1.000  C
  C436     1.0000 0.84815  0.34815  0.59660  Biso   1.000  C
  C437     1.0000 0.32679  0.82679  0.55874  Biso   1.000  C
  C438     1.0000 0.34815  0.84815  0.59660  Biso   1.000  C
  C439     1.0000 0.32679  0.32679  0.05874  Biso   1.000  C
  C440     1.0000 0.34815  0.34815  0.09660  Biso   1.000  C
  C441     1.0000 0.17321  0.82679  0.94126  Biso   1.000  C
  C442     1.0000 0.15185  0.84815  0.90340  Biso   1.000  C
  C443     1.0000 0.17321  0.32679  0.44126  Biso   1.000  C
  C444     1.0000 0.15185  0.34815  0.40340  Biso   1.000  C
  C445     1.0000 0.67321  0.82679  0.44126  Biso   1.000  C
  C446     1.0000 0.65185  0.84815  0.40340  Biso   1.000  C
  C447     1.0000 0.67321  0.32679  0.94126  Biso   1.000  C
  C448     1.0000 0.65185  0.34815  0.90340  Biso   1.000  C
  C449     1.0000 0.17321  0.94126  0.82679  Biso   1.000  C
  C450     1.0000 0.15185  0.90340  0.84815  Biso   1.000  C
  C451     1.0000 0.17321  0.44126  0.32679  Biso   1.000  C
  C452     1.0000 0.15185  0.40340  0.34815  Biso   1.000  C
  C453     1.0000 0.67321  0.94126  0.32679  Biso   1.000  C
  C454     1.0000 0.65185  0.90340  0.34815  Biso   1.000  C
  C455     1.0000 0.67321  0.44126  0.82679  Biso   1.000  C
  C456     1.0000 0.65185  0.40340  0.84815  Biso   1.000  C
  C457     1.0000 0.17321  0.05874  0.17321  Biso   1.000  C
  C458     1.0000 0.15185  0.09660  0.15185  Biso   1.000  C
  C459     1.0000 0.17321  0.55874  0.67321  Biso   1.000  C
  C460     1.0000 0.15185  0.59660  0.65185  Biso   1.000  C
  C461     1.0000 0.67321  0.05874  0.67321  Biso   1.000  C
  C462     1.0000 0.65185  0.09660  0.65185  Biso   1.000  C
  C463     1.0000 0.67321  0.55874  0.17321  Biso   1.000  C
  C464     1.0000 0.65185  0.59660  0.15185  Biso   1.000  C
  C465     1.0000 0.82679  0.94126  0.17321  Biso   1.000  C
  C466     1.0000 0.84815  0.90340  0.15185  Biso   1.000  C
  C467     1.0000 0.82679  0.44126  0.67321  Biso   1.000  C
  C468     1.0000 0.84815  0.40340  0.65185  Biso   1.000  C
  C469     1.0000 0.32679  0.94126  0.67321  Biso   1.000  C
  C470     1.0000 0.34815  0.90340  0.65185  Biso   1.000  C
  C471     1.0000 0.32679  0.44126  0.17321  Biso   1.000  C
  C472     1.0000 0.34815  0.40340  0.15185  Biso   1.000  C
  C473     1.0000 0.82679  0.05874  0.82679  Biso   1.000  C
  C474     1.0000 0.84815  0.09660  0.84815  Biso   1.000  C
  C475     1.0000 0.82679  0.55874  0.32679  Biso   1.000  C
  C476     1.0000 0.84815  0.59660  0.34815  Biso   1.000  C
  C477     1.0000 0.32679  0.05874  0.32679  Biso   1.000  C
  C478     1.0000 0.34815  0.09660  0.34815  Biso   1.000  C
  C479     1.0000 0.32679  0.55874  0.82679  Biso   1.000  C
  C480     1.0000 0.34815  0.59660  0.84815  Biso   1.000  C
  C481     1.0000 0.11503  0.88497  0.17040  Biso   1.000  C
  H97      1.0000 0.10290  0.89710  0.19500  Biso   1.000  H
  C482     1.0000 0.11503  0.38497  0.67040  Biso   1.000  C
  H98      1.0000 0.10290  0.39710  0.69500  Biso   1.000  H
  C483     1.0000 0.61503  0.88497  0.67040  Biso   1.000  C
  H99      1.0000 0.60290  0.89710  0.69500  Biso   1.000  H
  C484     1.0000 0.61503  0.38497  0.17040  Biso   1.000  C
  H100     1.0000 0.60290  0.39710  0.19500  Biso   1.000  H
  C485     1.0000 0.88497  0.11503  0.17040  Biso   1.000  C
  H101     1.0000 0.89710  0.10290  0.19500  Biso   1.000  H
  C486     1.0000 0.88497  0.61503  0.67040  Biso   1.000  C
  H102     1.0000 0.89710  0.60290  0.69500  Biso   1.000  H
  C487     1.0000 0.38497  0.11503  0.67040  Biso   1.000  C
  H103     1.0000 0.39710  0.10290  0.69500  Biso   1.000  H
  C488     1.0000 0.38497  0.61503  0.17040  Biso   1.000  C
  H104     1.0000 0.39710  0.60290  0.19500  Biso   1.000  H
  C489     1.0000 0.88497  0.88497  0.82960  Biso   1.000  C
  H105     1.0000 0.89710  0.89710  0.80500  Biso   1.000  H
  C490     1.0000 0.88497  0.38497  0.32960  Biso   1.000  C
  H106     1.0000 0.89710  0.39710  0.30500  Biso   1.000  H
  C491     1.0000 0.38497  0.88497  0.32960  Biso   1.000  C
  H107     1.0000 0.39710  0.89710  0.30500  Biso   1.000  H
  C492     1.0000 0.38497  0.38497  0.82960  Biso   1.000  C
  H108     1.0000 0.39710  0.39710  0.80500  Biso   1.000  H
  C493     1.0000 0.11503  0.11503  0.82960  Biso   1.000  C
  H109     1.0000 0.10290  0.10290  0.80500  Biso   1.000  H
  C494     1.0000 0.11503  0.61503  0.32960  Biso   1.000  C
  H110     1.0000 0.10290  0.60290  0.30500  Biso   1.000  H
  C495     1.0000 0.61503  0.11503  0.32960  Biso   1.000  C
  H111     1.0000 0.60290  0.10290  0.30500  Biso   1.000  H
  C496     1.0000 0.61503  0.61503  0.82960  Biso   1.000  C
  H112     1.0000 0.60290  0.60290  0.80500  Biso   1.000  H
  C497     1.0000 0.17040  0.11503  0.88497  Biso   1.000  C
  H113     1.0000 0.19500  0.10290  0.89710  Biso   1.000  H
  C498     1.0000 0.17040  0.61503  0.38497  Biso   1.000  C
  H114     1.0000 0.19500  0.60290  0.39710  Biso   1.000  H
  C499     1.0000 0.67040  0.11503  0.38497  Biso   1.000  C
  H115     1.0000 0.69500  0.10290  0.39710  Biso   1.000  H
  C500     1.0000 0.67040  0.61503  0.88497  Biso   1.000  C
  H116     1.0000 0.69500  0.60290  0.89710  Biso   1.000  H
  C501     1.0000 0.17040  0.88497  0.11503  Biso   1.000  C
  H117     1.0000 0.19500  0.89710  0.10290  Biso   1.000  H
  C502     1.0000 0.17040  0.38497  0.61503  Biso   1.000  C
  H118     1.0000 0.19500  0.39710  0.60290  Biso   1.000  H
  C503     1.0000 0.67040  0.88497  0.61503  Biso   1.000  C
  H119     1.0000 0.69500  0.89710  0.60290  Biso   1.000  H
  C504     1.0000 0.67040  0.38497  0.11503  Biso   1.000  C
  H120     1.0000 0.69500  0.39710  0.10290  Biso   1.000  H
  C505     1.0000 0.82960  0.88497  0.88497  Biso   1.000  C
  H121     1.0000 0.80500  0.89710  0.89710  Biso   1.000  H
  C506     1.0000 0.82960  0.38497  0.38497  Biso   1.000  C
  H122     1.0000 0.80500  0.39710  0.39710  Biso   1.000  H
  C507     1.0000 0.32960  0.88497  0.38497  Biso   1.000  C
  H123     1.0000 0.30500  0.89710  0.39710  Biso   1.000  H
  C508     1.0000 0.32960  0.38497  0.88497  Biso   1.000  C
  H124     1.0000 0.30500  0.39710  0.89710  Biso   1.000  H
  C509     1.0000 0.82960  0.11503  0.11503  Biso   1.000  C
  H125     1.0000 0.80500  0.10290  0.10290  Biso   1.000  H
  C510     1.0000 0.82960  0.61503  0.61503  Biso   1.000  C
  H126     1.0000 0.80500  0.60290  0.60290  Biso   1.000  H
  C511     1.0000 0.32960  0.11503  0.61503  Biso   1.000  C
  H127     1.0000 0.30500  0.10290  0.60290  Biso   1.000  H
  C512     1.0000 0.32960  0.61503  0.11503  Biso   1.000  C
  H128     1.0000 0.30500  0.60290  0.10290  Biso   1.000  H
  C513     1.0000 0.88497  0.17040  0.11503  Biso   1.000  C
  H129     1.0000 0.89710  0.19500  0.10290  Biso   1.000  H
  C514     1.0000 0.88497  0.67040  0.61503  Biso   1.000  C
  H130     1.0000 0.89710  0.69500  0.60290  Biso   1.000  H
  C515     1.0000 0.38497  0.17040  0.61503  Biso   1.000  C
  H131     1.0000 0.39710  0.19500  0.60290  Biso   1.000  H
  C516     1.0000 0.38497  0.67040  0.11503  Biso   1.000  C
  H132     1.0000 0.39710  0.69500  0.10290  Biso   1.000  H
  C517     1.0000 0.11503  0.17040  0.88497  Biso   1.000  C
  H133     1.0000 0.10290  0.19500  0.89710  Biso   1.000  H
  C518     1.0000 0.11503  0.67040  0.38497  Biso   1.000  C
  H134     1.0000 0.10290  0.69500  0.39710  Biso   1.000  H
  C519     1.0000 0.61503  0.17040  0.38497  Biso   1.000  C
  H135     1.0000 0.60290  0.19500  0.39710  Biso   1.000  H
  C520     1.0000 0.61503  0.67040  0.88497  Biso   1.000  C
  H136     1.0000 0.60290  0.69500  0.89710  Biso   1.000  H
  C521     1.0000 0.88497  0.82960  0.88497  Biso   1.000  C
  H137     1.0000 0.89710  0.80500  0.89710  Biso   1.000  H
  C522     1.0000 0.88497  0.32960  0.38497  Biso   1.000  C
  H138     1.0000 0.89710  0.30500  0.39710  Biso   1.000  H
  C523     1.0000 0.38497  0.82960  0.38497  Biso   1.000  C
  H139     1.0000 0.39710  0.80500  0.39710  Biso   1.000  H
  C524     1.0000 0.38497  0.32960  0.88497  Biso   1.000  C
  H140     1.0000 0.39710  0.30500  0.89710  Biso   1.000  H
  C525     1.0000 0.11503  0.82960  0.11503  Biso   1.000  C
  H141     1.0000 0.10290  0.80500  0.10290  Biso   1.000  H
  C526     1.0000 0.11503  0.32960  0.61503  Biso   1.000  C
  H142     1.0000 0.10290  0.30500  0.60290  Biso   1.000  H
  C527     1.0000 0.61503  0.82960  0.61503  Biso   1.000  C
  H143     1.0000 0.60290  0.80500  0.60290  Biso   1.000  H
  C528     1.0000 0.61503  0.32960  0.11503  Biso   1.000  C
  H144     1.0000 0.60290  0.30500  0.10290  Biso   1.000  H
  C529     1.0000 0.88497  0.11503  0.82960  Biso   1.000  C
  H145     1.0000 0.89710  0.10290  0.80500  Biso   1.000  H
  C530     1.0000 0.88497  0.61503  0.32960  Biso   1.000  C
  H146     1.0000 0.89710  0.60290  0.30500  Biso   1.000  H
  C531     1.0000 0.38497  0.11503  0.32960  Biso   1.000  C
  H147     1.0000 0.39710  0.10290  0.30500  Biso   1.000  H
  C532     1.0000 0.38497  0.61503  0.82960  Biso   1.000  C
  H148     1.0000 0.39710  0.60290  0.80500  Biso   1.000  H
  C533     1.0000 0.11503  0.88497  0.82960  Biso   1.000  C
  H149     1.0000 0.10290  0.89710  0.80500  Biso   1.000  H
  C534     1.0000 0.11503  0.38497  0.32960  Biso   1.000  C
  H150     1.0000 0.10290  0.39710  0.30500  Biso   1.000  H
  C535     1.0000 0.61503  0.88497  0.32960  Biso   1.000  C
  H151     1.0000 0.60290  0.89710  0.30500  Biso   1.000  H
  C536     1.0000 0.61503  0.38497  0.82960  Biso   1.000  C
  H152     1.0000 0.60290  0.39710  0.80500  Biso   1.000  H
  C537     1.0000 0.88497  0.88497  0.17040  Biso   1.000  C
  H153     1.0000 0.89710  0.89710  0.19500  Biso   1.000  H
  C538     1.0000 0.88497  0.38497  0.67040  Biso   1.000  C
  H154     1.0000 0.89710  0.39710  0.69500  Biso   1.000  H
  C539     1.0000 0.38497  0.88497  0.67040  Biso   1.000  C
  H155     1.0000 0.39710  0.89710  0.69500  Biso   1.000  H
  C540     1.0000 0.38497  0.38497  0.17040  Biso   1.000  C
  H156     1.0000 0.39710  0.39710  0.19500  Biso   1.000  H
  C541     1.0000 0.11503  0.11503  0.17040  Biso   1.000  C
  H157     1.0000 0.10290  0.10290  0.19500  Biso   1.000  H
  C542     1.0000 0.11503  0.61503  0.67040  Biso   1.000  C
  H158     1.0000 0.10290  0.60290  0.69500  Biso   1.000  H
  C543     1.0000 0.61503  0.11503  0.67040  Biso   1.000  C
  H159     1.0000 0.60290  0.10290  0.69500  Biso   1.000  H
  C544     1.0000 0.61503  0.61503  0.17040  Biso   1.000  C
  H160     1.0000 0.60290  0.60290  0.19500  Biso   1.000  H
  C545     1.0000 0.11503  0.17040  0.11503  Biso   1.000  C
  H161     1.0000 0.10290  0.19500  0.10290  Biso   1.000  H
  C546     1.0000 0.11503  0.67040  0.61503  Biso   1.000  C
  H162     1.0000 0.10290  0.69500  0.60290  Biso   1.000  H
  C547     1.0000 0.61503  0.17040  0.61503  Biso   1.000  C
  H163     1.0000 0.60290  0.19500  0.60290  Biso   1.000  H
  C548     1.0000 0.61503  0.67040  0.11503  Biso   1.000  C
  H164     1.0000 0.60290  0.69500  0.10290  Biso   1.000  H
  C549     1.0000 0.88497  0.17040  0.88497  Biso   1.000  C
  H165     1.0000 0.89710  0.19500  0.89710  Biso   1.000  H
  C550     1.0000 0.88497  0.67040  0.38497  Biso   1.000  C
  H166     1.0000 0.89710  0.69500  0.39710  Biso   1.000  H
  C551     1.0000 0.38497  0.17040  0.38497  Biso   1.000  C
  H167     1.0000 0.39710  0.19500  0.39710  Biso   1.000  H
  C552     1.0000 0.38497  0.67040  0.88497  Biso   1.000  C
  H168     1.0000 0.39710  0.69500  0.89710  Biso   1.000  H
  C553     1.0000 0.88497  0.82960  0.11503  Biso   1.000  C
  H169     1.0000 0.89710  0.80500  0.10290  Biso   1.000  H
  C554     1.0000 0.88497  0.32960  0.61503  Biso   1.000  C
  H170     1.0000 0.89710  0.30500  0.60290  Biso   1.000  H
  C555     1.0000 0.38497  0.82960  0.61503  Biso   1.000  C
  H171     1.0000 0.39710  0.80500  0.60290  Biso   1.000  H
  C556     1.0000 0.38497  0.32960  0.11503  Biso   1.000  C
  H172     1.0000 0.39710  0.30500  0.10290  Biso   1.000  H
  C557     1.0000 0.11503  0.82960  0.88497  Biso   1.000  C
  H173     1.0000 0.10290  0.80500  0.89710  Biso   1.000  H
  C558     1.0000 0.11503  0.32960  0.38497  Biso   1.000  C
  H174     1.0000 0.10290  0.30500  0.39710  Biso   1.000  H
  C559     1.0000 0.61503  0.82960  0.38497  Biso   1.000  C
  H175     1.0000 0.60290  0.80500  0.39710  Biso   1.000  H
  C560     1.0000 0.61503  0.32960  0.88497  Biso   1.000  C
  H176     1.0000 0.60290  0.30500  0.89710  Biso   1.000  H
  C561     1.0000 0.17040  0.88497  0.88497  Biso   1.000  C
  H177     1.0000 0.19500  0.89710  0.89710  Biso   1.000  H
  C562     1.0000 0.17040  0.38497  0.38497  Biso   1.000  C
  H178     1.0000 0.19500  0.39710  0.39710  Biso   1.000  H
  C563     1.0000 0.67040  0.88497  0.38497  Biso   1.000  C
  H179     1.0000 0.69500  0.89710  0.39710  Biso   1.000  H
  C564     1.0000 0.67040  0.38497  0.88497  Biso   1.000  C
  H180     1.0000 0.69500  0.39710  0.89710  Biso   1.000  H
  C565     1.0000 0.17040  0.11503  0.11503  Biso   1.000  C
  H181     1.0000 0.19500  0.10290  0.10290  Biso   1.000  H
  C566     1.0000 0.17040  0.61503  0.61503  Biso   1.000  C
  H182     1.0000 0.19500  0.60290  0.60290  Biso   1.000  H
  C567     1.0000 0.67040  0.11503  0.61503  Biso   1.000  C
  H183     1.0000 0.69500  0.10290  0.60290  Biso   1.000  H
  C568     1.0000 0.67040  0.61503  0.11503  Biso   1.000  C
  H184     1.0000 0.69500  0.60290  0.10290  Biso   1.000  H
  C569     1.0000 0.82960  0.88497  0.11503  Biso   1.000  C
  H185     1.0000 0.80500  0.89710  0.10290  Biso   1.000  H
  C570     1.0000 0.82960  0.38497  0.61503  Biso   1.000  C
  H186     1.0000 0.80500  0.39710  0.60290  Biso   1.000  H
  C571     1.0000 0.32960  0.88497  0.61503  Biso   1.000  C
  H187     1.0000 0.30500  0.89710  0.60290  Biso   1.000  H
  C572     1.0000 0.32960  0.38497  0.11503  Biso   1.000  C
  H188     1.0000 0.30500  0.39710  0.10290  Biso   1.000  H
  C573     1.0000 0.82960  0.11503  0.88497  Biso   1.000  C
  H189     1.0000 0.80500  0.10290  0.89710  Biso   1.000  H
  C574     1.0000 0.82960  0.61503  0.38497  Biso   1.000  C
  H190     1.0000 0.80500  0.60290  0.39710  Biso   1.000  H
  C575     1.0000 0.32960  0.11503  0.38497  Biso   1.000  C
  H191     1.0000 0.30500  0.10290  0.39710  Biso   1.000  H
  C576     1.0000 0.32960  0.61503  0.88497  Biso   1.000  C
  H192     1.0000 0.30500  0.60290  0.89710  Biso   1.000  H
