data_WIBSAD_clean
_audit_creation_date              2014-07-02
_audit_creation_method            'Materials Studio'
_symmetry_space_group_name_H-M    'P1'
_symmetry_Int_Tables_number       1
_symmetry_cell_setting            triclinic
loop_
_symmetry_equiv_pos_as_xyz
  x,y,z
_cell_length_a                    35.4945
_cell_length_b                    35.4945
_cell_length_c                    35.4945
_cell_angle_alpha                 109.4710
_cell_angle_beta                  109.4710
_cell_angle_gamma                 109.4710
loop_
_atom_site_label
_atom_site_type_symbol
_atom_site_fract_x
_atom_site_fract_y
_atom_site_fract_z
_atom_site_U_iso_or_equiv
_atom_site_adp_type
_atom_site_occupancy
Zn1    Zn    0.40606   0.60185   0.65532   0.01267  Uiso   1.00
Zn2    Zn    0.44654   0.75075   0.84468   0.01267  Uiso   1.00
Zn3    Zn    0.05346   0.89814   0.30420   0.01267  Uiso   1.00
Zn4    Zn    0.09394   0.74926   0.19580   0.01267  Uiso   1.00
Zn5    Zn    0.80421   0.05347   0.39815   0.01267  Uiso   1.00
Zn6    Zn    0.69579   0.09393   0.24925   0.01267  Uiso   1.00
Zn7    Zn    0.15532   0.40606   0.10186   0.01267  Uiso   1.00
Zn8    Zn    0.34468   0.44654   0.25074   0.01267  Uiso   1.00
Zn9    Zn    0.75074   0.34468   0.94653   0.01267  Uiso   1.00
Zn10   Zn    0.60186   0.15532   0.90607   0.01267  Uiso   1.00
Zn11   Zn    0.74926   0.69580   0.59394   0.01267  Uiso   1.00
Zn12   Zn    0.89814   0.80420   0.55346   0.01267  Uiso   1.00
Zn13   Zn    0.25074   0.94653   0.34468   0.01267  Uiso   1.00
Zn14   Zn    0.10186   0.90607   0.15532   0.01267  Uiso   1.00
Zn15   Zn    0.24926   0.59394   0.69580   0.01267  Uiso   1.00
Zn16   Zn    0.39814   0.55346   0.80420   0.01267  Uiso   1.00
Zn17   Zn    0.90606   0.65532   0.60185   0.01267  Uiso   1.00
Zn18   Zn    0.94654   0.84468   0.75075   0.01267  Uiso   1.00
Zn19   Zn    0.55346   0.30420   0.89814   0.01267  Uiso   1.00
Zn20   Zn    0.59394   0.19580   0.74926   0.01267  Uiso   1.00
Zn21   Zn    0.30421   0.39815   0.05347   0.01267  Uiso   1.00
Zn22   Zn    0.19579   0.24925   0.09393   0.01267  Uiso   1.00
Zn23   Zn    0.65532   0.10186   0.40606   0.01267  Uiso   1.00
Zn24   Zn    0.84468   0.25074   0.44654   0.01267  Uiso   1.00
Zn25   Zn    0.50000   0.64852   0.50000   0.01267  Uiso   1.00
Zn26   Zn    0.50000   0.48022   0.50000   0.01267  Uiso   1.00
Zn27   Zn    0.64852   0.00000  -0.00000   0.01267  Uiso   1.00
Zn28   Zn    0.48022  -0.00000  -0.00000   0.01267  Uiso   1.00
Zn29   Zn    0.85148   0.85148   0.35148   0.01267  Uiso   1.00
Zn30   Zn    0.01978   0.01978   0.51978   0.01267  Uiso   1.00
Zn31   Zn    1.00000   0.50000   0.14852   0.01267  Uiso   1.00
Zn32   Zn    1.00000   0.50000   0.98022   0.01267  Uiso   1.00
Zn33   Zn    0.50000   0.14852   0.50000   0.01267  Uiso   1.00
Zn34   Zn    0.50000   0.98022   0.50000   0.01267  Uiso   1.00
Zn35   Zn    0.14852   0.00000  -0.00000   0.01267  Uiso   1.00
Zn36   Zn    0.98022   0.00000  -0.00000   0.01267  Uiso   1.00
Zn37   Zn    1.00000   0.50000   0.64852   0.01267  Uiso   1.00
Zn38   Zn    1.00000   0.50000   0.48022   0.01267  Uiso   1.00
Zn39   Zn    0.35148   0.35148   0.85148   0.01267  Uiso   1.00
Zn40   Zn    0.51978   0.51978   0.01978   0.01267  Uiso   1.00
Fe1    Fe    0.37912   0.52198   0.49922   0.01267  Uiso   1.00
Fe2    Fe    0.28227   0.46736   0.63745   0.01267  Uiso   1.00
Fe3    Fe    0.52276   0.87990   0.00078   0.01267  Uiso   1.00
Fe4    Fe    0.32991   0.64482   0.86255   0.01267  Uiso   1.00
Fe5    Fe    0.97724   0.97802   0.35714   0.01267  Uiso   1.00
Fe6    Fe    0.17009   0.03264   0.31491   0.01267  Uiso   1.00
Fe7    Fe    0.12088   0.62010   0.14286   0.01267  Uiso   1.00
Fe8    Fe    0.21773   0.85518   0.18509   0.01267  Uiso   1.00
Fe9    Fe    0.85714   0.97724   0.47802   0.01267  Uiso   1.00
Fe10   Fe    0.81491   0.17009   0.53264   0.01267  Uiso   1.00
Fe11   Fe    0.64286   0.12088   0.12010   0.01267  Uiso   1.00
Fe12   Fe    0.68509   0.21773   0.35518   0.01267  Uiso   1.00
Fe13   Fe    0.99922   0.37912   0.02198   0.01267  Uiso   1.00
Fe14   Fe    0.13745   0.28227   0.96736   0.01267  Uiso   1.00
Fe15   Fe    0.50078   0.52276   0.37990   0.01267  Uiso   1.00
Fe16   Fe    0.36255   0.32991   0.14482   0.01267  Uiso   1.00
Fe17   Fe    0.87990   0.50078   0.02276   0.01267  Uiso   1.00
Fe18   Fe    0.64482   0.36255   0.82991   0.01267  Uiso   1.00
Fe19   Fe    0.52198   0.99922   0.87912   0.01267  Uiso   1.00
Fe20   Fe    0.46736   0.13745   0.78227   0.01267  Uiso   1.00
Fe21   Fe    0.62010   0.64286   0.62088   0.01267  Uiso   1.00
Fe22   Fe    0.85518   0.68509   0.71773   0.01267  Uiso   1.00
Fe23   Fe    0.97802   0.85714   0.47724   0.01267  Uiso   1.00
Fe24   Fe    0.03264   0.81491   0.67009   0.01267  Uiso   1.00
Fe25   Fe    0.37990   0.02276   0.50078   0.01267  Uiso   1.00
Fe26   Fe    0.14482   0.82991   0.36255   0.01267  Uiso   1.00
Fe27   Fe    0.02198   0.87912   0.99922   0.01267  Uiso   1.00
Fe28   Fe    0.96736   0.78227   0.13745   0.01267  Uiso   1.00
Fe29   Fe    0.12010   0.62088   0.64286   0.01267  Uiso   1.00
Fe30   Fe    0.35518   0.71773   0.68509   0.01267  Uiso   1.00
Fe31   Fe    0.47802   0.47724   0.85714   0.01267  Uiso   1.00
Fe32   Fe    0.53264   0.67009   0.81491   0.01267  Uiso   1.00
Fe33   Fe    0.87912   0.49922   0.52198   0.01267  Uiso   1.00
Fe34   Fe    0.78227   0.63745   0.46736   0.01267  Uiso   1.00
Fe35   Fe    0.02276   0.00078   0.87990   0.01267  Uiso   1.00
Fe36   Fe    0.82991   0.86255   0.64482   0.01267  Uiso   1.00
Fe37   Fe    0.47724   0.35714   0.97802   0.01267  Uiso   1.00
Fe38   Fe    0.67009   0.31491   0.03264   0.01267  Uiso   1.00
Fe39   Fe    0.62088   0.14286   0.62010   0.01267  Uiso   1.00
Fe40   Fe    0.71773   0.18509   0.85518   0.01267  Uiso   1.00
Fe41   Fe    0.35714   0.47802   0.97724   0.01267  Uiso   1.00
Fe42   Fe    0.31491   0.53264   0.17009   0.01267  Uiso   1.00
Fe43   Fe    0.14286   0.12010   0.12088   0.01267  Uiso   1.00
Fe44   Fe    0.18509   0.35518   0.21773   0.01267  Uiso   1.00
Fe45   Fe    0.49922   0.02198   0.37912   0.01267  Uiso   1.00
Fe46   Fe    0.63745   0.96736   0.28227   0.01267  Uiso   1.00
Fe47   Fe    0.00078   0.37990   0.52276   0.01267  Uiso   1.00
Fe48   Fe    0.86255   0.14482   0.32991   0.01267  Uiso   1.00
B1     B     0.21750   0.36330   0.56480   0.01267  Uiso   1.00
B2     B     0.27620   0.45430   0.42970   0.01267  Uiso   1.00
B3     B     0.29850   0.65270   0.93520   0.01267  Uiso   1.00
B4     B     0.52460   0.84650   0.07030   0.01267  Uiso   1.00
B5     B     0.20150   0.13670   0.35420   0.01267  Uiso   1.00
B6     B     0.97540   0.04570   0.32190   0.01267  Uiso   1.00
B7     B     0.28250   0.84730   0.14580   0.01267  Uiso   1.00
B8     B     0.22380   0.65350   0.17810   0.01267  Uiso   1.00
B9     B     0.85420   0.20150   0.63670   0.01267  Uiso   1.00
B10    B     0.82190   0.97540   0.54570   0.01267  Uiso   1.00
B11    B     0.64580   0.28250   0.34730   0.01267  Uiso   1.00
B12    B     0.67810   0.22380   0.15350   0.01267  Uiso   1.00
B13    B     0.06480   0.21750   0.86330   0.01267  Uiso   1.00
B14    B     0.92970   0.27620   0.95430   0.01267  Uiso   1.00
B15    B     0.43520   0.29850   0.15270   0.01267  Uiso   1.00
B16    B     0.57030   0.52460   0.34650   0.01267  Uiso   1.00
B17    B     0.65270   0.43520   0.79850   0.01267  Uiso   1.00
B18    B     0.84650   0.57030   0.02460   0.01267  Uiso   1.00
B19    B     0.36330   0.06480   0.71750   0.01267  Uiso   1.00
B20    B     0.45430   0.92970   0.77620   0.01267  Uiso   1.00
B21    B     0.84730   0.64580   0.78250   0.01267  Uiso   1.00
B22    B     0.65350   0.67810   0.72380   0.01267  Uiso   1.00
B23    B     0.13670   0.85420   0.70150   0.01267  Uiso   1.00
B24    B     0.04570   0.82190   0.47540   0.01267  Uiso   1.00
B25    B     0.15270   0.79850   0.43520   0.01267  Uiso   1.00
B26    B     0.34650   0.02460   0.57030   0.01267  Uiso   1.00
B27    B     0.86330   0.71750   0.06480   0.01267  Uiso   1.00
B28    B     0.95430   0.77620   0.92970   0.01267  Uiso   1.00
B29    B     0.34730   0.78250   0.64580   0.01267  Uiso   1.00
B30    B     0.15350   0.72380   0.67810   0.01267  Uiso   1.00
B31    B     0.63670   0.70150   0.85420   0.01267  Uiso   1.00
B32    B     0.54570   0.47540   0.82190   0.01267  Uiso   1.00
B33    B     0.71750   0.56480   0.36330   0.01267  Uiso   1.00
B34    B     0.77620   0.42970   0.45430   0.01267  Uiso   1.00
B35    B     0.79850   0.93520   0.65270   0.01267  Uiso   1.00
B36    B     0.02460   0.07030   0.84650   0.01267  Uiso   1.00
B37    B     0.70150   0.35420   0.13670   0.01267  Uiso   1.00
B38    B     0.47540   0.32190   0.04570   0.01267  Uiso   1.00
B39    B     0.78250   0.14580   0.84730   0.01267  Uiso   1.00
B40    B     0.72380   0.17810   0.65350   0.01267  Uiso   1.00
B41    B     0.35420   0.63670   0.20150   0.01267  Uiso   1.00
B42    B     0.32190   0.54570   0.97540   0.01267  Uiso   1.00
B43    B     0.14580   0.34730   0.28250   0.01267  Uiso   1.00
B44    B     0.17810   0.15350   0.22380   0.01267  Uiso   1.00
B45    B     0.56480   0.86330   0.21750   0.01267  Uiso   1.00
B46    B     0.42970   0.95430   0.27620   0.01267  Uiso   1.00
B47    B     0.93520   0.15270   0.29850   0.01267  Uiso   1.00
B48    B     0.07030   0.34650   0.52460   0.01267  Uiso   1.00
H1     H     0.19670   0.33020   0.54150   0.01267  Uiso   1.00
H2     H     0.27400   0.31970   0.55550   0.01267  Uiso   1.00
H3     H     0.35810   0.37180   0.60610   0.01267  Uiso   1.00
H4     H     0.37100   0.45070   0.65070   0.01267  Uiso   1.00
H5     H     0.15700   0.32050   0.59590   0.01267  Uiso   1.00
H6     H     0.16410   0.37370   0.66740   0.01267  Uiso   1.00
H7     H     0.22820   0.45150   0.69470   0.01267  Uiso   1.00
H8     H     0.16420   0.35420   0.47580   0.01267  Uiso   1.00
H9     H     0.18160   0.42780   0.47440   0.01267  Uiso   1.00
H10    H     0.24340   0.49060   0.55480   0.01267  Uiso   1.00
H11    H     0.24310   0.43240   0.40710   0.01267  Uiso   1.00
H12    H     0.35110   0.60700   0.52110   0.01267  Uiso   1.00
H13    H     0.24400   0.38210   0.45410   0.01267  Uiso   1.00
H14    H     0.29930   0.39260   0.52350   0.01267  Uiso   1.00
H15    H     0.37260   0.46450   0.55510   0.01267  Uiso   1.00
H16    H     0.26470   0.41120   0.33610   0.01267  Uiso   1.00
H17    H     0.33730   0.43760   0.33330   0.01267  Uiso   1.00
H18    H     0.40060   0.49130   0.41350   0.01267  Uiso   1.00
H19    H     0.28870   0.65520   0.95850   0.01267  Uiso   1.00
H20    H     0.26420   0.71850   0.94450   0.01267  Uiso   1.00
H21    H     0.26570   0.75200   0.89390   0.01267  Uiso   1.00
H22    H     0.30000   0.72030   0.84930   0.01267  Uiso   1.00
H23    H     0.22460   0.56110   0.90410   0.01267  Uiso   1.00
H24    H     0.20630   0.49670   0.83260   0.01267  Uiso   1.00
H25    H     0.25680   0.53350   0.80530   0.01267  Uiso   1.00
H26    H     0.37840   0.68840   0.02420   0.01267  Uiso   1.00
H27    H     0.45340   0.70720   0.02560   0.01267  Uiso   1.00
H28    H     0.43580   0.68860   0.94520   0.01267  Uiso   1.00
H29    H     0.52530   0.83600   0.09290   0.01267  Uiso   1.00
H30    H     0.58590   0.83000   0.97890   0.01267  Uiso   1.00
H31    H     0.42800   0.78990   0.04590   0.01267  Uiso   1.00
H32    H     0.36910   0.77580   0.97650   0.01267  Uiso   1.00
H33    H     0.40940   0.81750   0.94490   0.01267  Uiso   1.00
H34    H     0.57510   0.92860   0.16390   0.01267  Uiso   1.00
H35    H     0.60430   0.00400   0.16670   0.01267  Uiso   1.00
H36    H     0.57780   0.98710   0.08650   0.01267  Uiso   1.00
H37    H     0.21130   0.16980   0.36650   0.01267  Uiso   1.00
H38    H     0.23580   0.18030   0.45430   0.01267  Uiso   1.00
H39    H     0.23430   0.12820   0.48630   0.01267  Uiso   1.00
H40    H     0.20000   0.04930   0.42030   0.01267  Uiso   1.00
H41    H     0.27540   0.17950   0.33650   0.01267  Uiso   1.00
H42    H     0.29370   0.12630   0.29040   0.01267  Uiso   1.00
H43    H     0.24320   0.04850   0.27670   0.01267  Uiso   1.00
H44    H     0.12160   0.14580   0.31000   0.01267  Uiso   1.00
H45    H     0.04660   0.07220   0.25380   0.01267  Uiso   1.00
H46    H     0.06420   0.00940   0.25280   0.01267  Uiso   1.00
H47    H     0.97470   0.06760   0.31070   0.01267  Uiso   1.00
H48    H     0.91410   0.89300   0.24410   0.01267  Uiso   1.00
H49    H     0.07200   0.11790   0.36190   0.01267  Uiso   1.00
H50    H     0.13090   0.10740   0.40670   0.01267  Uiso   1.00
H51    H     0.09060   0.03550   0.40810   0.01267  Uiso   1.00
H52    H     0.92490   0.08880   0.35350   0.01267  Uiso   1.00
H53    H     0.89570   0.06240   0.39970   0.01267  Uiso   1.00
H54    H     0.92220   0.00870   0.40930   0.01267  Uiso   1.00
H55    H     0.30330   0.84480   0.13350   0.01267  Uiso   1.00
H56    H     0.22600   0.78150   0.04570   0.01267  Uiso   1.00
H57    H     0.14190   0.74800   0.01370   0.01267  Uiso   1.00
H58    H     0.12900   0.77970   0.07970   0.01267  Uiso   1.00
H59    H     0.34300   0.93890   0.16350   0.01267  Uiso   1.00
H60    H     0.33590   0.00330   0.20960   0.01267  Uiso   1.00
H61    H     0.27180   0.96650   0.22330   0.01267  Uiso   1.00
H62    H     0.33580   0.81160   0.19000   0.01267  Uiso   1.00
H63    H     0.31840   0.79280   0.24620   0.01267  Uiso   1.00
H64    H     0.25660   0.81140   0.24720   0.01267  Uiso   1.00
H65    H     0.25690   0.66400   0.18930   0.01267  Uiso   1.00
H66    H     0.14890   0.67000   0.25590   0.01267  Uiso   1.00
H67    H     0.25600   0.71010   0.13810   0.01267  Uiso   1.00
H68    H     0.20070   0.72420   0.09330   0.01267  Uiso   1.00
H69    H     0.12740   0.68250   0.09190   0.01267  Uiso   1.00
H70    H     0.23530   0.57140   0.14650   0.01267  Uiso   1.00
H71    H     0.16270   0.49600   0.10030   0.01267  Uiso   1.00
H72    H     0.09940   0.51290   0.09070   0.01267  Uiso   1.00
H73    H     0.86650   0.21130   0.66980   0.01267  Uiso   1.00
H74    H     0.95430   0.23580   0.68030   0.01267  Uiso   1.00
H75    H     0.98630   0.23430   0.62820   0.01267  Uiso   1.00
H76    H     0.92030   0.20000   0.54930   0.01267  Uiso   1.00
H77    H     0.83650   0.27540   0.67950   0.01267  Uiso   1.00
H78    H     0.79040   0.29370   0.62630   0.01267  Uiso   1.00
H79    H     0.77670   0.24320   0.54850   0.01267  Uiso   1.00
H80    H     0.81000   0.12160   0.64580   0.01267  Uiso   1.00
H81    H     0.75380   0.04660   0.57220   0.01267  Uiso   1.00
H82    H     0.75280   0.06420   0.50940   0.01267  Uiso   1.00
H83    H     0.81070   0.97470   0.56760   0.01267  Uiso   1.00
H84    H     0.74410   0.91410   0.39300   0.01267  Uiso   1.00
H85    H     0.86190   0.07200   0.61790   0.01267  Uiso   1.00
H86    H     0.90670   0.13090   0.60740   0.01267  Uiso   1.00
H87    H     0.90810   0.09060   0.53550   0.01267  Uiso   1.00
H88    H     0.85350   0.92490   0.58880   0.01267  Uiso   1.00
H89    H     0.89970   0.89570   0.56240   0.01267  Uiso   1.00
H90    H     0.90930   0.92220   0.50870   0.01267  Uiso   1.00
H91    H     0.63350   0.30330   0.34480   0.01267  Uiso   1.00
H92    H     0.54570   0.22600   0.28150   0.01267  Uiso   1.00
H93    H     0.51370   0.14190   0.24800   0.01267  Uiso   1.00
H94    H     0.57970   0.12900   0.27970   0.01267  Uiso   1.00
H95    H     0.66350   0.34300   0.43890   0.01267  Uiso   1.00
H96    H     0.70960   0.33590   0.50330   0.01267  Uiso   1.00
H97    H     0.72330   0.27180   0.46650   0.01267  Uiso   1.00
H98    H     0.69000   0.33580   0.31160   0.01267  Uiso   1.00
H99    H     0.74620   0.31840   0.29280   0.01267  Uiso   1.00
H100   H     0.74720   0.25660   0.31140   0.01267  Uiso   1.00
H101   H     0.68930   0.25690   0.16400   0.01267  Uiso   1.00
H102   H     0.75590   0.14890   0.17000   0.01267  Uiso   1.00
H103   H     0.63810   0.25600   0.21010   0.01267  Uiso   1.00
H104   H     0.59330   0.20070   0.22420   0.01267  Uiso   1.00
H105   H     0.59190   0.12740   0.18250   0.01267  Uiso   1.00
H106   H     0.64650   0.23530   0.07140   0.01267  Uiso   1.00
H107   H     0.60030   0.16270   0.99600   0.01267  Uiso   1.00
H108   H     0.59070   0.09940   0.01290   0.01267  Uiso   1.00
H109   H     0.04150   0.19670   0.83020   0.01267  Uiso   1.00
H110   H     0.05550   0.27400   0.81970   0.01267  Uiso   1.00
H111   H     0.10610   0.35810   0.87180   0.01267  Uiso   1.00
H112   H     0.15070   0.37100   0.95070   0.01267  Uiso   1.00
H113   H     0.09590   0.15700   0.82050   0.01267  Uiso   1.00
H114   H     0.16740   0.16410   0.87370   0.01267  Uiso   1.00
H115   H     0.19470   0.22820   0.95150   0.01267  Uiso   1.00
H116   H     0.97580   0.16420   0.85420   0.01267  Uiso   1.00
H117   H     0.97440   0.18160   0.92780   0.01267  Uiso   1.00
H118   H     0.05480   0.24340   0.99060   0.01267  Uiso   1.00
H119   H     0.90710   0.24310   0.93240   0.01267  Uiso   1.00
H120   H     0.02110   0.35110   0.10700   0.01267  Uiso   1.00
H121   H     0.95410   0.24400   0.88210   0.01267  Uiso   1.00
H122   H     0.02350   0.29930   0.89260   0.01267  Uiso   1.00
H123   H     0.05510   0.37260   0.96450   0.01267  Uiso   1.00
H124   H     0.83610   0.26470   0.91120   0.01267  Uiso   1.00
H125   H     0.83330   0.33730   0.93760   0.01267  Uiso   1.00
H126   H     0.91350   0.40060   0.99130   0.01267  Uiso   1.00
H127   H     0.45850   0.28870   0.15520   0.01267  Uiso   1.00
H128   H     0.44450   0.26420   0.21850   0.01267  Uiso   1.00
H129   H     0.39390   0.26570   0.25200   0.01267  Uiso   1.00
H130   H     0.34930   0.30000   0.22030   0.01267  Uiso   1.00
H131   H     0.40410   0.22460   0.06110   0.01267  Uiso   1.00
H132   H     0.33260   0.20630   0.99670   0.01267  Uiso   1.00
H133   H     0.30530   0.25680   0.03350   0.01267  Uiso   1.00
H134   H     0.52420   0.37840   0.18840   0.01267  Uiso   1.00
H135   H     0.52560   0.45340   0.20720   0.01267  Uiso   1.00
H136   H     0.44520   0.43580   0.18860   0.01267  Uiso   1.00
H137   H     0.59290   0.52530   0.33600   0.01267  Uiso   1.00
H138   H     0.47890   0.58590   0.33000   0.01267  Uiso   1.00
H139   H     0.54590   0.42800   0.28990   0.01267  Uiso   1.00
H140   H     0.47650   0.36910   0.27580   0.01267  Uiso   1.00
H141   H     0.44490   0.40940   0.31750   0.01267  Uiso   1.00
H142   H     0.66390   0.57510   0.42860   0.01267  Uiso   1.00
H143   H     0.66670   0.60430   0.50400   0.01267  Uiso   1.00
H144   H     0.58650   0.57780   0.48710   0.01267  Uiso   1.00
H145   H     0.65520   0.45850   0.78870   0.01267  Uiso   1.00
H146   H     0.71850   0.44450   0.76420   0.01267  Uiso   1.00
H147   H     0.75200   0.39390   0.76570   0.01267  Uiso   1.00
H148   H     0.72030   0.34930   0.80000   0.01267  Uiso   1.00
H149   H     0.56110   0.40410   0.72460   0.01267  Uiso   1.00
H150   H     0.49670   0.33260   0.70630   0.01267  Uiso   1.00
H151   H     0.53350   0.30530   0.75680   0.01267  Uiso   1.00
H152   H     0.68840   0.52420   0.87840   0.01267  Uiso   1.00
H153   H     0.70720   0.52560   0.95340   0.01267  Uiso   1.00
H154   H     0.68860   0.44520   0.93580   0.01267  Uiso   1.00
H155   H     0.83600   0.59290   0.02530   0.01267  Uiso   1.00
H156   H     0.83000   0.47890   0.08590   0.01267  Uiso   1.00
H157   H     0.78990   0.54590   0.92800   0.01267  Uiso   1.00
H158   H     0.77580   0.47650   0.86910   0.01267  Uiso   1.00
H159   H     0.81750   0.44490   0.90940   0.01267  Uiso   1.00
H160   H     0.92860   0.66390   0.07510   0.01267  Uiso   1.00
H161   H     0.00400   0.66670   0.10430   0.01267  Uiso   1.00
H162   H     0.98710   0.58650   0.07780   0.01267  Uiso   1.00
H163   H     0.33020   0.04150   0.69670   0.01267  Uiso   1.00
H164   H     0.31970   0.05550   0.77400   0.01267  Uiso   1.00
H165   H     0.37180   0.10610   0.85810   0.01267  Uiso   1.00
H166   H     0.45070   0.15070   0.87100   0.01267  Uiso   1.00
H167   H     0.32050   0.09590   0.65700   0.01267  Uiso   1.00
H168   H     0.37370   0.16740   0.66410   0.01267  Uiso   1.00
H169   H     0.45150   0.19470   0.72820   0.01267  Uiso   1.00
H170   H     0.35420   0.97580   0.66420   0.01267  Uiso   1.00
H171   H     0.42780   0.97440   0.68160   0.01267  Uiso   1.00
H172   H     0.49060   0.05480   0.74340   0.01267  Uiso   1.00
H173   H     0.43240   0.90710   0.74310   0.01267  Uiso   1.00
H174   H     0.60700   0.02110   0.85110   0.01267  Uiso   1.00
H175   H     0.38210   0.95410   0.74400   0.01267  Uiso   1.00
H176   H     0.39260   0.02350   0.79930   0.01267  Uiso   1.00
H177   H     0.46450   0.05510   0.87260   0.01267  Uiso   1.00
H178   H     0.41120   0.83610   0.76470   0.01267  Uiso   1.00
H179   H     0.43760   0.83330   0.83730   0.01267  Uiso   1.00
H180   H     0.49130   0.91350   0.90060   0.01267  Uiso   1.00
H181   H     0.84480   0.63350   0.80330   0.01267  Uiso   1.00
H182   H     0.78150   0.54570   0.72600   0.01267  Uiso   1.00
H183   H     0.74800   0.51370   0.64190   0.01267  Uiso   1.00
H184   H     0.77970   0.57970   0.62900   0.01267  Uiso   1.00
H185   H     0.93890   0.66350   0.84300   0.01267  Uiso   1.00
H186   H     0.00330   0.70960   0.83590   0.01267  Uiso   1.00
H187   H     0.96650   0.72330   0.77180   0.01267  Uiso   1.00
H188   H     0.81160   0.69000   0.83580   0.01267  Uiso   1.00
H189   H     0.79280   0.74620   0.81840   0.01267  Uiso   1.00
H190   H     0.81140   0.74720   0.75660   0.01267  Uiso   1.00
H191   H     0.66400   0.68930   0.75690   0.01267  Uiso   1.00
H192   H     0.67000   0.75590   0.64890   0.01267  Uiso   1.00
H193   H     0.71010   0.63810   0.75600   0.01267  Uiso   1.00
H194   H     0.72420   0.59330   0.70070   0.01267  Uiso   1.00
H195   H     0.68250   0.59190   0.62740   0.01267  Uiso   1.00
H196   H     0.57140   0.64650   0.73530   0.01267  Uiso   1.00
H197   H     0.49600   0.60030   0.66270   0.01267  Uiso   1.00
H198   H     0.51290   0.59070   0.59940   0.01267  Uiso   1.00
H199   H     0.16980   0.86650   0.71130   0.01267  Uiso   1.00
H200   H     0.18030   0.95430   0.73580   0.01267  Uiso   1.00
H201   H     0.12820   0.98630   0.73430   0.01267  Uiso   1.00
H202   H     0.04930   0.92030   0.70000   0.01267  Uiso   1.00
H203   H     0.17950   0.83650   0.77540   0.01267  Uiso   1.00
H204   H     0.12630   0.79040   0.79370   0.01267  Uiso   1.00
H205   H     0.04850   0.77670   0.74320   0.01267  Uiso   1.00
H206   H     0.14580   0.81000   0.62160   0.01267  Uiso   1.00
H207   H     0.07220   0.75380   0.54660   0.01267  Uiso   1.00
H208   H     0.00940   0.75280   0.56420   0.01267  Uiso   1.00
H209   H     0.06760   0.81070   0.47470   0.01267  Uiso   1.00
H210   H     0.89300   0.74410   0.41410   0.01267  Uiso   1.00
H211   H     0.11790   0.86190   0.57200   0.01267  Uiso   1.00
H212   H     0.10740   0.90670   0.63090   0.01267  Uiso   1.00
H213   H     0.03550   0.90810   0.59060   0.01267  Uiso   1.00
H214   H     0.08880   0.85350   0.42490   0.01267  Uiso   1.00
H215   H     0.06240   0.89970   0.39570   0.01267  Uiso   1.00
H216   H     0.00870   0.90930   0.42220   0.01267  Uiso   1.00
H217   H     0.15520   0.78870   0.45850   0.01267  Uiso   1.00
H218   H     0.21850   0.76420   0.44450   0.01267  Uiso   1.00
H219   H     0.25200   0.76570   0.39390   0.01267  Uiso   1.00
H220   H     0.22030   0.80000   0.34930   0.01267  Uiso   1.00
H221   H     0.06110   0.72460   0.40410   0.01267  Uiso   1.00
H222   H     0.99670   0.70630   0.33260   0.01267  Uiso   1.00
H223   H     0.03350   0.75680   0.30530   0.01267  Uiso   1.00
H224   H     0.18840   0.87840   0.52420   0.01267  Uiso   1.00
H225   H     0.20720   0.95340   0.52560   0.01267  Uiso   1.00
H226   H     0.18860   0.93580   0.44520   0.01267  Uiso   1.00
H227   H     0.33600   0.02530   0.59290   0.01267  Uiso   1.00
H228   H     0.33000   0.08590   0.47890   0.01267  Uiso   1.00
H229   H     0.28990   0.92800   0.54590   0.01267  Uiso   1.00
H230   H     0.27580   0.86910   0.47650   0.01267  Uiso   1.00
H231   H     0.31750   0.90940   0.44490   0.01267  Uiso   1.00
H232   H     0.42860   0.07510   0.66390   0.01267  Uiso   1.00
H233   H     0.50400   0.10430   0.66670   0.01267  Uiso   1.00
H234   H     0.48710   0.07780   0.58650   0.01267  Uiso   1.00
H235   H     0.83020   0.69670   0.04150   0.01267  Uiso   1.00
H236   H     0.81970   0.77400   0.05550   0.01267  Uiso   1.00
H237   H     0.87180   0.85810   0.10610   0.01267  Uiso   1.00
H238   H     0.95070   0.87100   0.15070   0.01267  Uiso   1.00
H239   H     0.82050   0.65700   0.09590   0.01267  Uiso   1.00
H240   H     0.87370   0.66410   0.16740   0.01267  Uiso   1.00
H241   H     0.95150   0.72820   0.19470   0.01267  Uiso   1.00
H242   H     0.85420   0.66420   0.97580   0.01267  Uiso   1.00
H243   H     0.92780   0.68160   0.97440   0.01267  Uiso   1.00
H244   H     0.99060   0.74340   0.05480   0.01267  Uiso   1.00
H245   H     0.93240   0.74310   0.90710   0.01267  Uiso   1.00
H246   H     0.10700   0.85110   0.02110   0.01267  Uiso   1.00
H247   H     0.88210   0.74400   0.95410   0.01267  Uiso   1.00
H248   H     0.89260   0.79930   0.02350   0.01267  Uiso   1.00
H249   H     0.96450   0.87260   0.05510   0.01267  Uiso   1.00
H250   H     0.91120   0.76470   0.83610   0.01267  Uiso   1.00
H251   H     0.93760   0.83730   0.83330   0.01267  Uiso   1.00
H252   H     0.99130   0.90060   0.91350   0.01267  Uiso   1.00
H253   H     0.34480   0.80330   0.63350   0.01267  Uiso   1.00
H254   H     0.28150   0.72600   0.54570   0.01267  Uiso   1.00
H255   H     0.24800   0.64190   0.51370   0.01267  Uiso   1.00
H256   H     0.27970   0.62900   0.57970   0.01267  Uiso   1.00
H257   H     0.43890   0.84300   0.66350   0.01267  Uiso   1.00
H258   H     0.50330   0.83590   0.70960   0.01267  Uiso   1.00
H259   H     0.46650   0.77180   0.72330   0.01267  Uiso   1.00
H260   H     0.31160   0.83580   0.69000   0.01267  Uiso   1.00
H261   H     0.29280   0.81840   0.74620   0.01267  Uiso   1.00
H262   H     0.31140   0.75660   0.74720   0.01267  Uiso   1.00
H263   H     0.16400   0.75690   0.68930   0.01267  Uiso   1.00
H264   H     0.17000   0.64890   0.75590   0.01267  Uiso   1.00
H265   H     0.21010   0.75600   0.63810   0.01267  Uiso   1.00
H266   H     0.22420   0.70070   0.59330   0.01267  Uiso   1.00
H267   H     0.18250   0.62740   0.59190   0.01267  Uiso   1.00
H268   H     0.07140   0.73530   0.64650   0.01267  Uiso   1.00
H269   H     0.99600   0.66270   0.60030   0.01267  Uiso   1.00
H270   H     0.01290   0.59940   0.59070   0.01267  Uiso   1.00
H271   H     0.66980   0.71130   0.86650   0.01267  Uiso   1.00
H272   H     0.68030   0.73580   0.95430   0.01267  Uiso   1.00
H273   H     0.62820   0.73430   0.98630   0.01267  Uiso   1.00
H274   H     0.54930   0.70000   0.92030   0.01267  Uiso   1.00
H275   H     0.67950   0.77540   0.83650   0.01267  Uiso   1.00
H276   H     0.62630   0.79370   0.79040   0.01267  Uiso   1.00
H277   H     0.54850   0.74320   0.77670   0.01267  Uiso   1.00
H278   H     0.64580   0.62160   0.81000   0.01267  Uiso   1.00
H279   H     0.57220   0.54660   0.75380   0.01267  Uiso   1.00
H280   H     0.50940   0.56420   0.75280   0.01267  Uiso   1.00
H281   H     0.56760   0.47470   0.81070   0.01267  Uiso   1.00
H282   H     0.39300   0.41410   0.74410   0.01267  Uiso   1.00
H283   H     0.61790   0.57200   0.86190   0.01267  Uiso   1.00
H284   H     0.60740   0.63090   0.90670   0.01267  Uiso   1.00
H285   H     0.53550   0.59060   0.90810   0.01267  Uiso   1.00
H286   H     0.58880   0.42490   0.85350   0.01267  Uiso   1.00
H287   H     0.56240   0.39570   0.89970   0.01267  Uiso   1.00
H288   H     0.50870   0.42220   0.90930   0.01267  Uiso   1.00
H289   H     0.69670   0.54150   0.33020   0.01267  Uiso   1.00
H290   H     0.77400   0.55550   0.31970   0.01267  Uiso   1.00
H291   H     0.85810   0.60610   0.37180   0.01267  Uiso   1.00
H292   H     0.87100   0.65070   0.45070   0.01267  Uiso   1.00
H293   H     0.65700   0.59590   0.32050   0.01267  Uiso   1.00
H294   H     0.66410   0.66740   0.37370   0.01267  Uiso   1.00
H295   H     0.72820   0.69470   0.45150   0.01267  Uiso   1.00
H296   H     0.66420   0.47580   0.35420   0.01267  Uiso   1.00
H297   H     0.68160   0.47440   0.42780   0.01267  Uiso   1.00
H298   H     0.74340   0.55480   0.49060   0.01267  Uiso   1.00
H299   H     0.74310   0.40710   0.43240   0.01267  Uiso   1.00
H300   H     0.85110   0.52110   0.60700   0.01267  Uiso   1.00
H301   H     0.74400   0.45410   0.38210   0.01267  Uiso   1.00
H302   H     0.79930   0.52350   0.39260   0.01267  Uiso   1.00
H303   H     0.87260   0.55510   0.46450   0.01267  Uiso   1.00
H304   H     0.76470   0.33610   0.41120   0.01267  Uiso   1.00
H305   H     0.83730   0.33330   0.43760   0.01267  Uiso   1.00
H306   H     0.90060   0.41350   0.49130   0.01267  Uiso   1.00
H307   H     0.78870   0.95850   0.65520   0.01267  Uiso   1.00
H308   H     0.76420   0.94450   0.71850   0.01267  Uiso   1.00
H309   H     0.76570   0.89390   0.75200   0.01267  Uiso   1.00
H310   H     0.80000   0.84930   0.72030   0.01267  Uiso   1.00
H311   H     0.72460   0.90410   0.56110   0.01267  Uiso   1.00
H312   H     0.70630   0.83260   0.49670   0.01267  Uiso   1.00
H313   H     0.75680   0.80530   0.53350   0.01267  Uiso   1.00
H314   H     0.87840   0.02420   0.68840   0.01267  Uiso   1.00
H315   H     0.95340   0.02560   0.70720   0.01267  Uiso   1.00
H316   H     0.93580   0.94520   0.68860   0.01267  Uiso   1.00
H317   H     0.02530   0.09290   0.83600   0.01267  Uiso   1.00
H318   H     0.08590   0.97890   0.83000   0.01267  Uiso   1.00
H319   H     0.92800   0.04590   0.78990   0.01267  Uiso   1.00
H320   H     0.86910   0.97650   0.77580   0.01267  Uiso   1.00
H321   H     0.90940   0.94490   0.81750   0.01267  Uiso   1.00
H322   H     0.07510   0.16390   0.92860   0.01267  Uiso   1.00
H323   H     0.10430   0.16670   0.00400   0.01267  Uiso   1.00
H324   H     0.07780   0.08650   0.98710   0.01267  Uiso   1.00
H325   H     0.71130   0.36650   0.16980   0.01267  Uiso   1.00
H326   H     0.73580   0.45430   0.18030   0.01267  Uiso   1.00
H327   H     0.73430   0.48630   0.12820   0.01267  Uiso   1.00
H328   H     0.70000   0.42030   0.04930   0.01267  Uiso   1.00
H329   H     0.77540   0.33650   0.17950   0.01267  Uiso   1.00
H330   H     0.79370   0.29040   0.12630   0.01267  Uiso   1.00
H331   H     0.74320   0.27670   0.04850   0.01267  Uiso   1.00
H332   H     0.62160   0.31000   0.14580   0.01267  Uiso   1.00
H333   H     0.54660   0.25380   0.07220   0.01267  Uiso   1.00
H334   H     0.56420   0.25280   0.00940   0.01267  Uiso   1.00
H335   H     0.47470   0.31070   0.06760   0.01267  Uiso   1.00
H336   H     0.41410   0.24410   0.89300   0.01267  Uiso   1.00
H337   H     0.57200   0.36190   0.11790   0.01267  Uiso   1.00
H338   H     0.63090   0.40670   0.10740   0.01267  Uiso   1.00
H339   H     0.59060   0.40810   0.03550   0.01267  Uiso   1.00
H340   H     0.42490   0.35350   0.08880   0.01267  Uiso   1.00
H341   H     0.39570   0.39970   0.06240   0.01267  Uiso   1.00
H342   H     0.42220   0.40930   0.00870   0.01267  Uiso   1.00
H343   H     0.80330   0.13350   0.84480   0.01267  Uiso   1.00
H344   H     0.72600   0.04570   0.78150   0.01267  Uiso   1.00
H345   H     0.64190   0.01370   0.74800   0.01267  Uiso   1.00
H346   H     0.62900   0.07970   0.77970   0.01267  Uiso   1.00
H347   H     0.84300   0.16350   0.93890   0.01267  Uiso   1.00
H348   H     0.83590   0.20960   0.00330   0.01267  Uiso   1.00
H349   H     0.77180   0.22330   0.96650   0.01267  Uiso   1.00
H350   H     0.83580   0.19000   0.81160   0.01267  Uiso   1.00
H351   H     0.81840   0.24620   0.79280   0.01267  Uiso   1.00
H352   H     0.75660   0.24720   0.81140   0.01267  Uiso   1.00
H353   H     0.75690   0.18930   0.66400   0.01267  Uiso   1.00
H354   H     0.64890   0.25590   0.67000   0.01267  Uiso   1.00
H355   H     0.75600   0.13810   0.71010   0.01267  Uiso   1.00
H356   H     0.70070   0.09330   0.72420   0.01267  Uiso   1.00
H357   H     0.62740   0.09190   0.68250   0.01267  Uiso   1.00
H358   H     0.73530   0.14650   0.57140   0.01267  Uiso   1.00
H359   H     0.66270   0.10030   0.49600   0.01267  Uiso   1.00
H360   H     0.59940   0.09070   0.51290   0.01267  Uiso   1.00
H361   H     0.36650   0.66980   0.21130   0.01267  Uiso   1.00
H362   H     0.45430   0.68030   0.23580   0.01267  Uiso   1.00
H363   H     0.48630   0.62820   0.23430   0.01267  Uiso   1.00
H364   H     0.42030   0.54930   0.20000   0.01267  Uiso   1.00
H365   H     0.33650   0.67950   0.27540   0.01267  Uiso   1.00
H366   H     0.29040   0.62630   0.29370   0.01267  Uiso   1.00
H367   H     0.27670   0.54850   0.24320   0.01267  Uiso   1.00
H368   H     0.31000   0.64580   0.12160   0.01267  Uiso   1.00
H369   H     0.25380   0.57220   0.04660   0.01267  Uiso   1.00
H370   H     0.25280   0.50940   0.06420   0.01267  Uiso   1.00
H371   H     0.31070   0.56760   0.97470   0.01267  Uiso   1.00
H372   H     0.24410   0.39300   0.91410   0.01267  Uiso   1.00
H373   H     0.36190   0.61790   0.07200   0.01267  Uiso   1.00
H374   H     0.40670   0.60740   0.13090   0.01267  Uiso   1.00
H375   H     0.40810   0.53550   0.09060   0.01267  Uiso   1.00
H376   H     0.35350   0.58880   0.92490   0.01267  Uiso   1.00
H377   H     0.39970   0.56240   0.89570   0.01267  Uiso   1.00
H378   H     0.40930   0.50870   0.92220   0.01267  Uiso   1.00
H379   H     0.13350   0.34480   0.30330   0.01267  Uiso   1.00
H380   H     0.04570   0.28150   0.22600   0.01267  Uiso   1.00
H381   H     0.01370   0.24800   0.14190   0.01267  Uiso   1.00
H382   H     0.07970   0.27970   0.12900   0.01267  Uiso   1.00
H383   H     0.16350   0.43890   0.34300   0.01267  Uiso   1.00
H384   H     0.20960   0.50330   0.33590   0.01267  Uiso   1.00
H385   H     0.22330   0.46650   0.27180   0.01267  Uiso   1.00
H386   H     0.19000   0.31160   0.33580   0.01267  Uiso   1.00
H387   H     0.24620   0.29280   0.31840   0.01267  Uiso   1.00
H388   H     0.24720   0.31140   0.25660   0.01267  Uiso   1.00
H389   H     0.18930   0.16400   0.25690   0.01267  Uiso   1.00
H390   H     0.25590   0.17000   0.14890   0.01267  Uiso   1.00
H391   H     0.13810   0.21010   0.25600   0.01267  Uiso   1.00
H392   H     0.09330   0.22420   0.20070   0.01267  Uiso   1.00
H393   H     0.09190   0.18250   0.12740   0.01267  Uiso   1.00
H394   H     0.14650   0.07140   0.23530   0.01267  Uiso   1.00
H395   H     0.10030   0.99600   0.16270   0.01267  Uiso   1.00
H396   H     0.09070   0.01290   0.09940   0.01267  Uiso   1.00
H397   H     0.54150   0.83020   0.19670   0.01267  Uiso   1.00
H398   H     0.55550   0.81970   0.27400   0.01267  Uiso   1.00
H399   H     0.60610   0.87180   0.35810   0.01267  Uiso   1.00
H400   H     0.65070   0.95070   0.37100   0.01267  Uiso   1.00
H401   H     0.59590   0.82050   0.15700   0.01267  Uiso   1.00
H402   H     0.66740   0.87370   0.16410   0.01267  Uiso   1.00
H403   H     0.69470   0.95150   0.22820   0.01267  Uiso   1.00
H404   H     0.47580   0.85420   0.16420   0.01267  Uiso   1.00
H405   H     0.47440   0.92780   0.18160   0.01267  Uiso   1.00
H406   H     0.55480   0.99060   0.24340   0.01267  Uiso   1.00
H407   H     0.40710   0.93240   0.24310   0.01267  Uiso   1.00
H408   H     0.52110   0.10700   0.35110   0.01267  Uiso   1.00
H409   H     0.45410   0.88210   0.24400   0.01267  Uiso   1.00
H410   H     0.52350   0.89260   0.29930   0.01267  Uiso   1.00
H411   H     0.55510   0.96450   0.37260   0.01267  Uiso   1.00
H412   H     0.33610   0.91120   0.26470   0.01267  Uiso   1.00
H413   H     0.33330   0.93760   0.33730   0.01267  Uiso   1.00
H414   H     0.41350   0.99130   0.40060   0.01267  Uiso   1.00
H415   H     0.95850   0.15520   0.28870   0.01267  Uiso   1.00
H416   H     0.94450   0.21850   0.26420   0.01267  Uiso   1.00
H417   H     0.89390   0.25200   0.26570   0.01267  Uiso   1.00
H418   H     0.84930   0.22030   0.30000   0.01267  Uiso   1.00
H419   H     0.90410   0.06110   0.22460   0.01267  Uiso   1.00
H420   H     0.83260   0.99670   0.20630   0.01267  Uiso   1.00
H421   H     0.80530   0.03350   0.25680   0.01267  Uiso   1.00
H422   H     0.02420   0.18840   0.37840   0.01267  Uiso   1.00
H423   H     0.02560   0.20720   0.45340   0.01267  Uiso   1.00
H424   H     0.94520   0.18860   0.43580   0.01267  Uiso   1.00
H425   H     0.09290   0.33600   0.52530   0.01267  Uiso   1.00
H426   H     0.97890   0.33000   0.58590   0.01267  Uiso   1.00
H427   H     0.04590   0.28990   0.42800   0.01267  Uiso   1.00
H428   H     0.97650   0.27580   0.36910   0.01267  Uiso   1.00
H429   H     0.94490   0.31750   0.40940   0.01267  Uiso   1.00
H430   H     0.16390   0.42860   0.57510   0.01267  Uiso   1.00
H431   H     0.16670   0.50400   0.60430   0.01267  Uiso   1.00
H432   H     0.08650   0.48710   0.57780   0.01267  Uiso   1.00
C1     C     0.42050   0.57363   0.50033   0.01267  Uiso   1.00
C2     C     0.42587   0.50567   0.50980   0.01267  Uiso   1.00
C3     C     0.37579   0.67487   0.66820   0.01267  Uiso   1.00
C4     C     0.48788   0.64398   0.75138   0.01267  Uiso   1.00
C5     C     0.40407   0.56050   0.56417   0.01267  Uiso   1.00
C6     C     0.32967   0.51435   0.63802   0.01267  Uiso   1.00
C7     C     0.28900   0.35130   0.57690   0.01267  Uiso   1.00
C8     C     0.33520   0.37990   0.60430   0.01267  Uiso   1.00
C9     C     0.34219   0.42377   0.62956   0.01267  Uiso   1.00
C10    C     0.17750   0.35240   0.61390   0.01267  Uiso   1.00
C11    C     0.18140   0.38110   0.65330   0.01267  Uiso   1.00
C12    C     0.21710   0.42420   0.66770   0.01267  Uiso   1.00
C13    C     0.18590   0.38400   0.50090   0.01267  Uiso   1.00
C14    C     0.19530   0.42440   0.49990   0.01267  Uiso   1.00
C15    C     0.22940   0.45887   0.54467   0.01267  Uiso   1.00
C16    C     0.24990   0.51080   0.45370   0.01267  Uiso   1.00
C17    C     0.28020   0.55980   0.48720   0.01267  Uiso   1.00
C18    C     0.32680   0.57610   0.50290   0.01267  Uiso   1.00
C19    C     0.27480   0.40660   0.47340   0.01267  Uiso   1.00
C20    C     0.30430   0.41180   0.51070   0.01267  Uiso   1.00
C21    C     0.34500   0.45180   0.52800   0.01267  Uiso   1.00
C22    C     0.29463   0.43280   0.36143   0.01267  Uiso   1.00
C23    C     0.33430   0.44680   0.35970   0.01267  Uiso   1.00
C24    C     0.36910   0.47690   0.40420   0.01267  Uiso   1.00
C25    C     0.57330   0.92017   0.99967   0.01267  Uiso   1.00
C26    C     0.49587   0.91607   0.99020   0.01267  Uiso   1.00
C27    C     0.50667   0.70759   0.83180   0.01267  Uiso   1.00
C28    C     0.39260   0.73650   0.74862   0.01267  Uiso   1.00
C29    C     0.49633   0.83990   0.93583   0.01267  Uiso   1.00
C30    C     0.37633   0.69165   0.86198   0.01267  Uiso   1.00
C31    C     0.27440   0.71210   0.92310   0.01267  Uiso   1.00
C32    C     0.27560   0.73090   0.89570   0.01267  Uiso   1.00
C33    C     0.29421   0.71263   0.87044   0.01267  Uiso   1.00
C34    C     0.23850   0.56360   0.88610   0.01267  Uiso   1.00
C35    C     0.22780   0.52810   0.84670   0.01267  Uiso   1.00
C36    C     0.25650   0.54940   0.83230   0.01267  Uiso   1.00
C37    C     0.38310   0.68500   0.99910   0.01267  Uiso   1.00
C38    C     0.42450   0.69540   0.00010   0.01267  Uiso   1.00
C39    C     0.41420   0.68473   0.95533   0.01267  Uiso   1.00
C40    C     0.55710   0.79620   0.04630   0.01267  Uiso   1.00
C41    C     0.57260   0.79300   0.01280   0.01267  Uiso   1.00
C42    C     0.57320   0.82390   0.99710   0.01267  Uiso   1.00
C43    C     0.43320   0.80140   0.02660   0.01267  Uiso   1.00
C44    C     0.40110   0.79360   0.98930   0.01267  Uiso   1.00
C45    C     0.42380   0.81700   0.97200   0.01267  Uiso   1.00
C46    C     0.57137   0.93320   0.13857   0.01267  Uiso   1.00
C47    C     0.58710   0.97460   0.14030   0.01267  Uiso   1.00
C48    C     0.57270   0.96490   0.09580   0.01267  Uiso   1.00
C49    C     0.92670   0.92637   0.34687   0.01267  Uiso   1.00
C50    C     0.00413   0.99433   0.42020   0.01267  Uiso   1.00
C51    C     0.99333   0.82513   0.20092   0.01267  Uiso   1.00
C52    C     0.10740   0.85602   0.34390   0.01267  Uiso   1.00
C53    C     0.00367   0.93950   0.34357   0.01267  Uiso   1.00
C54    C     0.12367   0.98565   0.31532   0.01267  Uiso   1.00
C55    C     0.22560   0.14870   0.43770   0.01267  Uiso   1.00
C56    C     0.22440   0.12010   0.45530   0.01267  Uiso   1.00
C57    C     0.20579   0.07623   0.41842   0.01267  Uiso   1.00
C58    C     0.26150   0.14760   0.32510   0.01267  Uiso   1.00
C59    C     0.27220   0.11890   0.30030   0.01267  Uiso   1.00
C60    C     0.24350   0.07580   0.29290   0.01267  Uiso   1.00
C61    C     0.11690   0.11600   0.30190   0.01267  Uiso   1.00
C62    C     0.07550   0.07560   0.27090   0.01267  Uiso   1.00
C63    C     0.08580   0.04113   0.27053   0.01267  Uiso   1.00
C64    C     0.94290   0.98920   0.23910   0.01267  Uiso   1.00
C65    C     0.92740   0.94020   0.22040   0.01267  Uiso   1.00
C66    C     0.92680   0.92390   0.25070   0.01267  Uiso   1.00
C67    C     0.06680   0.09340   0.36820   0.01267  Uiso   1.00
C68    C     0.09890   0.08820   0.39250   0.01267  Uiso   1.00
C69    C     0.07620   0.04820   0.39320   0.01267  Uiso   1.00
C70    C     0.92863   0.06720   0.36183   0.01267  Uiso   1.00
C71    C     0.91290   0.05320   0.38750   0.01267  Uiso   1.00
C72    C     0.92730   0.02310   0.39220   0.01267  Uiso   1.00
C73    C     0.07950   0.57983   0.15313   0.01267  Uiso   1.00
C74    C     0.07413   0.58393   0.07980   0.01267  Uiso   1.00
C75    C     0.12421   0.79241   0.29908   0.01267  Uiso   1.00
C76    C     0.01212   0.76350   0.15610   0.01267  Uiso   1.00
C77    C     0.09593   0.66010   0.15643   0.01267  Uiso   1.00
C78    C     0.17033   0.80835   0.18468   0.01267  Uiso   1.00
C79    C     0.21100   0.78790   0.06230   0.01267  Uiso   1.00
C80    C     0.16480   0.76910   0.04470   0.01267  Uiso   1.00
C81    C     0.15781   0.78737   0.08158   0.01267  Uiso   1.00
C82    C     0.32250   0.93640   0.17490   0.01267  Uiso   1.00
C83    C     0.31860   0.97190   0.19970   0.01267  Uiso   1.00
C84    C     0.28290   0.95060   0.20710   0.01267  Uiso   1.00
C85    C     0.31410   0.81500   0.19810   0.01267  Uiso   1.00
C86    C     0.30470   0.80460   0.22910   0.01267  Uiso   1.00
C87    C     0.27060   0.81527   0.22947   0.01267  Uiso   1.00
C88    C     0.25010   0.70380   0.26090   0.01267  Uiso   1.00
C89    C     0.21980   0.70700   0.27960   0.01267  Uiso   1.00
C90    C     0.17320   0.67610   0.24930   0.01267  Uiso   1.00
C91    C     0.22520   0.69860   0.13180   0.01267  Uiso   1.00
C92    C     0.19570   0.70640   0.10750   0.01267  Uiso   1.00
C93    C     0.15500   0.68300   0.10680   0.01267  Uiso   1.00
C94    C     0.20537   0.56680   0.13817   0.01267  Uiso   1.00
C95    C     0.16570   0.52540   0.11250   0.01267  Uiso   1.00
C96    C     0.13090   0.53510   0.10780   0.01267  Uiso   1.00
C97    C     0.84687   0.92670   0.42637   0.01267  Uiso   1.00
C98    C     0.92020   0.00413   0.49433   0.01267  Uiso   1.00
C99    C     0.70092   0.99333   0.32513   0.01267  Uiso   1.00
C100   C     0.84390   0.10740   0.35602   0.01267  Uiso   1.00
C101   C     0.84357   0.00367   0.43950   0.01267  Uiso   1.00
C102   C     0.81532   0.12367   0.48565   0.01267  Uiso   1.00
C103   C     0.93770   0.22560   0.64870   0.01267  Uiso   1.00
C104   C     0.95530   0.22440   0.62010   0.01267  Uiso   1.00
C105   C     0.91842   0.20579   0.57623   0.01267  Uiso   1.00
C106   C     0.82510   0.26150   0.64760   0.01267  Uiso   1.00
C107   C     0.80030   0.27220   0.61890   0.01267  Uiso   1.00
C108   C     0.79290   0.24350   0.57580   0.01267  Uiso   1.00
C109   C     0.80190   0.11690   0.61600   0.01267  Uiso   1.00
C110   C     0.77090   0.07550   0.57560   0.01267  Uiso   1.00
C111   C     0.77053   0.08580   0.54113   0.01267  Uiso   1.00
C112   C     0.73910   0.94290   0.48920   0.01267  Uiso   1.00
C113   C     0.72040   0.92740   0.44020   0.01267  Uiso   1.00
C114   C     0.75070   0.92680   0.42390   0.01267  Uiso   1.00
C115   C     0.86820   0.06680   0.59340   0.01267  Uiso   1.00
C116   C     0.89250   0.09890   0.58820   0.01267  Uiso   1.00
C117   C     0.89320   0.07620   0.54820   0.01267  Uiso   1.00
C118   C     0.86183   0.92863   0.56720   0.01267  Uiso   1.00
C119   C     0.88750   0.91290   0.55320   0.01267  Uiso   1.00
C120   C     0.89220   0.92730   0.52310   0.01267  Uiso   1.00
C121   C     0.65313   0.07950   0.07983   0.01267  Uiso   1.00
C122   C     0.57980   0.07413   0.08393   0.01267  Uiso   1.00
C123   C     0.79908   0.12421   0.29241   0.01267  Uiso   1.00
C124   C     0.65610   0.01212   0.26350   0.01267  Uiso   1.00
C125   C     0.65643   0.09593   0.16010   0.01267  Uiso   1.00
C126   C     0.68468   0.17033   0.30835   0.01267  Uiso   1.00
C127   C     0.56230   0.21100   0.28790   0.01267  Uiso   1.00
C128   C     0.54470   0.16480   0.26910   0.01267  Uiso   1.00
C129   C     0.58158   0.15781   0.28737   0.01267  Uiso   1.00
C130   C     0.67490   0.32250   0.43640   0.01267  Uiso   1.00
C131   C     0.69970   0.31860   0.47190   0.01267  Uiso   1.00
C132   C     0.70710   0.28290   0.45060   0.01267  Uiso   1.00
C133   C     0.69810   0.31410   0.31500   0.01267  Uiso   1.00
C134   C     0.72910   0.30470   0.30460   0.01267  Uiso   1.00
C135   C     0.72947   0.27060   0.31527   0.01267  Uiso   1.00
C136   C     0.76090   0.25010   0.20380   0.01267  Uiso   1.00
C137   C     0.77960   0.21980   0.20700   0.01267  Uiso   1.00
C138   C     0.74930   0.17320   0.17610   0.01267  Uiso   1.00
C139   C     0.63180   0.22520   0.19860   0.01267  Uiso   1.00
C140   C     0.60750   0.19570   0.20640   0.01267  Uiso   1.00
C141   C     0.60680   0.15500   0.18300   0.01267  Uiso   1.00
C142   C     0.63817   0.20537   0.06680   0.01267  Uiso   1.00
C143   C     0.61250   0.16570   0.02540   0.01267  Uiso   1.00
C144   C     0.60780   0.13090   0.03510   0.01267  Uiso   1.00
C145   C     0.00033   0.42050   0.07363   0.01267  Uiso   1.00
C146   C     0.00980   0.42587   0.00567   0.01267  Uiso   1.00
C147   C     0.16820   0.37579   0.17487   0.01267  Uiso   1.00
C148   C     0.25138   0.48788   0.14398   0.01267  Uiso   1.00
C149   C     0.06417   0.40407   0.06050   0.01267  Uiso   1.00
C150   C     0.13802   0.32967   0.01435   0.01267  Uiso   1.00
C151   C     0.07690   0.28900   0.85130   0.01267  Uiso   1.00
C152   C     0.10430   0.33520   0.87990   0.01267  Uiso   1.00
C153   C     0.12956   0.34219   0.92377   0.01267  Uiso   1.00
C154   C     0.11390   0.17750   0.85240   0.01267  Uiso   1.00
C155   C     0.15330   0.18140   0.88110   0.01267  Uiso   1.00
C156   C     0.16770   0.21710   0.92420   0.01267  Uiso   1.00
C157   C     0.00090   0.18590   0.88400   0.01267  Uiso   1.00
C158   C     0.99990   0.19530   0.92440   0.01267  Uiso   1.00
C159   C     0.04467   0.22940   0.95887   0.01267  Uiso   1.00
C160   C     0.95370   0.24990   0.01080   0.01267  Uiso   1.00
C161   C     0.98720   0.28020   0.05980   0.01267  Uiso   1.00
C162   C     0.00290   0.32680   0.07610   0.01267  Uiso   1.00
C163   C     0.97340   0.27480   0.90660   0.01267  Uiso   1.00
C164   C     0.01070   0.30430   0.91180   0.01267  Uiso   1.00
C165   C     0.02800   0.34500   0.95180   0.01267  Uiso   1.00
C166   C     0.86143   0.29463   0.93280   0.01267  Uiso   1.00
C167   C     0.85970   0.33430   0.94680   0.01267  Uiso   1.00
C168   C     0.90420   0.36910   0.97690   0.01267  Uiso   1.00
C169   C     0.49967   0.57330   0.42017   0.01267  Uiso   1.00
C170   C     0.49020   0.49587   0.41607   0.01267  Uiso   1.00
C171   C     0.33180   0.50667   0.20759   0.01267  Uiso   1.00
C172   C     0.24862   0.39260   0.23650   0.01267  Uiso   1.00
C173   C     0.43583   0.49633   0.33990   0.01267  Uiso   1.00
C174   C     0.36198   0.37633   0.19165   0.01267  Uiso   1.00
C175   C     0.42310   0.27440   0.21210   0.01267  Uiso   1.00
C176   C     0.39570   0.27560   0.23090   0.01267  Uiso   1.00
C177   C     0.37044   0.29421   0.21263   0.01267  Uiso   1.00
C178   C     0.38610   0.23850   0.06360   0.01267  Uiso   1.00
C179   C     0.34670   0.22780   0.02810   0.01267  Uiso   1.00
C180   C     0.33230   0.25650   0.04940   0.01267  Uiso   1.00
C181   C     0.49910   0.38310   0.18500   0.01267  Uiso   1.00
C182   C     0.50010   0.42450   0.19540   0.01267  Uiso   1.00
C183   C     0.45533   0.41420   0.18473   0.01267  Uiso   1.00
C184   C     0.54630   0.55710   0.29620   0.01267  Uiso   1.00
C185   C     0.51280   0.57260   0.29300   0.01267  Uiso   1.00
C186   C     0.49710   0.57320   0.32390   0.01267  Uiso   1.00
C187   C     0.52660   0.43320   0.30140   0.01267  Uiso   1.00
C188   C     0.48930   0.40110   0.29360   0.01267  Uiso   1.00
C189   C     0.47200   0.42380   0.31700   0.01267  Uiso   1.00
C190   C     0.63857   0.57137   0.43320   0.01267  Uiso   1.00
C191   C     0.64030   0.58710   0.47460   0.01267  Uiso   1.00
C192   C     0.59580   0.57270   0.46490   0.01267  Uiso   1.00
C193   C     0.92017   0.49967   0.07330   0.01267  Uiso   1.00
C194   C     0.91607   0.49020   0.99587   0.01267  Uiso   1.00
C195   C     0.70759   0.33180   0.00667   0.01267  Uiso   1.00
C196   C     0.73650   0.24862   0.89260   0.01267  Uiso   1.00
C197   C     0.83990   0.43583   0.99633   0.01267  Uiso   1.00
C198   C     0.69165   0.36198   0.87633   0.01267  Uiso   1.00
C199   C     0.71210   0.42310   0.77440   0.01267  Uiso   1.00
C200   C     0.73090   0.39570   0.77560   0.01267  Uiso   1.00
C201   C     0.71263   0.37044   0.79421   0.01267  Uiso   1.00
C202   C     0.56360   0.38610   0.73850   0.01267  Uiso   1.00
C203   C     0.52810   0.34670   0.72780   0.01267  Uiso   1.00
C204   C     0.54940   0.33230   0.75650   0.01267  Uiso   1.00
C205   C     0.68500   0.49910   0.88310   0.01267  Uiso   1.00
C206   C     0.69540   0.50010   0.92450   0.01267  Uiso   1.00
C207   C     0.68473   0.45533   0.91420   0.01267  Uiso   1.00
C208   C     0.79620   0.54630   0.05710   0.01267  Uiso   1.00
C209   C     0.79300   0.51280   0.07260   0.01267  Uiso   1.00
C210   C     0.82390   0.49710   0.07320   0.01267  Uiso   1.00
C211   C     0.80140   0.52660   0.93320   0.01267  Uiso   1.00
C212   C     0.79360   0.48930   0.90110   0.01267  Uiso   1.00
C213   C     0.81700   0.47200   0.92380   0.01267  Uiso   1.00
C214   C     0.93320   0.63857   0.07137   0.01267  Uiso   1.00
C215   C     0.97460   0.64030   0.08710   0.01267  Uiso   1.00
C216   C     0.96490   0.59580   0.07270   0.01267  Uiso   1.00
C217   C     0.57363   0.00033   0.92050   0.01267  Uiso   1.00
C218   C     0.50567   0.00980   0.92587   0.01267  Uiso   1.00
C219   C     0.67487   0.16820   0.87579   0.01267  Uiso   1.00
C220   C     0.64398   0.25138   0.98788   0.01267  Uiso   1.00
C221   C     0.56050   0.06417   0.90407   0.01267  Uiso   1.00
C222   C     0.51435   0.13802   0.82967   0.01267  Uiso   1.00
C223   C     0.35130   0.07690   0.78900   0.01267  Uiso   1.00
C224   C     0.37990   0.10430   0.83520   0.01267  Uiso   1.00
C225   C     0.42377   0.12956   0.84219   0.01267  Uiso   1.00
C226   C     0.35240   0.11390   0.67750   0.01267  Uiso   1.00
C227   C     0.38110   0.15330   0.68140   0.01267  Uiso   1.00
C228   C     0.42420   0.16770   0.71710   0.01267  Uiso   1.00
C229   C     0.38400   0.00090   0.68590   0.01267  Uiso   1.00
C230   C     0.42440   0.99990   0.69530   0.01267  Uiso   1.00
C231   C     0.45887   0.04467   0.72940   0.01267  Uiso   1.00
C232   C     0.51080   0.95370   0.74990   0.01267  Uiso   1.00
C233   C     0.55980   0.98720   0.78020   0.01267  Uiso   1.00
C234   C     0.57610   0.00290   0.82680   0.01267  Uiso   1.00
C235   C     0.40660   0.97340   0.77480   0.01267  Uiso   1.00
C236   C     0.41180   0.01070   0.80430   0.01267  Uiso   1.00
C237   C     0.45180   0.02800   0.84500   0.01267  Uiso   1.00
C238   C     0.43280   0.86143   0.79463   0.01267  Uiso   1.00
C239   C     0.44680   0.85970   0.83430   0.01267  Uiso   1.00
C240   C     0.47690   0.90420   0.86910   0.01267  Uiso   1.00
C241   C     0.57983   0.65313   0.57950   0.01267  Uiso   1.00
C242   C     0.58393   0.57980   0.57413   0.01267  Uiso   1.00
C243   C     0.79241   0.79908   0.62421   0.01267  Uiso   1.00
C244   C     0.76350   0.65610   0.51212   0.01267  Uiso   1.00
C245   C     0.66010   0.65643   0.59593   0.01267  Uiso   1.00
C246   C     0.80835   0.68468   0.67033   0.01267  Uiso   1.00
C247   C     0.78790   0.56230   0.71100   0.01267  Uiso   1.00
C248   C     0.76910   0.54470   0.66480   0.01267  Uiso   1.00
C249   C     0.78737   0.58158   0.65781   0.01267  Uiso   1.00
C250   C     0.93640   0.67490   0.82250   0.01267  Uiso   1.00
C251   C     0.97190   0.69970   0.81860   0.01267  Uiso   1.00
C252   C     0.95060   0.70710   0.78290   0.01267  Uiso   1.00
C253   C     0.81500   0.69810   0.81410   0.01267  Uiso   1.00
C254   C     0.80460   0.72910   0.80470   0.01267  Uiso   1.00
C255   C     0.81527   0.72947   0.77060   0.01267  Uiso   1.00
C256   C     0.70380   0.76090   0.75010   0.01267  Uiso   1.00
C257   C     0.70700   0.77960   0.71980   0.01267  Uiso   1.00
C258   C     0.67610   0.74930   0.67320   0.01267  Uiso   1.00
C259   C     0.69860   0.63180   0.72520   0.01267  Uiso   1.00
C260   C     0.70640   0.60750   0.69570   0.01267  Uiso   1.00
C261   C     0.68300   0.60680   0.65500   0.01267  Uiso   1.00
C262   C     0.56680   0.63817   0.70537   0.01267  Uiso   1.00
C263   C     0.52540   0.61250   0.66570   0.01267  Uiso   1.00
C264   C     0.53510   0.60780   0.63090   0.01267  Uiso   1.00
C265   C     0.92637   0.84687   0.42670   0.01267  Uiso   1.00
C266   C     0.99433   0.92020   0.50413   0.01267  Uiso   1.00
C267   C     0.82513   0.70092   0.49333   0.01267  Uiso   1.00
C268   C     0.85602   0.84390   0.60740   0.01267  Uiso   1.00
C269   C     0.93950   0.84357   0.50367   0.01267  Uiso   1.00
C270   C     0.98565   0.81532   0.62367   0.01267  Uiso   1.00
C271   C     0.14870   0.93770   0.72560   0.01267  Uiso   1.00
C272   C     0.12010   0.95530   0.72440   0.01267  Uiso   1.00
C273   C     0.07623   0.91842   0.70579   0.01267  Uiso   1.00
C274   C     0.14760   0.82510   0.76150   0.01267  Uiso   1.00
C275   C     0.11890   0.80030   0.77220   0.01267  Uiso   1.00
C276   C     0.07580   0.79290   0.74350   0.01267  Uiso   1.00
C277   C     0.11600   0.80190   0.61690   0.01267  Uiso   1.00
C278   C     0.07560   0.77090   0.57550   0.01267  Uiso   1.00
C279   C     0.04113   0.77053   0.58580   0.01267  Uiso   1.00
C280   C     0.98920   0.73910   0.44290   0.01267  Uiso   1.00
C281   C     0.94020   0.72040   0.42740   0.01267  Uiso   1.00
C282   C     0.92390   0.75070   0.42680   0.01267  Uiso   1.00
C283   C     0.09340   0.86820   0.56680   0.01267  Uiso   1.00
C284   C     0.08820   0.89250   0.59890   0.01267  Uiso   1.00
C285   C     0.04820   0.89320   0.57620   0.01267  Uiso   1.00
C286   C     0.06720   0.86183   0.42863   0.01267  Uiso   1.00
C287   C     0.05320   0.88750   0.41290   0.01267  Uiso   1.00
C288   C     0.02310   0.89220   0.42730   0.01267  Uiso   1.00
C289   C     0.42017   0.07330   0.49967   0.01267  Uiso   1.00
C290   C     0.41607   0.99587   0.49020   0.01267  Uiso   1.00
C291   C     0.20759   0.00667   0.33180   0.01267  Uiso   1.00
C292   C     0.23650   0.89260   0.24862   0.01267  Uiso   1.00
C293   C     0.33990   0.99633   0.43583   0.01267  Uiso   1.00
C294   C     0.19165   0.87633   0.36198   0.01267  Uiso   1.00
C295   C     0.21210   0.77440   0.42310   0.01267  Uiso   1.00
C296   C     0.23090   0.77560   0.39570   0.01267  Uiso   1.00
C297   C     0.21263   0.79421   0.37044   0.01267  Uiso   1.00
C298   C     0.06360   0.73850   0.38610   0.01267  Uiso   1.00
C299   C     0.02810   0.72780   0.34670   0.01267  Uiso   1.00
C300   C     0.04940   0.75650   0.33230   0.01267  Uiso   1.00
C301   C     0.18500   0.88310   0.49910   0.01267  Uiso   1.00
C302   C     0.19540   0.92450   0.50010   0.01267  Uiso   1.00
C303   C     0.18473   0.91420   0.45533   0.01267  Uiso   1.00
C304   C     0.29620   0.05710   0.54630   0.01267  Uiso   1.00
C305   C     0.29300   0.07260   0.51280   0.01267  Uiso   1.00
C306   C     0.32390   0.07320   0.49710   0.01267  Uiso   1.00
C307   C     0.30140   0.93320   0.52660   0.01267  Uiso   1.00
C308   C     0.29360   0.90110   0.48930   0.01267  Uiso   1.00
C309   C     0.31700   0.92380   0.47200   0.01267  Uiso   1.00
C310   C     0.43320   0.07137   0.63857   0.01267  Uiso   1.00
C311   C     0.47460   0.08710   0.64030   0.01267  Uiso   1.00
C312   C     0.46490   0.07270   0.59580   0.01267  Uiso   1.00
C313   C     0.07363   0.92050   0.00033   0.01267  Uiso   1.00
C314   C     0.00567   0.92587   0.00980   0.01267  Uiso   1.00
C315   C     0.17487   0.87579   0.16820   0.01267  Uiso   1.00
C316   C     0.14398   0.98788   0.25138   0.01267  Uiso   1.00
C317   C     0.06050   0.90407   0.06417   0.01267  Uiso   1.00
C318   C     0.01435   0.82967   0.13802   0.01267  Uiso   1.00
C319   C     0.85130   0.78900   0.07690   0.01267  Uiso   1.00
C320   C     0.87990   0.83520   0.10430   0.01267  Uiso   1.00
C321   C     0.92377   0.84219   0.12956   0.01267  Uiso   1.00
C322   C     0.85240   0.67750   0.11390   0.01267  Uiso   1.00
C323   C     0.88110   0.68140   0.15330   0.01267  Uiso   1.00
C324   C     0.92420   0.71710   0.16770   0.01267  Uiso   1.00
C325   C     0.88400   0.68590   0.00090   0.01267  Uiso   1.00
C326   C     0.92440   0.69530   0.99990   0.01267  Uiso   1.00
C327   C     0.95887   0.72940   0.04467   0.01267  Uiso   1.00
C328   C     0.01080   0.74990   0.95370   0.01267  Uiso   1.00
C329   C     0.05980   0.78020   0.98720   0.01267  Uiso   1.00
C330   C     0.07610   0.82680   0.00290   0.01267  Uiso   1.00
C331   C     0.90660   0.77480   0.97340   0.01267  Uiso   1.00
C332   C     0.91180   0.80430   0.01070   0.01267  Uiso   1.00
C333   C     0.95180   0.84500   0.02800   0.01267  Uiso   1.00
C334   C     0.93280   0.79463   0.86143   0.01267  Uiso   1.00
C335   C     0.94680   0.83430   0.85970   0.01267  Uiso   1.00
C336   C     0.97690   0.86910   0.90420   0.01267  Uiso   1.00
C337   C     0.07983   0.57950   0.65313   0.01267  Uiso   1.00
C338   C     0.08393   0.57413   0.57980   0.01267  Uiso   1.00
C339   C     0.29241   0.62421   0.79908   0.01267  Uiso   1.00
C340   C     0.26350   0.51212   0.65610   0.01267  Uiso   1.00
C341   C     0.16010   0.59593   0.65643   0.01267  Uiso   1.00
C342   C     0.30835   0.67033   0.68468   0.01267  Uiso   1.00
C343   C     0.28790   0.71100   0.56230   0.01267  Uiso   1.00
C344   C     0.26910   0.66480   0.54470   0.01267  Uiso   1.00
C345   C     0.28737   0.65781   0.58158   0.01267  Uiso   1.00
C346   C     0.43640   0.82250   0.67490   0.01267  Uiso   1.00
C347   C     0.47190   0.81860   0.69970   0.01267  Uiso   1.00
C348   C     0.45060   0.78290   0.70710   0.01267  Uiso   1.00
C349   C     0.31500   0.81410   0.69810   0.01267  Uiso   1.00
C350   C     0.30460   0.80470   0.72910   0.01267  Uiso   1.00
C351   C     0.31527   0.77060   0.72947   0.01267  Uiso   1.00
C352   C     0.20380   0.75010   0.76090   0.01267  Uiso   1.00
C353   C     0.20700   0.71980   0.77960   0.01267  Uiso   1.00
C354   C     0.17610   0.67320   0.74930   0.01267  Uiso   1.00
C355   C     0.19860   0.72520   0.63180   0.01267  Uiso   1.00
C356   C     0.20640   0.69570   0.60750   0.01267  Uiso   1.00
C357   C     0.18300   0.65500   0.60680   0.01267  Uiso   1.00
C358   C     0.06680   0.70537   0.63817   0.01267  Uiso   1.00
C359   C     0.02540   0.66570   0.61250   0.01267  Uiso   1.00
C360   C     0.03510   0.63090   0.60780   0.01267  Uiso   1.00
C361   C     0.42637   0.42670   0.84687   0.01267  Uiso   1.00
C362   C     0.49433   0.50413   0.92020   0.01267  Uiso   1.00
C363   C     0.32513   0.49333   0.70092   0.01267  Uiso   1.00
C364   C     0.35602   0.60740   0.84390   0.01267  Uiso   1.00
C365   C     0.43950   0.50367   0.84357   0.01267  Uiso   1.00
C366   C     0.48565   0.62367   0.81532   0.01267  Uiso   1.00
C367   C     0.64870   0.72560   0.93770   0.01267  Uiso   1.00
C368   C     0.62010   0.72440   0.95530   0.01267  Uiso   1.00
C369   C     0.57623   0.70579   0.91842   0.01267  Uiso   1.00
C370   C     0.64760   0.76150   0.82510   0.01267  Uiso   1.00
C371   C     0.61890   0.77220   0.80030   0.01267  Uiso   1.00
C372   C     0.57580   0.74350   0.79290   0.01267  Uiso   1.00
C373   C     0.61600   0.61690   0.80190   0.01267  Uiso   1.00
C374   C     0.57560   0.57550   0.77090   0.01267  Uiso   1.00
C375   C     0.54113   0.58580   0.77053   0.01267  Uiso   1.00
C376   C     0.48920   0.44290   0.73910   0.01267  Uiso   1.00
C377   C     0.44020   0.42740   0.72040   0.01267  Uiso   1.00
C378   C     0.42390   0.42680   0.75070   0.01267  Uiso   1.00
C379   C     0.59340   0.56680   0.86820   0.01267  Uiso   1.00
C380   C     0.58820   0.59890   0.89250   0.01267  Uiso   1.00
C381   C     0.54820   0.57620   0.89320   0.01267  Uiso   1.00
C382   C     0.56720   0.42863   0.86183   0.01267  Uiso   1.00
C383   C     0.55320   0.41290   0.88750   0.01267  Uiso   1.00
C384   C     0.52310   0.42730   0.89220   0.01267  Uiso   1.00
C385   C     0.92050   0.50033   0.57363   0.01267  Uiso   1.00
C386   C     0.92587   0.50980   0.50567   0.01267  Uiso   1.00
C387   C     0.87579   0.66820   0.67487   0.01267  Uiso   1.00
C388   C     0.98788   0.75138   0.64398   0.01267  Uiso   1.00
C389   C     0.90407   0.56417   0.56050   0.01267  Uiso   1.00
C390   C     0.82967   0.63802   0.51435   0.01267  Uiso   1.00
C391   C     0.78900   0.57690   0.35130   0.01267  Uiso   1.00
C392   C     0.83520   0.60430   0.37990   0.01267  Uiso   1.00
C393   C     0.84219   0.62956   0.42377   0.01267  Uiso   1.00
C394   C     0.67750   0.61390   0.35240   0.01267  Uiso   1.00
C395   C     0.68140   0.65330   0.38110   0.01267  Uiso   1.00
C396   C     0.71710   0.66770   0.42420   0.01267  Uiso   1.00
C397   C     0.68590   0.50090   0.38400   0.01267  Uiso   1.00
C398   C     0.69530   0.49990   0.42440   0.01267  Uiso   1.00
C399   C     0.72940   0.54467   0.45887   0.01267  Uiso   1.00
C400   C     0.74990   0.45370   0.51080   0.01267  Uiso   1.00
C401   C     0.78020   0.48720   0.55980   0.01267  Uiso   1.00
C402   C     0.82680   0.50290   0.57610   0.01267  Uiso   1.00
C403   C     0.77480   0.47340   0.40660   0.01267  Uiso   1.00
C404   C     0.80430   0.51070   0.41180   0.01267  Uiso   1.00
C405   C     0.84500   0.52800   0.45180   0.01267  Uiso   1.00
C406   C     0.79463   0.36143   0.43280   0.01267  Uiso   1.00
C407   C     0.83430   0.35970   0.44680   0.01267  Uiso   1.00
C408   C     0.86910   0.40420   0.47690   0.01267  Uiso   1.00
C409   C     0.07330   0.99967   0.92017   0.01267  Uiso   1.00
C410   C     0.99587   0.99020   0.91607   0.01267  Uiso   1.00
C411   C     0.00667   0.83180   0.70759   0.01267  Uiso   1.00
C412   C     0.89260   0.74862   0.73650   0.01267  Uiso   1.00
C413   C     0.99633   0.93583   0.83990   0.01267  Uiso   1.00
C414   C     0.87633   0.86198   0.69165   0.01267  Uiso   1.00
C415   C     0.77440   0.92310   0.71210   0.01267  Uiso   1.00
C416   C     0.77560   0.89570   0.73090   0.01267  Uiso   1.00
C417   C     0.79421   0.87044   0.71263   0.01267  Uiso   1.00
C418   C     0.73850   0.88610   0.56360   0.01267  Uiso   1.00
C419   C     0.72780   0.84670   0.52810   0.01267  Uiso   1.00
C420   C     0.75650   0.83230   0.54940   0.01267  Uiso   1.00
C421   C     0.88310   0.99910   0.68500   0.01267  Uiso   1.00
C422   C     0.92450   0.00010   0.69540   0.01267  Uiso   1.00
C423   C     0.91420   0.95533   0.68473   0.01267  Uiso   1.00
C424   C     0.05710   0.04630   0.79620   0.01267  Uiso   1.00
C425   C     0.07260   0.01280   0.79300   0.01267  Uiso   1.00
C426   C     0.07320   0.99710   0.82390   0.01267  Uiso   1.00
C427   C     0.93320   0.02660   0.80140   0.01267  Uiso   1.00
C428   C     0.90110   0.98930   0.79360   0.01267  Uiso   1.00
C429   C     0.92380   0.97200   0.81700   0.01267  Uiso   1.00
C430   C     0.07137   0.13857   0.93320   0.01267  Uiso   1.00
C431   C     0.08710   0.14030   0.97460   0.01267  Uiso   1.00
C432   C     0.07270   0.09580   0.96490   0.01267  Uiso   1.00
C433   C     0.42670   0.34687   0.92637   0.01267  Uiso   1.00
C434   C     0.50413   0.42020   0.99433   0.01267  Uiso   1.00
C435   C     0.49333   0.20092   0.82513   0.01267  Uiso   1.00
C436   C     0.60740   0.34390   0.85602   0.01267  Uiso   1.00
C437   C     0.50367   0.34357   0.93950   0.01267  Uiso   1.00
C438   C     0.62367   0.31532   0.98565   0.01267  Uiso   1.00
C439   C     0.72560   0.43770   0.14870   0.01267  Uiso   1.00
C440   C     0.72440   0.45530   0.12010   0.01267  Uiso   1.00
C441   C     0.70579   0.41842   0.07623   0.01267  Uiso   1.00
C442   C     0.76150   0.32510   0.14760   0.01267  Uiso   1.00
C443   C     0.77220   0.30030   0.11890   0.01267  Uiso   1.00
C444   C     0.74350   0.29290   0.07580   0.01267  Uiso   1.00
C445   C     0.61690   0.30190   0.11600   0.01267  Uiso   1.00
C446   C     0.57550   0.27090   0.07560   0.01267  Uiso   1.00
C447   C     0.58580   0.27053   0.04113   0.01267  Uiso   1.00
C448   C     0.44290   0.23910   0.98920   0.01267  Uiso   1.00
C449   C     0.42740   0.22040   0.94020   0.01267  Uiso   1.00
C450   C     0.42680   0.25070   0.92390   0.01267  Uiso   1.00
C451   C     0.56680   0.36820   0.09340   0.01267  Uiso   1.00
C452   C     0.59890   0.39250   0.08820   0.01267  Uiso   1.00
C453   C     0.57620   0.39320   0.04820   0.01267  Uiso   1.00
C454   C     0.42863   0.36183   0.06720   0.01267  Uiso   1.00
C455   C     0.41290   0.38750   0.05320   0.01267  Uiso   1.00
C456   C     0.42730   0.39220   0.02310   0.01267  Uiso   1.00
C457   C     0.57950   0.15313   0.57983   0.01267  Uiso   1.00
C458   C     0.57413   0.07980   0.58393   0.01267  Uiso   1.00
C459   C     0.62421   0.29908   0.79241   0.01267  Uiso   1.00
C460   C     0.51212   0.15610   0.76350   0.01267  Uiso   1.00
C461   C     0.59593   0.15643   0.66010   0.01267  Uiso   1.00
C462   C     0.67033   0.18468   0.80835   0.01267  Uiso   1.00
C463   C     0.71100   0.06230   0.78790   0.01267  Uiso   1.00
C464   C     0.66480   0.04470   0.76910   0.01267  Uiso   1.00
C465   C     0.65781   0.08158   0.78737   0.01267  Uiso   1.00
C466   C     0.82250   0.17490   0.93640   0.01267  Uiso   1.00
C467   C     0.81860   0.19970   0.97190   0.01267  Uiso   1.00
C468   C     0.78290   0.20710   0.95060   0.01267  Uiso   1.00
C469   C     0.81410   0.19810   0.81500   0.01267  Uiso   1.00
C470   C     0.80470   0.22910   0.80460   0.01267  Uiso   1.00
C471   C     0.77060   0.22947   0.81527   0.01267  Uiso   1.00
C472   C     0.75010   0.26090   0.70380   0.01267  Uiso   1.00
C473   C     0.71980   0.27960   0.70700   0.01267  Uiso   1.00
C474   C     0.67320   0.24930   0.67610   0.01267  Uiso   1.00
C475   C     0.72520   0.13180   0.69860   0.01267  Uiso   1.00
C476   C     0.69570   0.10750   0.70640   0.01267  Uiso   1.00
C477   C     0.65500   0.10680   0.68300   0.01267  Uiso   1.00
C478   C     0.70537   0.13817   0.56680   0.01267  Uiso   1.00
C479   C     0.66570   0.11250   0.52540   0.01267  Uiso   1.00
C480   C     0.63090   0.10780   0.53510   0.01267  Uiso   1.00
C481   C     0.34687   0.42637   0.92670   0.01267  Uiso   1.00
C482   C     0.42020   0.49433   0.00413   0.01267  Uiso   1.00
C483   C     0.20092   0.32513   0.99333   0.01267  Uiso   1.00
C484   C     0.34390   0.35602   0.10740   0.01267  Uiso   1.00
C485   C     0.34357   0.43950   0.00367   0.01267  Uiso   1.00
C486   C     0.31532   0.48565   0.12367   0.01267  Uiso   1.00
C487   C     0.43770   0.64870   0.22560   0.01267  Uiso   1.00
C488   C     0.45530   0.62010   0.22440   0.01267  Uiso   1.00
C489   C     0.41842   0.57623   0.20579   0.01267  Uiso   1.00
C490   C     0.32510   0.64760   0.26150   0.01267  Uiso   1.00
C491   C     0.30030   0.61890   0.27220   0.01267  Uiso   1.00
C492   C     0.29290   0.57580   0.24350   0.01267  Uiso   1.00
C493   C     0.30190   0.61600   0.11690   0.01267  Uiso   1.00
C494   C     0.27090   0.57560   0.07550   0.01267  Uiso   1.00
C495   C     0.27053   0.54113   0.08580   0.01267  Uiso   1.00
C496   C     0.23910   0.48920   0.94290   0.01267  Uiso   1.00
C497   C     0.22040   0.44020   0.92740   0.01267  Uiso   1.00
C498   C     0.25070   0.42390   0.92680   0.01267  Uiso   1.00
C499   C     0.36820   0.59340   0.06680   0.01267  Uiso   1.00
C500   C     0.39250   0.58820   0.09890   0.01267  Uiso   1.00
C501   C     0.39320   0.54820   0.07620   0.01267  Uiso   1.00
C502   C     0.36183   0.56720   0.92863   0.01267  Uiso   1.00
C503   C     0.38750   0.55320   0.91290   0.01267  Uiso   1.00
C504   C     0.39220   0.52310   0.92730   0.01267  Uiso   1.00
C505   C     0.15313   0.07983   0.07950   0.01267  Uiso   1.00
C506   C     0.07980   0.08393   0.07413   0.01267  Uiso   1.00
C507   C     0.29908   0.29241   0.12421   0.01267  Uiso   1.00
C508   C     0.15610   0.26350   0.01212   0.01267  Uiso   1.00
C509   C     0.15643   0.16010   0.09593   0.01267  Uiso   1.00
C510   C     0.18468   0.30835   0.17033   0.01267  Uiso   1.00
C511   C     0.06230   0.28790   0.21100   0.01267  Uiso   1.00
C512   C     0.04470   0.26910   0.16480   0.01267  Uiso   1.00
C513   C     0.08158   0.28737   0.15781   0.01267  Uiso   1.00
C514   C     0.17490   0.43640   0.32250   0.01267  Uiso   1.00
C515   C     0.19970   0.47190   0.31860   0.01267  Uiso   1.00
C516   C     0.20710   0.45060   0.28290   0.01267  Uiso   1.00
C517   C     0.19810   0.31500   0.31410   0.01267  Uiso   1.00
C518   C     0.22910   0.30460   0.30470   0.01267  Uiso   1.00
C519   C     0.22947   0.31527   0.27060   0.01267  Uiso   1.00
C520   C     0.26090   0.20380   0.25010   0.01267  Uiso   1.00
C521   C     0.27960   0.20700   0.21980   0.01267  Uiso   1.00
C522   C     0.24930   0.17610   0.17320   0.01267  Uiso   1.00
C523   C     0.13180   0.19860   0.22520   0.01267  Uiso   1.00
C524   C     0.10750   0.20640   0.19570   0.01267  Uiso   1.00
C525   C     0.10680   0.18300   0.15500   0.01267  Uiso   1.00
C526   C     0.13817   0.06680   0.20537   0.01267  Uiso   1.00
C527   C     0.11250   0.02540   0.16570   0.01267  Uiso   1.00
C528   C     0.10780   0.03510   0.13090   0.01267  Uiso   1.00
C529   C     0.50033   0.07363   0.42050   0.01267  Uiso   1.00
C530   C     0.50980   0.00567   0.42587   0.01267  Uiso   1.00
C531   C     0.66820   0.17487   0.37579   0.01267  Uiso   1.00
C532   C     0.75138   0.14398   0.48788   0.01267  Uiso   1.00
C533   C     0.56417   0.06050   0.40407   0.01267  Uiso   1.00
C534   C     0.63802   0.01435   0.32967   0.01267  Uiso   1.00
C535   C     0.57690   0.85130   0.28900   0.01267  Uiso   1.00
C536   C     0.60430   0.87990   0.33520   0.01267  Uiso   1.00
C537   C     0.62956   0.92377   0.34219   0.01267  Uiso   1.00
C538   C     0.61390   0.85240   0.17750   0.01267  Uiso   1.00
C539   C     0.65330   0.88110   0.18140   0.01267  Uiso   1.00
C540   C     0.66770   0.92420   0.21710   0.01267  Uiso   1.00
C541   C     0.50090   0.88400   0.18590   0.01267  Uiso   1.00
C542   C     0.49990   0.92440   0.19530   0.01267  Uiso   1.00
C543   C     0.54467   0.95887   0.22940   0.01267  Uiso   1.00
C544   C     0.45370   0.01080   0.24990   0.01267  Uiso   1.00
C545   C     0.48720   0.05980   0.28020   0.01267  Uiso   1.00
C546   C     0.50290   0.07610   0.32680   0.01267  Uiso   1.00
C547   C     0.47340   0.90660   0.27480   0.01267  Uiso   1.00
C548   C     0.51070   0.91180   0.30430   0.01267  Uiso   1.00
C549   C     0.52800   0.95180   0.34500   0.01267  Uiso   1.00
C550   C     0.36143   0.93280   0.29463   0.01267  Uiso   1.00
C551   C     0.35970   0.94680   0.33430   0.01267  Uiso   1.00
C552   C     0.40420   0.97690   0.36910   0.01267  Uiso   1.00
C553   C     0.99967   0.42017   0.57330   0.01267  Uiso   1.00
C554   C     0.99020   0.41607   0.49587   0.01267  Uiso   1.00
C555   C     0.83180   0.20759   0.50667   0.01267  Uiso   1.00
C556   C     0.74862   0.23650   0.39260   0.01267  Uiso   1.00
C557   C     0.93583   0.33990   0.49633   0.01267  Uiso   1.00
C558   C     0.86198   0.19165   0.37633   0.01267  Uiso   1.00
C559   C     0.92310   0.21210   0.27440   0.01267  Uiso   1.00
C560   C     0.89570   0.23090   0.27560   0.01267  Uiso   1.00
C561   C     0.87044   0.21263   0.29421   0.01267  Uiso   1.00
C562   C     0.88610   0.06360   0.23850   0.01267  Uiso   1.00
C563   C     0.84670   0.02810   0.22780   0.01267  Uiso   1.00
C564   C     0.83230   0.04940   0.25650   0.01267  Uiso   1.00
C565   C     0.99910   0.18500   0.38310   0.01267  Uiso   1.00
C566   C     0.00010   0.19540   0.42450   0.01267  Uiso   1.00
C567   C     0.95533   0.18473   0.41420   0.01267  Uiso   1.00
C568   C     0.04630   0.29620   0.55710   0.01267  Uiso   1.00
C569   C     0.01280   0.29300   0.57260   0.01267  Uiso   1.00
C570   C     0.99710   0.32390   0.57320   0.01267  Uiso   1.00
C571   C     0.02660   0.30140   0.43320   0.01267  Uiso   1.00
C572   C     0.98930   0.29360   0.40110   0.01267  Uiso   1.00
C573   C     0.97200   0.31700   0.42380   0.01267  Uiso   1.00
C574   C     0.13857   0.43320   0.57137   0.01267  Uiso   1.00
C575   C     0.14030   0.47460   0.58710   0.01267  Uiso   1.00
C576   C     0.09580   0.46490   0.57270   0.01267  Uiso   1.00
N1     N     0.44665   0.60420   0.50025   0.01267  Uiso   1.00
N2     N     0.45378   0.49566   0.51200   0.01267  Uiso   1.00
N3     N     0.38657   0.64774   0.65851   0.01267  Uiso   1.00
N4     N     0.46064   0.62790   0.71430   0.01267  Uiso   1.00
N5     N     0.41546   0.58237   0.60127   0.01267  Uiso   1.00
N6     N     0.35849   0.54450   0.64227   0.01267  Uiso   1.00
N7     N     0.26876   0.37586   0.58564   0.01267  Uiso   1.00
N8     N     0.30167   0.42138   0.61905   0.01267  Uiso   1.00
N9     N     0.20785   0.37675   0.60454   0.01267  Uiso   1.00
N10    N     0.23300   0.42196   0.63922   0.01267  Uiso   1.00
N11    N     0.21262   0.39432   0.54356   0.01267  Uiso   1.00
N12    N     0.23920   0.44067   0.57091   0.01267  Uiso   1.00
N13    N     0.28448   0.50223   0.45479   0.01267  Uiso   1.00
N14    N     0.32947   0.53731   0.48608   0.01267  Uiso   1.00
N15    N     0.29367   0.44041   0.46584   0.01267  Uiso   1.00
N16    N     0.33833   0.46890   0.50033   0.01267  Uiso   1.00
N17    N     0.30544   0.45501   0.40533   0.01267  Uiso   1.00
N18    N     0.35147   0.48304   0.43283   0.01267  Uiso   1.00
N19    N     0.60395   0.94640   0.99975   0.01267  Uiso   1.00
N20    N     0.48366   0.94178   0.98800   0.01267  Uiso   1.00
N21    N     0.48923   0.72806   0.84149   0.01267  Uiso   1.00
N22    N     0.41360   0.74634   0.78570   0.01267  Uiso   1.00
N23    N     0.48110   0.81419   0.89873   0.01267  Uiso   1.00
N24    N     0.40223   0.71622   0.85773   0.01267  Uiso   1.00
N25    N     0.29022   0.68312   0.91436   0.01267  Uiso   1.00
N26    N     0.30233   0.68262   0.88095   0.01267  Uiso   1.00
N27    N     0.27221   0.60331   0.89546   0.01267  Uiso   1.00
N28    N     0.28274   0.59378   0.86078   0.01267  Uiso   1.00
N29    N     0.35076   0.66906   0.95644   0.01267  Uiso   1.00
N30    N     0.36976   0.66829   0.92909   0.01267  Uiso   1.00
N31    N     0.54744   0.82969   0.04521   0.01267  Uiso   1.00
N32    N     0.55123   0.84339   0.01392   0.01267  Uiso   1.00
N33    N     0.47457   0.82783   0.03416   0.01267  Uiso   1.00
N34    N     0.46857   0.83800   0.99967   0.01267  Uiso   1.00
N35    N     0.54968   0.90011   0.09467   0.01267  Uiso   1.00
N36    N     0.55021   0.91864   0.06717   0.01267  Uiso   1.00
N37    N     0.89605   0.89580   0.34245   0.01267  Uiso   1.00
N38    N     0.01634   0.00434   0.45812   0.01267  Uiso   1.00
N39    N     0.01077   0.85226   0.23883   0.01267  Uiso   1.00
N40    N     0.08640   0.87210   0.33274   0.01267  Uiso   1.00
N41    N     0.01890   0.91763   0.33309   0.01267  Uiso   1.00
N42    N     0.09777   0.95550   0.31399   0.01267  Uiso   1.00
N43    N     0.20978   0.12414   0.39290   0.01267  Uiso   1.00
N44    N     0.19767   0.07862   0.38029   0.01267  Uiso   1.00
N45    N     0.22779   0.12325   0.33110   0.01267  Uiso   1.00
N46    N     0.21726   0.07804   0.31104   0.01267  Uiso   1.00
N47    N     0.14924   0.10568   0.31830   0.01267  Uiso   1.00
N48    N     0.13024   0.05933   0.29853   0.01267  Uiso   1.00
N49    N     0.95256   0.99777   0.28225   0.01267  Uiso   1.00
N50    N     0.94877   0.96269   0.29216   0.01267  Uiso   1.00
N51    N     0.02543   0.05959   0.35326   0.01267  Uiso   1.00
N52    N     0.03143   0.03110   0.36943   0.01267  Uiso   1.00
N53    N     0.95032   0.04499   0.35043   0.01267  Uiso   1.00
N54    N     0.94979   0.01696   0.36843   0.01267  Uiso   1.00
N55    N     0.05335   0.55360   0.15755   0.01267  Uiso   1.00
N56    N     0.04622   0.55822   0.04188   0.01267  Uiso   1.00
N57    N     0.11343   0.77194   0.26117   0.01267  Uiso   1.00
N58    N     0.03936   0.75366   0.16726   0.01267  Uiso   1.00
N59    N     0.08454   0.68581   0.16691   0.01267  Uiso   1.00
N60    N     0.14151   0.78378   0.18601   0.01267  Uiso   1.00
N61    N     0.23124   0.81688   0.10710   0.01267  Uiso   1.00
N62    N     0.19833   0.81738   0.11971   0.01267  Uiso   1.00
N63    N     0.29215   0.89669   0.16890   0.01267  Uiso   1.00
N64    N     0.26700   0.90622   0.18896   0.01267  Uiso   1.00
N65    N     0.28738   0.83094   0.18170   0.01267  Uiso   1.00
N66    N     0.26080   0.83171   0.20147   0.01267  Uiso   1.00
N67    N     0.21552   0.67031   0.21775   0.01267  Uiso   1.00
N68    N     0.17053   0.65661   0.20784   0.01267  Uiso   1.00
N69    N     0.20633   0.67217   0.14674   0.01267  Uiso   1.00
N70    N     0.16167   0.66200   0.13057   0.01267  Uiso   1.00
N71    N     0.19456   0.59989   0.14957   0.01267  Uiso   1.00
N72    N     0.14853   0.58136   0.13157   0.01267  Uiso   1.00
N73    N     0.84245   0.89605   0.39580   0.01267  Uiso   1.00
N74    N     0.95812   0.01634   0.50434   0.01267  Uiso   1.00
N75    N     0.73883   0.01077   0.35226   0.01267  Uiso   1.00
N76    N     0.83274   0.08640   0.37210   0.01267  Uiso   1.00
N77    N     0.83309   0.01890   0.41763   0.01267  Uiso   1.00
N78    N     0.81399   0.09777   0.45550   0.01267  Uiso   1.00
N79    N     0.89290   0.20978   0.62414   0.01267  Uiso   1.00
N80    N     0.88029   0.19767   0.57862   0.01267  Uiso   1.00
N81    N     0.83110   0.22779   0.62325   0.01267  Uiso   1.00
N82    N     0.81104   0.21726   0.57804   0.01267  Uiso   1.00
N83    N     0.81830   0.14924   0.60568   0.01267  Uiso   1.00
N84    N     0.79853   0.13024   0.55933   0.01267  Uiso   1.00
N85    N     0.78225   0.95256   0.49777   0.01267  Uiso   1.00
N86    N     0.79216   0.94877   0.46269   0.01267  Uiso   1.00
N87    N     0.85326   0.02543   0.55959   0.01267  Uiso   1.00
N88    N     0.86943   0.03143   0.53110   0.01267  Uiso   1.00
N89    N     0.85043   0.95032   0.54499   0.01267  Uiso   1.00
N90    N     0.86843   0.94979   0.51696   0.01267  Uiso   1.00
N91    N     0.65755   0.05335   0.05360   0.01267  Uiso   1.00
N92    N     0.54188   0.04622   0.05822   0.01267  Uiso   1.00
N93    N     0.76117   0.11343   0.27194   0.01267  Uiso   1.00
N94    N     0.66726   0.03936   0.25366   0.01267  Uiso   1.00
N95    N     0.66691   0.08454   0.18581   0.01267  Uiso   1.00
N96    N     0.68601   0.14151   0.28378   0.01267  Uiso   1.00
N97    N     0.60710   0.23124   0.31688   0.01267  Uiso   1.00
N98    N     0.61971   0.19833   0.31738   0.01267  Uiso   1.00
N99    N     0.66890   0.29215   0.39669   0.01267  Uiso   1.00
N100   N     0.68896   0.26700   0.40622   0.01267  Uiso   1.00
N101   N     0.68170   0.28738   0.33094   0.01267  Uiso   1.00
N102   N     0.70147   0.26080   0.33171   0.01267  Uiso   1.00
N103   N     0.71775   0.21552   0.17031   0.01267  Uiso   1.00
N104   N     0.70784   0.17053   0.15661   0.01267  Uiso   1.00
N105   N     0.64674   0.20633   0.17217   0.01267  Uiso   1.00
N106   N     0.63057   0.16167   0.16200   0.01267  Uiso   1.00
N107   N     0.64957   0.19456   0.09989   0.01267  Uiso   1.00
N108   N     0.63157   0.14853   0.08136   0.01267  Uiso   1.00
N109   N     0.00025   0.44665   0.10420   0.01267  Uiso   1.00
N110   N     0.01200   0.45378   0.99566   0.01267  Uiso   1.00
N111   N     0.15851   0.38657   0.14774   0.01267  Uiso   1.00
N112   N     0.21430   0.46064   0.12790   0.01267  Uiso   1.00
N113   N     0.10127   0.41546   0.08237   0.01267  Uiso   1.00
N114   N     0.14227   0.35849   0.04450   0.01267  Uiso   1.00
N115   N     0.08564   0.26876   0.87586   0.01267  Uiso   1.00
N116   N     0.11905   0.30167   0.92138   0.01267  Uiso   1.00
N117   N     0.10454   0.20785   0.87675   0.01267  Uiso   1.00
N118   N     0.13922   0.23300   0.92196   0.01267  Uiso   1.00
N119   N     0.04356   0.21262   0.89432   0.01267  Uiso   1.00
N120   N     0.07091   0.23920   0.94067   0.01267  Uiso   1.00
N121   N     0.95479   0.28448   0.00223   0.01267  Uiso   1.00
N122   N     0.98608   0.32947   0.03731   0.01267  Uiso   1.00
N123   N     0.96584   0.29367   0.94041   0.01267  Uiso   1.00
N124   N     0.00033   0.33833   0.96890   0.01267  Uiso   1.00
N125   N     0.90533   0.30544   0.95501   0.01267  Uiso   1.00
N126   N     0.93283   0.35147   0.98304   0.01267  Uiso   1.00
N127   N     0.49975   0.60395   0.44640   0.01267  Uiso   1.00
N128   N     0.48800   0.48366   0.44178   0.01267  Uiso   1.00
N129   N     0.34149   0.48923   0.22806   0.01267  Uiso   1.00
N130   N     0.28570   0.41360   0.24634   0.01267  Uiso   1.00
N131   N     0.39873   0.48110   0.31419   0.01267  Uiso   1.00
N132   N     0.35773   0.40223   0.21622   0.01267  Uiso   1.00
N133   N     0.41436   0.29022   0.18312   0.01267  Uiso   1.00
N134   N     0.38095   0.30233   0.18262   0.01267  Uiso   1.00
N135   N     0.39546   0.27221   0.10331   0.01267  Uiso   1.00
N136   N     0.36078   0.28274   0.09378   0.01267  Uiso   1.00
N137   N     0.45644   0.35076   0.16906   0.01267  Uiso   1.00
N138   N     0.42909   0.36976   0.16829   0.01267  Uiso   1.00
N139   N     0.54521   0.54744   0.32969   0.01267  Uiso   1.00
N140   N     0.51392   0.55123   0.34339   0.01267  Uiso   1.00
N141   N     0.53416   0.47457   0.32783   0.01267  Uiso   1.00
N142   N     0.49967   0.46857   0.33800   0.01267  Uiso   1.00
N143   N     0.59467   0.54968   0.40011   0.01267  Uiso   1.00
N144   N     0.56717   0.55021   0.41864   0.01267  Uiso   1.00
N145   N     0.94640   0.49975   0.10395   0.01267  Uiso   1.00
N146   N     0.94178   0.48800   0.98366   0.01267  Uiso   1.00
N147   N     0.72806   0.34149   0.98923   0.01267  Uiso   1.00
N148   N     0.74634   0.28570   0.91360   0.01267  Uiso   1.00
N149   N     0.81419   0.39873   0.98110   0.01267  Uiso   1.00
N150   N     0.71622   0.35773   0.90223   0.01267  Uiso   1.00
N151   N     0.68312   0.41436   0.79022   0.01267  Uiso   1.00
N152   N     0.68262   0.38095   0.80233   0.01267  Uiso   1.00
N153   N     0.60331   0.39546   0.77221   0.01267  Uiso   1.00
N154   N     0.59378   0.36078   0.78274   0.01267  Uiso   1.00
N155   N     0.66906   0.45644   0.85076   0.01267  Uiso   1.00
N156   N     0.66829   0.42909   0.86976   0.01267  Uiso   1.00
N157   N     0.82969   0.54521   0.04744   0.01267  Uiso   1.00
N158   N     0.84339   0.51392   0.05123   0.01267  Uiso   1.00
N159   N     0.82783   0.53416   0.97457   0.01267  Uiso   1.00
N160   N     0.83800   0.49967   0.96857   0.01267  Uiso   1.00
N161   N     0.90011   0.59467   0.04968   0.01267  Uiso   1.00
N162   N     0.91864   0.56717   0.05021   0.01267  Uiso   1.00
N163   N     0.60420   0.00025   0.94665   0.01267  Uiso   1.00
N164   N     0.49566   0.01200   0.95378   0.01267  Uiso   1.00
N165   N     0.64774   0.15851   0.88657   0.01267  Uiso   1.00
N166   N     0.62790   0.21430   0.96064   0.01267  Uiso   1.00
N167   N     0.58237   0.10127   0.91546   0.01267  Uiso   1.00
N168   N     0.54450   0.14227   0.85849   0.01267  Uiso   1.00
N169   N     0.37586   0.08564   0.76876   0.01267  Uiso   1.00
N170   N     0.42138   0.11905   0.80167   0.01267  Uiso   1.00
N171   N     0.37675   0.10454   0.70785   0.01267  Uiso   1.00
N172   N     0.42196   0.13922   0.73300   0.01267  Uiso   1.00
N173   N     0.39432   0.04356   0.71262   0.01267  Uiso   1.00
N174   N     0.44067   0.07091   0.73920   0.01267  Uiso   1.00
N175   N     0.50223   0.95479   0.78448   0.01267  Uiso   1.00
N176   N     0.53731   0.98608   0.82947   0.01267  Uiso   1.00
N177   N     0.44041   0.96584   0.79367   0.01267  Uiso   1.00
N178   N     0.46890   0.00033   0.83833   0.01267  Uiso   1.00
N179   N     0.45501   0.90533   0.80544   0.01267  Uiso   1.00
N180   N     0.48304   0.93283   0.85147   0.01267  Uiso   1.00
N181   N     0.55360   0.65755   0.55335   0.01267  Uiso   1.00
N182   N     0.55822   0.54188   0.54622   0.01267  Uiso   1.00
N183   N     0.77194   0.76117   0.61343   0.01267  Uiso   1.00
N184   N     0.75366   0.66726   0.53936   0.01267  Uiso   1.00
N185   N     0.68581   0.66691   0.58454   0.01267  Uiso   1.00
N186   N     0.78378   0.68601   0.64151   0.01267  Uiso   1.00
N187   N     0.81688   0.60710   0.73124   0.01267  Uiso   1.00
N188   N     0.81738   0.61971   0.69833   0.01267  Uiso   1.00
N189   N     0.89669   0.66890   0.79215   0.01267  Uiso   1.00
N190   N     0.90622   0.68896   0.76700   0.01267  Uiso   1.00
N191   N     0.83094   0.68170   0.78738   0.01267  Uiso   1.00
N192   N     0.83171   0.70147   0.76080   0.01267  Uiso   1.00
N193   N     0.67031   0.71775   0.71552   0.01267  Uiso   1.00
N194   N     0.65661   0.70784   0.67053   0.01267  Uiso   1.00
N195   N     0.67217   0.64674   0.70633   0.01267  Uiso   1.00
N196   N     0.66200   0.63057   0.66167   0.01267  Uiso   1.00
N197   N     0.59989   0.64957   0.69456   0.01267  Uiso   1.00
N198   N     0.58136   0.63157   0.64853   0.01267  Uiso   1.00
N199   N     0.89580   0.84245   0.39605   0.01267  Uiso   1.00
N200   N     0.00434   0.95812   0.51634   0.01267  Uiso   1.00
N201   N     0.85226   0.73883   0.51077   0.01267  Uiso   1.00
N202   N     0.87210   0.83274   0.58640   0.01267  Uiso   1.00
N203   N     0.91763   0.83309   0.51890   0.01267  Uiso   1.00
N204   N     0.95550   0.81399   0.59777   0.01267  Uiso   1.00
N205   N     0.12414   0.89290   0.70978   0.01267  Uiso   1.00
N206   N     0.07862   0.88029   0.69767   0.01267  Uiso   1.00
N207   N     0.12325   0.83110   0.72779   0.01267  Uiso   1.00
N208   N     0.07804   0.81104   0.71726   0.01267  Uiso   1.00
N209   N     0.10568   0.81830   0.64924   0.01267  Uiso   1.00
N210   N     0.05933   0.79853   0.63024   0.01267  Uiso   1.00
N211   N     0.99777   0.78225   0.45256   0.01267  Uiso   1.00
N212   N     0.96269   0.79216   0.44877   0.01267  Uiso   1.00
N213   N     0.05959   0.85326   0.52543   0.01267  Uiso   1.00
N214   N     0.03110   0.86943   0.53143   0.01267  Uiso   1.00
N215   N     0.04499   0.85043   0.45032   0.01267  Uiso   1.00
N216   N     0.01696   0.86843   0.44979   0.01267  Uiso   1.00
N217   N     0.44640   0.10395   0.49975   0.01267  Uiso   1.00
N218   N     0.44178   0.98366   0.48800   0.01267  Uiso   1.00
N219   N     0.22806   0.98923   0.34149   0.01267  Uiso   1.00
N220   N     0.24634   0.91360   0.28570   0.01267  Uiso   1.00
N221   N     0.31419   0.98110   0.39873   0.01267  Uiso   1.00
N222   N     0.21622   0.90223   0.35773   0.01267  Uiso   1.00
N223   N     0.18312   0.79022   0.41436   0.01267  Uiso   1.00
N224   N     0.18262   0.80233   0.38095   0.01267  Uiso   1.00
N225   N     0.10331   0.77221   0.39546   0.01267  Uiso   1.00
N226   N     0.09378   0.78274   0.36078   0.01267  Uiso   1.00
N227   N     0.16906   0.85076   0.45644   0.01267  Uiso   1.00
N228   N     0.16829   0.86976   0.42909   0.01267  Uiso   1.00
N229   N     0.32969   0.04744   0.54521   0.01267  Uiso   1.00
N230   N     0.34339   0.05123   0.51392   0.01267  Uiso   1.00
N231   N     0.32783   0.97457   0.53416   0.01267  Uiso   1.00
N232   N     0.33800   0.96857   0.49967   0.01267  Uiso   1.00
N233   N     0.40011   0.04968   0.59467   0.01267  Uiso   1.00
N234   N     0.41864   0.05021   0.56717   0.01267  Uiso   1.00
N235   N     0.10420   0.94665   0.00025   0.01267  Uiso   1.00
N236   N     0.99566   0.95378   0.01200   0.01267  Uiso   1.00
N237   N     0.14774   0.88657   0.15851   0.01267  Uiso   1.00
N238   N     0.12790   0.96064   0.21430   0.01267  Uiso   1.00
N239   N     0.08237   0.91546   0.10127   0.01267  Uiso   1.00
N240   N     0.04450   0.85849   0.14227   0.01267  Uiso   1.00
N241   N     0.87586   0.76876   0.08564   0.01267  Uiso   1.00
N242   N     0.92138   0.80167   0.11905   0.01267  Uiso   1.00
N243   N     0.87675   0.70785   0.10454   0.01267  Uiso   1.00
N244   N     0.92196   0.73300   0.13922   0.01267  Uiso   1.00
N245   N     0.89432   0.71262   0.04356   0.01267  Uiso   1.00
N246   N     0.94067   0.73920   0.07091   0.01267  Uiso   1.00
N247   N     0.00223   0.78448   0.95479   0.01267  Uiso   1.00
N248   N     0.03731   0.82947   0.98608   0.01267  Uiso   1.00
N249   N     0.94041   0.79367   0.96584   0.01267  Uiso   1.00
N250   N     0.96890   0.83833   0.00033   0.01267  Uiso   1.00
N251   N     0.95501   0.80544   0.90533   0.01267  Uiso   1.00
N252   N     0.98304   0.85147   0.93283   0.01267  Uiso   1.00
N253   N     0.05360   0.55335   0.65755   0.01267  Uiso   1.00
N254   N     0.05822   0.54622   0.54188   0.01267  Uiso   1.00
N255   N     0.27194   0.61343   0.76117   0.01267  Uiso   1.00
N256   N     0.25366   0.53936   0.66726   0.01267  Uiso   1.00
N257   N     0.18581   0.58454   0.66691   0.01267  Uiso   1.00
N258   N     0.28378   0.64151   0.68601   0.01267  Uiso   1.00
N259   N     0.31688   0.73124   0.60710   0.01267  Uiso   1.00
N260   N     0.31738   0.69833   0.61971   0.01267  Uiso   1.00
N261   N     0.39669   0.79215   0.66890   0.01267  Uiso   1.00
N262   N     0.40622   0.76700   0.68896   0.01267  Uiso   1.00
N263   N     0.33094   0.78738   0.68170   0.01267  Uiso   1.00
N264   N     0.33171   0.76080   0.70147   0.01267  Uiso   1.00
N265   N     0.17031   0.71552   0.71775   0.01267  Uiso   1.00
N266   N     0.15661   0.67053   0.70784   0.01267  Uiso   1.00
N267   N     0.17217   0.70633   0.64674   0.01267  Uiso   1.00
N268   N     0.16200   0.66167   0.63057   0.01267  Uiso   1.00
N269   N     0.09989   0.69456   0.64957   0.01267  Uiso   1.00
N270   N     0.08136   0.64853   0.63157   0.01267  Uiso   1.00
N271   N     0.39580   0.39605   0.84245   0.01267  Uiso   1.00
N272   N     0.50434   0.51634   0.95812   0.01267  Uiso   1.00
N273   N     0.35226   0.51077   0.73883   0.01267  Uiso   1.00
N274   N     0.37210   0.58640   0.83274   0.01267  Uiso   1.00
N275   N     0.41763   0.51890   0.83309   0.01267  Uiso   1.00
N276   N     0.45550   0.59777   0.81399   0.01267  Uiso   1.00
N277   N     0.62414   0.70978   0.89290   0.01267  Uiso   1.00
N278   N     0.57862   0.69767   0.88029   0.01267  Uiso   1.00
N279   N     0.62325   0.72779   0.83110   0.01267  Uiso   1.00
N280   N     0.57804   0.71726   0.81104   0.01267  Uiso   1.00
N281   N     0.60568   0.64924   0.81830   0.01267  Uiso   1.00
N282   N     0.55933   0.63024   0.79853   0.01267  Uiso   1.00
N283   N     0.49777   0.45256   0.78225   0.01267  Uiso   1.00
N284   N     0.46269   0.44877   0.79216   0.01267  Uiso   1.00
N285   N     0.55959   0.52543   0.85326   0.01267  Uiso   1.00
N286   N     0.53110   0.53143   0.86943   0.01267  Uiso   1.00
N287   N     0.54499   0.45032   0.85043   0.01267  Uiso   1.00
N288   N     0.51696   0.44979   0.86843   0.01267  Uiso   1.00
N289   N     0.94665   0.50025   0.60420   0.01267  Uiso   1.00
N290   N     0.95378   0.51200   0.49566   0.01267  Uiso   1.00
N291   N     0.88657   0.65851   0.64774   0.01267  Uiso   1.00
N292   N     0.96064   0.71430   0.62790   0.01267  Uiso   1.00
N293   N     0.91546   0.60127   0.58237   0.01267  Uiso   1.00
N294   N     0.85849   0.64227   0.54450   0.01267  Uiso   1.00
N295   N     0.76876   0.58564   0.37586   0.01267  Uiso   1.00
N296   N     0.80167   0.61905   0.42138   0.01267  Uiso   1.00
N297   N     0.70785   0.60454   0.37675   0.01267  Uiso   1.00
N298   N     0.73300   0.63922   0.42196   0.01267  Uiso   1.00
N299   N     0.71262   0.54356   0.39432   0.01267  Uiso   1.00
N300   N     0.73920   0.57091   0.44067   0.01267  Uiso   1.00
N301   N     0.78448   0.45479   0.50223   0.01267  Uiso   1.00
N302   N     0.82947   0.48608   0.53731   0.01267  Uiso   1.00
N303   N     0.79367   0.46584   0.44041   0.01267  Uiso   1.00
N304   N     0.83833   0.50033   0.46890   0.01267  Uiso   1.00
N305   N     0.80544   0.40533   0.45501   0.01267  Uiso   1.00
N306   N     0.85147   0.43283   0.48304   0.01267  Uiso   1.00
N307   N     0.10395   0.99975   0.94640   0.01267  Uiso   1.00
N308   N     0.98366   0.98800   0.94178   0.01267  Uiso   1.00
N309   N     0.98923   0.84149   0.72806   0.01267  Uiso   1.00
N310   N     0.91360   0.78570   0.74634   0.01267  Uiso   1.00
N311   N     0.98110   0.89873   0.81419   0.01267  Uiso   1.00
N312   N     0.90223   0.85773   0.71622   0.01267  Uiso   1.00
N313   N     0.79022   0.91436   0.68312   0.01267  Uiso   1.00
N314   N     0.80233   0.88095   0.68262   0.01267  Uiso   1.00
N315   N     0.77221   0.89546   0.60331   0.01267  Uiso   1.00
N316   N     0.78274   0.86078   0.59378   0.01267  Uiso   1.00
N317   N     0.85076   0.95644   0.66906   0.01267  Uiso   1.00
N318   N     0.86976   0.92909   0.66829   0.01267  Uiso   1.00
N319   N     0.04744   0.04521   0.82969   0.01267  Uiso   1.00
N320   N     0.05123   0.01392   0.84339   0.01267  Uiso   1.00
N321   N     0.97457   0.03416   0.82783   0.01267  Uiso   1.00
N322   N     0.96857   0.99967   0.83800   0.01267  Uiso   1.00
N323   N     0.04968   0.09467   0.90011   0.01267  Uiso   1.00
N324   N     0.05021   0.06717   0.91864   0.01267  Uiso   1.00
N325   N     0.39605   0.34245   0.89580   0.01267  Uiso   1.00
N326   N     0.51634   0.45812   0.00434   0.01267  Uiso   1.00
N327   N     0.51077   0.23883   0.85226   0.01267  Uiso   1.00
N328   N     0.58640   0.33274   0.87210   0.01267  Uiso   1.00
N329   N     0.51890   0.33309   0.91763   0.01267  Uiso   1.00
N330   N     0.59777   0.31399   0.95550   0.01267  Uiso   1.00
N331   N     0.70978   0.39290   0.12414   0.01267  Uiso   1.00
N332   N     0.69767   0.38029   0.07862   0.01267  Uiso   1.00
N333   N     0.72779   0.33110   0.12325   0.01267  Uiso   1.00
N334   N     0.71726   0.31104   0.07804   0.01267  Uiso   1.00
N335   N     0.64924   0.31830   0.10568   0.01267  Uiso   1.00
N336   N     0.63024   0.29853   0.05933   0.01267  Uiso   1.00
N337   N     0.45256   0.28225   0.99777   0.01267  Uiso   1.00
N338   N     0.44877   0.29216   0.96269   0.01267  Uiso   1.00
N339   N     0.52543   0.35326   0.05959   0.01267  Uiso   1.00
N340   N     0.53143   0.36943   0.03110   0.01267  Uiso   1.00
N341   N     0.45032   0.35043   0.04499   0.01267  Uiso   1.00
N342   N     0.44979   0.36843   0.01696   0.01267  Uiso   1.00
N343   N     0.55335   0.15755   0.55360   0.01267  Uiso   1.00
N344   N     0.54622   0.04188   0.55822   0.01267  Uiso   1.00
N345   N     0.61343   0.26117   0.77194   0.01267  Uiso   1.00
N346   N     0.53936   0.16726   0.75366   0.01267  Uiso   1.00
N347   N     0.58454   0.16691   0.68581   0.01267  Uiso   1.00
N348   N     0.64151   0.18601   0.78378   0.01267  Uiso   1.00
N349   N     0.73124   0.10710   0.81688   0.01267  Uiso   1.00
N350   N     0.69833   0.11971   0.81738   0.01267  Uiso   1.00
N351   N     0.79215   0.16890   0.89669   0.01267  Uiso   1.00
N352   N     0.76700   0.18896   0.90622   0.01267  Uiso   1.00
N353   N     0.78738   0.18170   0.83094   0.01267  Uiso   1.00
N354   N     0.76080   0.20147   0.83171   0.01267  Uiso   1.00
N355   N     0.71552   0.21775   0.67031   0.01267  Uiso   1.00
N356   N     0.67053   0.20784   0.65661   0.01267  Uiso   1.00
N357   N     0.70633   0.14674   0.67217   0.01267  Uiso   1.00
N358   N     0.66167   0.13057   0.66200   0.01267  Uiso   1.00
N359   N     0.69456   0.14957   0.59989   0.01267  Uiso   1.00
N360   N     0.64853   0.13157   0.58136   0.01267  Uiso   1.00
N361   N     0.34245   0.39580   0.89605   0.01267  Uiso   1.00
N362   N     0.45812   0.50434   0.01634   0.01267  Uiso   1.00
N363   N     0.23883   0.35226   0.01077   0.01267  Uiso   1.00
N364   N     0.33274   0.37210   0.08640   0.01267  Uiso   1.00
N365   N     0.33309   0.41763   0.01890   0.01267  Uiso   1.00
N366   N     0.31399   0.45550   0.09777   0.01267  Uiso   1.00
N367   N     0.39290   0.62414   0.20978   0.01267  Uiso   1.00
N368   N     0.38029   0.57862   0.19767   0.01267  Uiso   1.00
N369   N     0.33110   0.62325   0.22779   0.01267  Uiso   1.00
N370   N     0.31104   0.57804   0.21726   0.01267  Uiso   1.00
N371   N     0.31830   0.60568   0.14924   0.01267  Uiso   1.00
N372   N     0.29853   0.55933   0.13024   0.01267  Uiso   1.00
N373   N     0.28225   0.49777   0.95256   0.01267  Uiso   1.00
N374   N     0.29216   0.46269   0.94877   0.01267  Uiso   1.00
N375   N     0.35326   0.55959   0.02543   0.01267  Uiso   1.00
N376   N     0.36943   0.53110   0.03143   0.01267  Uiso   1.00
N377   N     0.35043   0.54499   0.95032   0.01267  Uiso   1.00
N378   N     0.36843   0.51696   0.94979   0.01267  Uiso   1.00
N379   N     0.15755   0.05360   0.05335   0.01267  Uiso   1.00
N380   N     0.04188   0.05822   0.04622   0.01267  Uiso   1.00
N381   N     0.26117   0.27194   0.11343   0.01267  Uiso   1.00
N382   N     0.16726   0.25366   0.03936   0.01267  Uiso   1.00
N383   N     0.16691   0.18581   0.08454   0.01267  Uiso   1.00
N384   N     0.18601   0.28378   0.14151   0.01267  Uiso   1.00
N385   N     0.10710   0.31688   0.23124   0.01267  Uiso   1.00
N386   N     0.11971   0.31738   0.19833   0.01267  Uiso   1.00
N387   N     0.16890   0.39669   0.29215   0.01267  Uiso   1.00
N388   N     0.18896   0.40622   0.26700   0.01267  Uiso   1.00
N389   N     0.18170   0.33094   0.28738   0.01267  Uiso   1.00
N390   N     0.20147   0.33171   0.26080   0.01267  Uiso   1.00
N391   N     0.21775   0.17031   0.21552   0.01267  Uiso   1.00
N392   N     0.20784   0.15661   0.17053   0.01267  Uiso   1.00
N393   N     0.14674   0.17217   0.20633   0.01267  Uiso   1.00
N394   N     0.13057   0.16200   0.16167   0.01267  Uiso   1.00
N395   N     0.14957   0.09989   0.19456   0.01267  Uiso   1.00
N396   N     0.13157   0.08136   0.14853   0.01267  Uiso   1.00
N397   N     0.50025   0.10420   0.44665   0.01267  Uiso   1.00
N398   N     0.51200   0.99566   0.45378   0.01267  Uiso   1.00
N399   N     0.65851   0.14774   0.38657   0.01267  Uiso   1.00
N400   N     0.71430   0.12790   0.46064   0.01267  Uiso   1.00
N401   N     0.60127   0.08237   0.41546   0.01267  Uiso   1.00
N402   N     0.64227   0.04450   0.35849   0.01267  Uiso   1.00
N403   N     0.58564   0.87586   0.26876   0.01267  Uiso   1.00
N404   N     0.61905   0.92138   0.30167   0.01267  Uiso   1.00
N405   N     0.60454   0.87675   0.20785   0.01267  Uiso   1.00
N406   N     0.63922   0.92196   0.23300   0.01267  Uiso   1.00
N407   N     0.54356   0.89432   0.21262   0.01267  Uiso   1.00
N408   N     0.57091   0.94067   0.23920   0.01267  Uiso   1.00
N409   N     0.45479   0.00223   0.28448   0.01267  Uiso   1.00
N410   N     0.48608   0.03731   0.32947   0.01267  Uiso   1.00
N411   N     0.46584   0.94041   0.29367   0.01267  Uiso   1.00
N412   N     0.50033   0.96890   0.33833   0.01267  Uiso   1.00
N413   N     0.40533   0.95501   0.30544   0.01267  Uiso   1.00
N414   N     0.43283   0.98304   0.35147   0.01267  Uiso   1.00
N415   N     0.99975   0.44640   0.60395   0.01267  Uiso   1.00
N416   N     0.98800   0.44178   0.48366   0.01267  Uiso   1.00
N417   N     0.84149   0.22806   0.48923   0.01267  Uiso   1.00
N418   N     0.78570   0.24634   0.41360   0.01267  Uiso   1.00
N419   N     0.89873   0.31419   0.48110   0.01267  Uiso   1.00
N420   N     0.85773   0.21622   0.40223   0.01267  Uiso   1.00
N421   N     0.91436   0.18312   0.29022   0.01267  Uiso   1.00
N422   N     0.88095   0.18262   0.30233   0.01267  Uiso   1.00
N423   N     0.89546   0.10331   0.27221   0.01267  Uiso   1.00
N424   N     0.86078   0.09378   0.28274   0.01267  Uiso   1.00
N425   N     0.95644   0.16906   0.35076   0.01267  Uiso   1.00
N426   N     0.92909   0.16829   0.36976   0.01267  Uiso   1.00
N427   N     0.04521   0.32969   0.54744   0.01267  Uiso   1.00
N428   N     0.01392   0.34339   0.55123   0.01267  Uiso   1.00
N429   N     0.03416   0.32783   0.47457   0.01267  Uiso   1.00
N430   N     0.99967   0.33800   0.46857   0.01267  Uiso   1.00
N431   N     0.09467   0.40011   0.54968   0.01267  Uiso   1.00
N432   N     0.06717   0.41864   0.55021   0.01267  Uiso   1.00
