data_image0
_cell_length_a       24.3687
_cell_length_b       24.3687
_cell_length_c       47.322
_cell_angle_alpha    90
_cell_angle_beta     90
_cell_angle_gamma    90

_symmetry_space_group_name_H-M    "P 1"
_symmetry_int_tables_number       1

loop_
  _symmetry_equiv_pos_as_xyz
  'x, y, z'

loop_
  _atom_site_label
  _atom_site_occupancy
  _atom_site_fract_x
  _atom_site_fract_y
  _atom_site_fract_z
  _atom_site_thermal_displace_type
  _atom_site_B_iso_or_equiv
  _atom_site_type_symbol
  La1      1.0000 0.08148  0.37847  0.63724  Biso   1.000  La
  Ag1      1.0000 0.12970  0.70674  0.44115  Biso   1.000  Ag
  Ag2      1.0000 0.14749  0.60745  0.49987  Biso   1.000  Ag
  Ag3      1.0000 0.18913  0.50353  0.46287  Biso   1.000  Ag
  Ag4      1.0000 0.20192  0.59285  0.40645  Biso   1.000  Ag
  Ag5      1.0000 0.26758  0.73702  0.46055  Biso   1.000  Ag
  Ag6      1.0000 0.27796  0.65584  0.51866  Biso   1.000  Ag
  Ag7      1.0000 0.32518  0.55688  0.47745  Biso   1.000  Ag
  Ag8      1.0000 0.33970  0.63970  0.41268  Biso   1.000  Ag
  Ni1      1.0000 0.04422  0.56512  0.43659  Biso   1.000  Ni
  Ni2      1.0000 0.42624  0.68774  0.48227  Biso   1.000  Ni
  Ni3      1.0000 0.23553  0.74759  0.37710  Biso   1.000  Ni
  Ni4      1.0000 0.24293  0.49593  0.54525  Biso   1.000  Ni
  Ni5      1.0000 0.16095  0.77355  0.52076  Biso   1.000  Ni
  Ni6      1.0000 0.31556  0.47307  0.40471  Biso   1.000  Ni
  S1       1.0000 0.07610  0.62913  0.46366  Biso   1.000  S
  S2       1.0000 0.12423  0.53340  0.42521  Biso   1.000  S
  S3       1.0000 0.34549  0.71651  0.49471  Biso   1.000  S
  S4       1.0000 0.39535  0.62083  0.45655  Biso   1.000  S
  S5       1.0000 0.29624  0.73224  0.40944  Biso   1.000  S
  S6       1.0000 0.17599  0.69066  0.39416  Biso   1.000  S
  S7       1.0000 0.29866  0.55738  0.52940  Biso   1.000  S
  S8       1.0000 0.17753  0.51334  0.51540  Biso   1.000  S
  S9       1.0000 0.18271  0.68855  0.52777  Biso   1.000  S
  S10      1.0000 0.17549  0.77081  0.47583  Biso   1.000  S
  S11      1.0000 0.28565  0.48045  0.44756  Biso   1.000  S
  S12      1.0000 0.29410  0.55595  0.39264  Biso   1.000  S
  O1       1.0000 0.88310  0.61480  0.47300  Biso   1.000  O
  O2       1.0000 0.89300  0.69960  0.47480  Biso   1.000  O
  O3       1.0000 0.04420  0.36810  0.39161  Biso   1.000  O
  O4       1.0000 0.97860  0.42780  0.38042  Biso   1.000  O
  O5       1.0000 0.48700  0.82400  0.54194  Biso   1.000  O
  O6       1.0000 0.41880  0.81250  0.57270  Biso   1.000  O
  O7       1.0000 0.58910  0.60940  0.46150  Biso   1.000  O
  O8       1.0000 0.57140  0.60050  0.41300  Biso   1.000  O
  O9       1.0000 0.42890  0.84160  0.35970  Biso   1.000  O
  O10      1.0000 0.35060  0.88650  0.35441  Biso   1.000  O
  O11      1.0000 0.11540  0.75500  0.30420  Biso   1.000  O
  O12      1.0000 0.04110  0.75080  0.32770  Biso   1.000  O
  O13      1.0000 0.38860  0.44980  0.59960  Biso   1.000  O
  O14      1.0000 0.41060  0.53490  0.61250  Biso   1.000  O
  O15      1.0000 0.11850  0.39150  0.58878  Biso   1.000  O
  O16      1.0000 0.06900  0.36750  0.55245  Biso   1.000  O
  O17      1.0000 0.20320  0.72330  0.62615  Biso   1.000  O
  O18      1.0000 0.12560  0.76700  0.61482  Biso   1.000  O
  O19      1.0000 0.12910  0.95390  0.50670  Biso   1.000  O
  O20      1.0000 0.08920  0.94440  0.46380  Biso   1.000  O
  O21      1.0000 0.36290  0.29860  0.43429  Biso   1.000  O
  O22      1.0000 0.28430  0.28660  0.45622  Biso   1.000  O
  O23      1.0000 0.34050  0.44850  0.31093  Biso   1.000  O
  O24      1.0000 0.37880  0.53080  0.30239  Biso   1.000  O
  O25      1.0000 0.08710  0.43330  0.68706  Biso   1.000  O
  N1       1.0000 0.97140  0.59340  0.44434  Biso   1.000  N
  N2       1.0000 0.01240  0.50550  0.41503  Biso   1.000  N
  N3       1.0000 0.45650  0.73900  0.50947  Biso   1.000  N
  N4       1.0000 0.49920  0.67070  0.46856  Biso   1.000  N
  N5       1.0000 0.28730  0.79720  0.35988  Biso   1.000  N
  N6       1.0000 0.18310  0.76570  0.34837  Biso   1.000  N
  N7       1.0000 0.29580  0.48120  0.57435  Biso   1.000  N
  N8       1.0000 0.19930  0.43590  0.55904  Biso   1.000  N
  N9       1.0000 0.15760  0.78330  0.56148  Biso   1.000  N
  N10      1.0000 0.13240  0.84620  0.51635  Biso   1.000  N
  N11      1.0000 0.32760  0.39660  0.41133  Biso   1.000  N
  N12      1.0000 0.34650  0.46290  0.36743  Biso   1.000  N
  C1       1.0000 0.96860  0.64750  0.45720  Biso   1.000  C
  H1       1.0000 0.97540  0.67570  0.44290  Biso   1.000  H
  C2       1.0000 0.01120  0.65220  0.48084  Biso   1.000  C
  C3       1.0000 0.01950  0.71140  0.49150  Biso   1.000  C
  H2       1.0000 0.98650  0.72400  0.50040  Biso   1.000  H
  H3       1.0000 0.02810  0.73490  0.47580  Biso   1.000  H
  H4       1.0000 0.04920  0.71220  0.50480  Biso   1.000  H
  C4       1.0000 0.99840  0.61560  0.50550  Biso   1.000  C
  H5       1.0000 0.96500  0.62760  0.51430  Biso   1.000  H
  H6       1.0000 0.02790  0.61730  0.51890  Biso   1.000  H
  H7       1.0000 0.99410  0.57850  0.49900  Biso   1.000  H
  C5       1.0000 0.91080  0.65590  0.47030  Biso   1.000  C
  C6       1.0000 0.04890  0.45770  0.41188  Biso   1.000  C
  H8       1.0000 0.05430  0.44160  0.43070  Biso   1.000  H
  C7       1.0000 0.10520  0.47660  0.40105  Biso   1.000  C
  C8       1.0000 0.10150  0.49830  0.37104  Biso   1.000  C
  H9       1.0000 0.09160  0.46890  0.35850  Biso   1.000  H
  H10      1.0000 0.13640  0.51300  0.36550  Biso   1.000  H
  H11      1.0000 0.07420  0.52660  0.37010  Biso   1.000  H
  C9       1.0000 0.14940  0.43380  0.40290  Biso   1.000  C
  H12      1.0000 0.14050  0.40380  0.39060  Biso   1.000  H
  H13      1.0000 0.15200  0.42080  0.42200  Biso   1.000  H
  H14      1.0000 0.18380  0.44960  0.39730  Biso   1.000  H
  C10      1.0000 0.02190  0.41350  0.39280  Biso   1.000  C
  C11      1.0000 0.41810  0.75570  0.53062  Biso   1.000  C
  H15      1.0000 0.41020  0.72360  0.54240  Biso   1.000  H
  C12      1.0000 0.36410  0.77500  0.51792  Biso   1.000  C
  C13      1.0000 0.37170  0.82580  0.49937  Biso   1.000  C
  H16      1.0000 0.38130  0.85660  0.51100  Biso   1.000  H
  H17      1.0000 0.33810  0.83350  0.48960  Biso   1.000  H
  H18      1.0000 0.40040  0.81920  0.48590  Biso   1.000  H
  C14      1.0000 0.31870  0.78150  0.53976  Biso   1.000  C
  H19      1.0000 0.32740  0.81160  0.55210  Biso   1.000  H
  H20      1.0000 0.31560  0.74840  0.55060  Biso   1.000  H
  H21      1.0000 0.28460  0.78870  0.53030  Biso   1.000  H
  C15      1.0000 0.44360  0.80200  0.55080  Biso   1.000  C
  C16      1.0000 0.49960  0.63230  0.44370  Biso   1.000  C
  H22      1.0000 0.48820  0.65300  0.42700  Biso   1.000  H
  C17      1.0000 0.46080  0.58590  0.44753  Biso   1.000  C
  C18      1.0000 0.45200  0.55180  0.42176  Biso   1.000  C
  H23      1.0000 0.48550  0.53320  0.41700  Biso   1.000  H
  H24      1.0000 0.44120  0.57490  0.40630  Biso   1.000  H
  H25      1.0000 0.42380  0.52520  0.42530  Biso   1.000  H
  C19      1.0000 0.47570  0.55070  0.47280  Biso   1.000  C
  H26      1.0000 0.50930  0.53160  0.46910  Biso   1.000  H
  H27      1.0000 0.44690  0.52470  0.47630  Biso   1.000  H
  H28      1.0000 0.48030  0.57370  0.48910  Biso   1.000  H
  C20      1.0000 0.56030  0.61360  0.43920  Biso   1.000  C
  C21      1.0000 0.34530  0.79410  0.36968  Biso   1.000  C
  H29      1.0000 0.36230  0.76180  0.36090  Biso   1.000  H
  C22      1.0000 0.34680  0.78650  0.40141  Biso   1.000  C
  C23      1.0000 0.40140  0.76790  0.41350  Biso   1.000  C
  H30      1.0000 0.42880  0.79520  0.40970  Biso   1.000  H
  H31      1.0000 0.41190  0.73380  0.40490  Biso   1.000  H
  H32      1.0000 0.39790  0.76280  0.43350  Biso   1.000  H
  C24      1.0000 0.32980  0.83890  0.41640  Biso   1.000  C
  H33      1.0000 0.35600  0.86740  0.41240  Biso   1.000  H
  H34      1.0000 0.32860  0.83260  0.43640  Biso   1.000  H
  H35      1.0000 0.29420  0.85000  0.40990  Biso   1.000  H
  C25      1.0000 0.37750  0.84540  0.36010  Biso   1.000  C
  C26      1.0000 0.12500  0.74860  0.35430  Biso   1.000  C
  H36      1.0000 0.10870  0.77320  0.36840  Biso   1.000  H
  C27      1.0000 0.12390  0.68870  0.36544  Biso   1.000  C
  C28      1.0000 0.07040  0.67070  0.37780  Biso   1.000  C
  H37      1.0000 0.04310  0.66930  0.36320  Biso   1.000  H
  H38      1.0000 0.05920  0.69630  0.39210  Biso   1.000  H
  H39      1.0000 0.07460  0.63490  0.38610  Biso   1.000  H
  C29      1.0000 0.14570  0.64860  0.34300  Biso   1.000  C
  H40      1.0000 0.11990  0.64600  0.32770  Biso   1.000  H
  H41      1.0000 0.15070  0.61300  0.35130  Biso   1.000  H
  H42      1.0000 0.18020  0.66170  0.33580  Biso   1.000  H
  C30      1.0000 0.09090  0.75050  0.32650  Biso   1.000  C
  C31      1.0000 0.33590  0.52530  0.58006  Biso   1.000  C
  H43      1.0000 0.31770  0.55480  0.59060  Biso   1.000  H
  C32      1.0000 0.35900  0.54860  0.55293  Biso   1.000  C
  C33      1.0000 0.38580  0.60360  0.55750  Biso   1.000  C
  H44      1.0000 0.41710  0.59940  0.56960  Biso   1.000  H
  H45      1.0000 0.36000  0.62830  0.56610  Biso   1.000  H
  H46      1.0000 0.39740  0.61830  0.53960  Biso   1.000  H
  C34      1.0000 0.39900  0.50870  0.53805  Biso   1.000  C
  H47      1.0000 0.43090  0.50350  0.54970  Biso   1.000  H
  H48      1.0000 0.40980  0.52380  0.52020  Biso   1.000  H
  H49      1.0000 0.38110  0.47410  0.53510  Biso   1.000  H
  C35      1.0000 0.38350  0.49970  0.59916  Biso   1.000  C
  C36      1.0000 0.14860  0.42140  0.54301  Biso   1.000  C
  H50      1.0000 0.15840  0.39740  0.52720  Biso   1.000  H
  C37      1.0000 0.12010  0.47490  0.53109  Biso   1.000  C
  C38      1.0000 0.09640  0.50700  0.55520  Biso   1.000  C
  H51      1.0000 0.06650  0.48690  0.56340  Biso   1.000  H
  H52      1.0000 0.08340  0.54180  0.54840  Biso   1.000  H
  H53      1.0000 0.12430  0.51290  0.56920  Biso   1.000  H
  C39      1.0000 0.08070  0.46120  0.50778  Biso   1.000  C
  H54      1.0000 0.05030  0.44100  0.51540  Biso   1.000  H
  H55      1.0000 0.09910  0.43930  0.49380  Biso   1.000  H
  H56      1.0000 0.06770  0.49440  0.49920  Biso   1.000  H
  C40      1.0000 0.10870  0.38940  0.56350  Biso   1.000  C
  C41      1.0000 0.18320  0.73830  0.57789  Biso   1.000  C
  H57      1.0000 0.22300  0.74140  0.57550  Biso   1.000  H
  C42      1.0000 0.16580  0.68200  0.56604  Biso   1.000  C
  C43      1.0000 0.10330  0.67220  0.56930  Biso   1.000  C
  H58      1.0000 0.09440  0.66860  0.58890  Biso   1.000  H
  H59      1.0000 0.09320  0.63920  0.55950  Biso   1.000  H
  H60      1.0000 0.08360  0.70270  0.56140  Biso   1.000  H
  C44      1.0000 0.19720  0.63500  0.57814  Biso   1.000  C
  H61      1.0000 0.18880  0.63140  0.59790  Biso   1.000  H
  H62      1.0000 0.23580  0.64150  0.57590  Biso   1.000  H
  H63      1.0000 0.18730  0.60180  0.56840  Biso   1.000  H
  C45      1.0000 0.17070  0.74530  0.60930  Biso   1.000  C
  C46      1.0000 0.12030  0.86110  0.48650  Biso   1.000  C
  H64      1.0000 0.08590  0.84390  0.48050  Biso   1.000  H
  C47      1.0000 0.16650  0.84360  0.46690  Biso   1.000  C
  C48      1.0000 0.22330  0.87340  0.47390  Biso   1.000  C
  H65      1.0000 0.22050  0.91170  0.46940  Biso   1.000  H
  H66      1.0000 0.25210  0.85710  0.46290  Biso   1.000  H
  H67      1.0000 0.23140  0.86920  0.49370  Biso   1.000  H
  C49      1.0000 0.11410  0.92650  0.48580  Biso   1.000  C
  C50      1.0000 0.15470  0.84850  0.43590  Biso   1.000  C
  H68      1.0000 0.15020  0.88650  0.43100  Biso   1.000  H
  H69      1.0000 0.12170  0.82880  0.43150  Biso   1.000  H
  H70      1.0000 0.18480  0.83340  0.42530  Biso   1.000  H
  C51      1.0000 0.29930  0.37450  0.43707  Biso   1.000  C
  H71      1.0000 0.25990  0.37300  0.43300  Biso   1.000  H
  C52      1.0000 0.30750  0.41290  0.46115  Biso   1.000  C
  C53      1.0000 0.36780  0.41610  0.46898  Biso   1.000  C
  H72      1.0000 0.37980  0.38120  0.47610  Biso   1.000  H
  H73      1.0000 0.37290  0.44370  0.48320  Biso   1.000  H
  H74      1.0000 0.38890  0.42550  0.45250  Biso   1.000  H
  C54      1.0000 0.27540  0.39860  0.48699  Biso   1.000  C
  H75      1.0000 0.28710  0.36350  0.49390  Biso   1.000  H
  H76      1.0000 0.23710  0.39710  0.48240  Biso   1.000  H
  H77      1.0000 0.28150  0.42590  0.50120  Biso   1.000  H
  C55      1.0000 0.31940  0.31430  0.44295  Biso   1.000  C
  C56      1.0000 0.35050  0.51280  0.34913  Biso   1.000  C
  H78      1.0000 0.38330  0.53320  0.35490  Biso   1.000  H
  C57      1.0000 0.30090  0.54970  0.35402  Biso   1.000  C
  C58      1.0000 0.25060  0.52410  0.34240  Biso   1.000  C
  H79      1.0000 0.25400  0.52090  0.32220  Biso   1.000  H
  H80      1.0000 0.21940  0.54650  0.34690  Biso   1.000  H
  H81      1.0000 0.24590  0.48830  0.35040  Biso   1.000  H
  C59      1.0000 0.31050  0.60730  0.34240  Biso   1.000  C
  H82      1.0000 0.31430  0.60550  0.32220  Biso   1.000  H
  H83      1.0000 0.34340  0.62220  0.35040  Biso   1.000  H
  H84      1.0000 0.27990  0.63030  0.34710  Biso   1.000  H
  C60      1.0000 0.35820  0.49570  0.31890  Biso   1.000  C
  O26      1.0000 0.16840  0.41370  0.66450  Biso   1.000  O
  C61      1.0000 0.13480  0.43770  0.68730  Biso   1.000  C
  C62      1.0000 0.16620  0.47140  0.71360  Biso   1.000  C
  H85      1.0000 0.14930  0.46200  0.73130  Biso   1.000  H
  H86      1.0000 0.16310  0.51020  0.71050  Biso   1.000  H
  H87      1.0000 0.20430  0.46130  0.71410  Biso   1.000  H
  La2      1.0000 0.91852  0.62153  0.13724  Biso   1.000  La
  Ag9      1.0000 0.87030  0.29326  0.94115  Biso   1.000  Ag
  Ag10     1.0000 0.85251  0.39255  0.99987  Biso   1.000  Ag
  Ag11     1.0000 0.81087  0.49647  0.96287  Biso   1.000  Ag
  Ag12     1.0000 0.79808  0.40715  0.90645  Biso   1.000  Ag
  Ag13     1.0000 0.73242  0.26298  0.96055  Biso   1.000  Ag
  Ag14     1.0000 0.72204  0.34416  0.01866  Biso   1.000  Ag
  Ag15     1.0000 0.67482  0.44312  0.97745  Biso   1.000  Ag
  Ag16     1.0000 0.66030  0.36030  0.91268  Biso   1.000  Ag
  Ni7      1.0000 0.95578  0.43488  0.93659  Biso   1.000  Ni
  Ni8      1.0000 0.57376  0.31226  0.98227  Biso   1.000  Ni
  Ni9      1.0000 0.76447  0.25241  0.87710  Biso   1.000  Ni
  Ni10     1.0000 0.75707  0.50407  0.04525  Biso   1.000  Ni
  Ni11     1.0000 0.83905  0.22645  0.02076  Biso   1.000  Ni
  Ni12     1.0000 0.68444  0.52693  0.90471  Biso   1.000  Ni
  S13      1.0000 0.92390  0.37087  0.96366  Biso   1.000  S
  S14      1.0000 0.87577  0.46660  0.92521  Biso   1.000  S
  S15      1.0000 0.65451  0.28349  0.99471  Biso   1.000  S
  S16      1.0000 0.60465  0.37917  0.95655  Biso   1.000  S
  S17      1.0000 0.70376  0.26776  0.90944  Biso   1.000  S
  S18      1.0000 0.82401  0.30934  0.89416  Biso   1.000  S
  S19      1.0000 0.70134  0.44262  0.02940  Biso   1.000  S
  S20      1.0000 0.82247  0.48666  0.01540  Biso   1.000  S
  S21      1.0000 0.81729  0.31145  0.02777  Biso   1.000  S
  S22      1.0000 0.82451  0.22919  0.97583  Biso   1.000  S
  S23      1.0000 0.71435  0.51955  0.94756  Biso   1.000  S
  S24      1.0000 0.70590  0.44405  0.89264  Biso   1.000  S
  O27      1.0000 0.11690  0.38520  0.97300  Biso   1.000  O
  O28      1.0000 0.10700  0.30040  0.97480  Biso   1.000  O
  O29      1.0000 0.95580  0.63190  0.89161  Biso   1.000  O
  O30      1.0000 0.02140  0.57220  0.88042  Biso   1.000  O
  O31      1.0000 0.51300  0.17600  0.04194  Biso   1.000  O
  O32      1.0000 0.58120  0.18750  0.07270  Biso   1.000  O
  O33      1.0000 0.41090  0.39060  0.96150  Biso   1.000  O
  O34      1.0000 0.42860  0.39950  0.91300  Biso   1.000  O
  O35      1.0000 0.57110  0.15840  0.85970  Biso   1.000  O
  O36      1.0000 0.64940  0.11350  0.85441  Biso   1.000  O
  O37      1.0000 0.88460  0.24500  0.80420  Biso   1.000  O
  O38      1.0000 0.95890  0.24920  0.82770  Biso   1.000  O
  O39      1.0000 0.61140  0.55020  0.09960  Biso   1.000  O
  O40      1.0000 0.58940  0.46510  0.11250  Biso   1.000  O
  O41      1.0000 0.88150  0.60850  0.08878  Biso   1.000  O
  O42      1.0000 0.93100  0.63250  0.05245  Biso   1.000  O
  O43      1.0000 0.79680  0.27670  0.12615  Biso   1.000  O
  O44      1.0000 0.87440  0.23300  0.11482  Biso   1.000  O
  O45      1.0000 0.87090  0.04610  0.00670  Biso   1.000  O
  O46      1.0000 0.91080  0.05560  0.96380  Biso   1.000  O
  O47      1.0000 0.63710  0.70140  0.93429  Biso   1.000  O
  O48      1.0000 0.71570  0.71340  0.95622  Biso   1.000  O
  O49      1.0000 0.65950  0.55150  0.81093  Biso   1.000  O
  O50      1.0000 0.62120  0.46920  0.80239  Biso   1.000  O
  O51      1.0000 0.91290  0.56670  0.18706  Biso   1.000  O
  N13      1.0000 0.02860  0.40660  0.94434  Biso   1.000  N
  N14      1.0000 0.98760  0.49450  0.91503  Biso   1.000  N
  N15      1.0000 0.54350  0.26100  0.00947  Biso   1.000  N
  N16      1.0000 0.50080  0.32930  0.96856  Biso   1.000  N
  N17      1.0000 0.71270  0.20280  0.85988  Biso   1.000  N
  N18      1.0000 0.81690  0.23430  0.84837  Biso   1.000  N
  N19      1.0000 0.70420  0.51880  0.07435  Biso   1.000  N
  N20      1.0000 0.80070  0.56410  0.05904  Biso   1.000  N
  N21      1.0000 0.84240  0.21670  0.06148  Biso   1.000  N
  N22      1.0000 0.86760  0.15380  0.01635  Biso   1.000  N
  N23      1.0000 0.67240  0.60340  0.91133  Biso   1.000  N
  N24      1.0000 0.65350  0.53710  0.86743  Biso   1.000  N
  C63      1.0000 0.03140  0.35250  0.95720  Biso   1.000  C
  H88      1.0000 0.02460  0.32430  0.94290  Biso   1.000  H
  C64      1.0000 0.98880  0.34780  0.98084  Biso   1.000  C
  C65      1.0000 0.98050  0.28860  0.99150  Biso   1.000  C
  H89      1.0000 0.01350  0.27600  0.00040  Biso   1.000  H
  H90      1.0000 0.97190  0.26510  0.97580  Biso   1.000  H
  H91      1.0000 0.95080  0.28780  0.00480  Biso   1.000  H
  C66      1.0000 0.00160  0.38440  0.00550  Biso   1.000  C
  H92      1.0000 0.03500  0.37240  0.01430  Biso   1.000  H
  H93      1.0000 0.97210  0.38270  0.01890  Biso   1.000  H
  H94      1.0000 0.00590  0.42150  0.99900  Biso   1.000  H
  C67      1.0000 0.08920  0.34410  0.97030  Biso   1.000  C
  C68      1.0000 0.95110  0.54230  0.91188  Biso   1.000  C
  H95      1.0000 0.94570  0.55840  0.93070  Biso   1.000  H
  C69      1.0000 0.89480  0.52340  0.90105  Biso   1.000  C
  C70      1.0000 0.89850  0.50170  0.87104  Biso   1.000  C
  H96      1.0000 0.90840  0.53110  0.85850  Biso   1.000  H
  H97      1.0000 0.86360  0.48700  0.86550  Biso   1.000  H
  H98      1.0000 0.92580  0.47340  0.87010  Biso   1.000  H
  C71      1.0000 0.85060  0.56620  0.90290  Biso   1.000  C
  H99      1.0000 0.85950  0.59620  0.89060  Biso   1.000  H
  H100     1.0000 0.84800  0.57920  0.92200  Biso   1.000  H
  H101     1.0000 0.81620  0.55040  0.89730  Biso   1.000  H
  C72      1.0000 0.97810  0.58650  0.89280  Biso   1.000  C
  C73      1.0000 0.58190  0.24430  0.03062  Biso   1.000  C
  H102     1.0000 0.58980  0.27640  0.04240  Biso   1.000  H
  C74      1.0000 0.63590  0.22500  0.01792  Biso   1.000  C
  C75      1.0000 0.62830  0.17420  0.99937  Biso   1.000  C
  H103     1.0000 0.61870  0.14340  0.01100  Biso   1.000  H
  H104     1.0000 0.66190  0.16650  0.98960  Biso   1.000  H
  H105     1.0000 0.59960  0.18080  0.98590  Biso   1.000  H
  C76      1.0000 0.68130  0.21850  0.03976  Biso   1.000  C
  H106     1.0000 0.67260  0.18840  0.05210  Biso   1.000  H
  H107     1.0000 0.68440  0.25160  0.05060  Biso   1.000  H
  H108     1.0000 0.71540  0.21130  0.03030  Biso   1.000  H
  C77      1.0000 0.55640  0.19800  0.05080  Biso   1.000  C
  C78      1.0000 0.50040  0.36770  0.94370  Biso   1.000  C
  H109     1.0000 0.51180  0.34700  0.92700  Biso   1.000  H
  C79      1.0000 0.53920  0.41410  0.94753  Biso   1.000  C
  C80      1.0000 0.54800  0.44820  0.92176  Biso   1.000  C
  H110     1.0000 0.51450  0.46680  0.91700  Biso   1.000  H
  H111     1.0000 0.55880  0.42510  0.90630  Biso   1.000  H
  H112     1.0000 0.57620  0.47480  0.92530  Biso   1.000  H
  C81      1.0000 0.52430  0.44930  0.97280  Biso   1.000  C
  H113     1.0000 0.49070  0.46840  0.96910  Biso   1.000  H
  H114     1.0000 0.55310  0.47530  0.97630  Biso   1.000  H
  H115     1.0000 0.51970  0.42630  0.98910  Biso   1.000  H
  C82      1.0000 0.43970  0.38640  0.93920  Biso   1.000  C
  C83      1.0000 0.65470  0.20590  0.86968  Biso   1.000  C
  H116     1.0000 0.63770  0.23820  0.86090  Biso   1.000  H
  C84      1.0000 0.65320  0.21350  0.90141  Biso   1.000  C
  C85      1.0000 0.59860  0.23210  0.91350  Biso   1.000  C
  H117     1.0000 0.57120  0.20480  0.90970  Biso   1.000  H
  H118     1.0000 0.58810  0.26620  0.90490  Biso   1.000  H
  H119     1.0000 0.60210  0.23720  0.93350  Biso   1.000  H
  C86      1.0000 0.67020  0.16110  0.91640  Biso   1.000  C
  H120     1.0000 0.64400  0.13260  0.91240  Biso   1.000  H
  H121     1.0000 0.67140  0.16740  0.93640  Biso   1.000  H
  H122     1.0000 0.70580  0.15000  0.90990  Biso   1.000  H
  C87      1.0000 0.62250  0.15460  0.86010  Biso   1.000  C
  C88      1.0000 0.87500  0.25140  0.85430  Biso   1.000  C
  H123     1.0000 0.89130  0.22680  0.86840  Biso   1.000  H
  C89      1.0000 0.87610  0.31130  0.86544  Biso   1.000  C
  C90      1.0000 0.92960  0.32930  0.87780  Biso   1.000  C
  H124     1.0000 0.95690  0.33070  0.86320  Biso   1.000  H
  H125     1.0000 0.94080  0.30370  0.89210  Biso   1.000  H
  H126     1.0000 0.92540  0.36510  0.88610  Biso   1.000  H
  C91      1.0000 0.85430  0.35140  0.84300  Biso   1.000  C
  H127     1.0000 0.88010  0.35400  0.82770  Biso   1.000  H
  H128     1.0000 0.84930  0.38700  0.85130  Biso   1.000  H
  H129     1.0000 0.81980  0.33830  0.83580  Biso   1.000  H
  C92      1.0000 0.90910  0.24950  0.82650  Biso   1.000  C
  C93      1.0000 0.66410  0.47470  0.08006  Biso   1.000  C
  H130     1.0000 0.68230  0.44520  0.09060  Biso   1.000  H
  C94      1.0000 0.64100  0.45140  0.05293  Biso   1.000  C
  C95      1.0000 0.61420  0.39640  0.05750  Biso   1.000  C
  H131     1.0000 0.58290  0.40060  0.06960  Biso   1.000  H
  H132     1.0000 0.64000  0.37170  0.06610  Biso   1.000  H
  H133     1.0000 0.60260  0.38170  0.03960  Biso   1.000  H
  C96      1.0000 0.60100  0.49130  0.03805  Biso   1.000  C
  H134     1.0000 0.56910  0.49650  0.04970  Biso   1.000  H
  H135     1.0000 0.59020  0.47620  0.02020  Biso   1.000  H
  H136     1.0000 0.61890  0.52590  0.03510  Biso   1.000  H
  C97      1.0000 0.61650  0.50030  0.09916  Biso   1.000  C
  C98      1.0000 0.85140  0.57860  0.04301  Biso   1.000  C
  H137     1.0000 0.84160  0.60260  0.02720  Biso   1.000  H
  C99      1.0000 0.87990  0.52510  0.03109  Biso   1.000  C
  C100     1.0000 0.90360  0.49300  0.05520  Biso   1.000  C
  H138     1.0000 0.93350  0.51310  0.06340  Biso   1.000  H
  H139     1.0000 0.91660  0.45820  0.04840  Biso   1.000  H
  H140     1.0000 0.87570  0.48710  0.06920  Biso   1.000  H
  C101     1.0000 0.91930  0.53880  0.00778  Biso   1.000  C
  H141     1.0000 0.94970  0.55900  0.01540  Biso   1.000  H
  H142     1.0000 0.90090  0.56070  0.99380  Biso   1.000  H
  H143     1.0000 0.93230  0.50560  0.99920  Biso   1.000  H
  C102     1.0000 0.89130  0.61060  0.06350  Biso   1.000  C
  C103     1.0000 0.81680  0.26170  0.07789  Biso   1.000  C
  H144     1.0000 0.77700  0.25860  0.07550  Biso   1.000  H
  C104     1.0000 0.83420  0.31800  0.06604  Biso   1.000  C
  C105     1.0000 0.89670  0.32780  0.06930  Biso   1.000  C
  H145     1.0000 0.90560  0.33140  0.08890  Biso   1.000  H
  H146     1.0000 0.90680  0.36080  0.05950  Biso   1.000  H
  H147     1.0000 0.91640  0.29730  0.06140  Biso   1.000  H
  C106     1.0000 0.80280  0.36500  0.07814  Biso   1.000  C
  H148     1.0000 0.81120  0.36860  0.09790  Biso   1.000  H
  H149     1.0000 0.76420  0.35850  0.07590  Biso   1.000  H
  H150     1.0000 0.81270  0.39820  0.06840  Biso   1.000  H
  C107     1.0000 0.82930  0.25470  0.10930  Biso   1.000  C
  C108     1.0000 0.87970  0.13890  0.98650  Biso   1.000  C
  H151     1.0000 0.91410  0.15610  0.98050  Biso   1.000  H
  C109     1.0000 0.83350  0.15640  0.96690  Biso   1.000  C
  C110     1.0000 0.77670  0.12660  0.97390  Biso   1.000  C
  H152     1.0000 0.77950  0.08830  0.96940  Biso   1.000  H
  H153     1.0000 0.74790  0.14290  0.96290  Biso   1.000  H
  H154     1.0000 0.76860  0.13080  0.99370  Biso   1.000  H
  C111     1.0000 0.88590  0.07350  0.98580  Biso   1.000  C
  C112     1.0000 0.84530  0.15150  0.93590  Biso   1.000  C
  H155     1.0000 0.84980  0.11350  0.93100  Biso   1.000  H
  H156     1.0000 0.87830  0.17120  0.93150  Biso   1.000  H
  H157     1.0000 0.81520  0.16660  0.92530  Biso   1.000  H
  C113     1.0000 0.70070  0.62550  0.93707  Biso   1.000  C
  H158     1.0000 0.74010  0.62700  0.93300  Biso   1.000  H
  C114     1.0000 0.69250  0.58710  0.96115  Biso   1.000  C
  C115     1.0000 0.63220  0.58390  0.96898  Biso   1.000  C
  H159     1.0000 0.62020  0.61880  0.97610  Biso   1.000  H
  H160     1.0000 0.62710  0.55630  0.98320  Biso   1.000  H
  H161     1.0000 0.61110  0.57450  0.95250  Biso   1.000  H
  C116     1.0000 0.72460  0.60140  0.98699  Biso   1.000  C
  H162     1.0000 0.71290  0.63650  0.99390  Biso   1.000  H
  H163     1.0000 0.76290  0.60290  0.98240  Biso   1.000  H
  H164     1.0000 0.71850  0.57410  0.00120  Biso   1.000  H
  C117     1.0000 0.68060  0.68570  0.94295  Biso   1.000  C
  C118     1.0000 0.64950  0.48720  0.84913  Biso   1.000  C
  H165     1.0000 0.61670  0.46680  0.85490  Biso   1.000  H
  C119     1.0000 0.69910  0.45030  0.85402  Biso   1.000  C
  C120     1.0000 0.74940  0.47590  0.84240  Biso   1.000  C
  H166     1.0000 0.74600  0.47910  0.82220  Biso   1.000  H
  H167     1.0000 0.78060  0.45350  0.84690  Biso   1.000  H
  H168     1.0000 0.75410  0.51170  0.85040  Biso   1.000  H
  C121     1.0000 0.68950  0.39270  0.84240  Biso   1.000  C
  H169     1.0000 0.68570  0.39450  0.82220  Biso   1.000  H
  H170     1.0000 0.65660  0.37780  0.85040  Biso   1.000  H
  H171     1.0000 0.72010  0.36970  0.84710  Biso   1.000  H
  C122     1.0000 0.64180  0.50430  0.81890  Biso   1.000  C
  O52      1.0000 0.83160  0.58630  0.16450  Biso   1.000  O
  C123     1.0000 0.86520  0.56230  0.18730  Biso   1.000  C
  C124     1.0000 0.83380  0.52860  0.21360  Biso   1.000  C
  H172     1.0000 0.85070  0.53800  0.23130  Biso   1.000  H
  H173     1.0000 0.83690  0.48980  0.21050  Biso   1.000  H
  H174     1.0000 0.79570  0.53870  0.21410  Biso   1.000  H
  La3      1.0000 0.12153  0.58148  0.88724  Biso   1.000  La
  Ag17     1.0000 0.79326  0.62970  0.69115  Biso   1.000  Ag
  Ag18     1.0000 0.89255  0.64749  0.74987  Biso   1.000  Ag
  Ag19     1.0000 0.99647  0.68913  0.71287  Biso   1.000  Ag
  Ag20     1.0000 0.90715  0.70192  0.65645  Biso   1.000  Ag
  Ag21     1.0000 0.76298  0.76758  0.71055  Biso   1.000  Ag
  Ag22     1.0000 0.84416  0.77796  0.76866  Biso   1.000  Ag
  Ag23     1.0000 0.94312  0.82518  0.72745  Biso   1.000  Ag
  Ag24     1.0000 0.86030  0.83970  0.66268  Biso   1.000  Ag
  Ni13     1.0000 0.93488  0.54422  0.68659  Biso   1.000  Ni
  Ni14     1.0000 0.81226  0.92624  0.73227  Biso   1.000  Ni
  Ni15     1.0000 0.75241  0.73553  0.62710  Biso   1.000  Ni
  Ni16     1.0000 0.00407  0.74293  0.79525  Biso   1.000  Ni
  Ni17     1.0000 0.72645  0.66095  0.77076  Biso   1.000  Ni
  Ni18     1.0000 0.02693  0.81556  0.65471  Biso   1.000  Ni
  S25      1.0000 0.87087  0.57610  0.71366  Biso   1.000  S
  S26      1.0000 0.96660  0.62423  0.67521  Biso   1.000  S
  S27      1.0000 0.78349  0.84549  0.74471  Biso   1.000  S
  S28      1.0000 0.87917  0.89535  0.70655  Biso   1.000  S
  S29      1.0000 0.76776  0.79624  0.65944  Biso   1.000  S
  S30      1.0000 0.80934  0.67599  0.64416  Biso   1.000  S
  S31      1.0000 0.94262  0.79866  0.77940  Biso   1.000  S
  S32      1.0000 0.98666  0.67753  0.76540  Biso   1.000  S
  S33      1.0000 0.81145  0.68271  0.77777  Biso   1.000  S
  S34      1.0000 0.72919  0.67549  0.72583  Biso   1.000  S
  S35      1.0000 0.01955  0.78565  0.69756  Biso   1.000  S
  S36      1.0000 0.94405  0.79410  0.64264  Biso   1.000  S
  O53      1.0000 0.88520  0.38310  0.72300  Biso   1.000  O
  O54      1.0000 0.80040  0.39300  0.72480  Biso   1.000  O
  O55      1.0000 0.13190  0.54420  0.64161  Biso   1.000  O
  O56      1.0000 0.07220  0.47860  0.63042  Biso   1.000  O
  O57      1.0000 0.67600  0.98700  0.79194  Biso   1.000  O
  O58      1.0000 0.68750  0.91880  0.82270  Biso   1.000  O
  O59      1.0000 0.89060  0.08910  0.71150  Biso   1.000  O
  O60      1.0000 0.89950  0.07140  0.66300  Biso   1.000  O
  O61      1.0000 0.65840  0.92890  0.60970  Biso   1.000  O
  O62      1.0000 0.61350  0.85060  0.60441  Biso   1.000  O
  O63      1.0000 0.74500  0.61540  0.55420  Biso   1.000  O
  O64      1.0000 0.74920  0.54110  0.57770  Biso   1.000  O
  O65      1.0000 0.05020  0.88860  0.84960  Biso   1.000  O
  O66      1.0000 0.96510  0.91060  0.86250  Biso   1.000  O
  O67      1.0000 0.10850  0.61850  0.83878  Biso   1.000  O
  O68      1.0000 0.13250  0.56900  0.80245  Biso   1.000  O
  O69      1.0000 0.77670  0.70320  0.87615  Biso   1.000  O
  O70      1.0000 0.73300  0.62560  0.86482  Biso   1.000  O
  O71      1.0000 0.54610  0.62910  0.75670  Biso   1.000  O
  O72      1.0000 0.55560  0.58920  0.71380  Biso   1.000  O
  O73      1.0000 0.20140  0.86290  0.68429  Biso   1.000  O
  O74      1.0000 0.21340  0.78430  0.70622  Biso   1.000  O
  O75      1.0000 0.05150  0.84050  0.56093  Biso   1.000  O
  O76      1.0000 0.96920  0.87880  0.55239  Biso   1.000  O
  O77      1.0000 0.06670  0.58710  0.93706  Biso   1.000  O
  N25      1.0000 0.90660  0.47140  0.69434  Biso   1.000  N
  N26      1.0000 0.99450  0.51240  0.66503  Biso   1.000  N
  N27      1.0000 0.76100  0.95650  0.75947  Biso   1.000  N
  N28      1.0000 0.82930  0.99920  0.71856  Biso   1.000  N
  N29      1.0000 0.70280  0.78730  0.60988  Biso   1.000  N
  N30      1.0000 0.73430  0.68310  0.59837  Biso   1.000  N
  N31      1.0000 0.01880  0.79580  0.82435  Biso   1.000  N
  N32      1.0000 0.06410  0.69930  0.80904  Biso   1.000  N
  N33      1.0000 0.71670  0.65760  0.81148  Biso   1.000  N
  N34      1.0000 0.65380  0.63240  0.76635  Biso   1.000  N
  N35      1.0000 0.10340  0.82760  0.66133  Biso   1.000  N
  N36      1.0000 0.03710  0.84650  0.61743  Biso   1.000  N
  C125     1.0000 0.85250  0.46860  0.70720  Biso   1.000  C
  H175     1.0000 0.82430  0.47540  0.69290  Biso   1.000  H
  C126     1.0000 0.84780  0.51120  0.73084  Biso   1.000  C
  C127     1.0000 0.78860  0.51950  0.74150  Biso   1.000  C
  H176     1.0000 0.77600  0.48650  0.75040  Biso   1.000  H
  H177     1.0000 0.76510  0.52810  0.72580  Biso   1.000  H
  H178     1.0000 0.78780  0.54920  0.75480  Biso   1.000  H
  C128     1.0000 0.88440  0.49840  0.75550  Biso   1.000  C
  H179     1.0000 0.87240  0.46500  0.76430  Biso   1.000  H
  H180     1.0000 0.88270  0.52790  0.76890  Biso   1.000  H
  H181     1.0000 0.92150  0.49410  0.74900  Biso   1.000  H
  C129     1.0000 0.84410  0.41080  0.72030  Biso   1.000  C
  C130     1.0000 0.04230  0.54890  0.66188  Biso   1.000  C
  H182     1.0000 0.05840  0.55430  0.68070  Biso   1.000  H
  C131     1.0000 0.02340  0.60520  0.65105  Biso   1.000  C
  C132     1.0000 0.00170  0.60150  0.62104  Biso   1.000  C
  H183     1.0000 0.03110  0.59160  0.60850  Biso   1.000  H
  H184     1.0000 0.98700  0.63640  0.61550  Biso   1.000  H
  H185     1.0000 0.97340  0.57420  0.62010  Biso   1.000  H
  C133     1.0000 0.06620  0.64940  0.65290  Biso   1.000  C
  H186     1.0000 0.09620  0.64050  0.64060  Biso   1.000  H
  H187     1.0000 0.07920  0.65200  0.67200  Biso   1.000  H
  H188     1.0000 0.05040  0.68380  0.64730  Biso   1.000  H
  C134     1.0000 0.08650  0.52190  0.64280  Biso   1.000  C
  C135     1.0000 0.74430  0.91810  0.78062  Biso   1.000  C
  H189     1.0000 0.77640  0.91020  0.79240  Biso   1.000  H
  C136     1.0000 0.72500  0.86410  0.76792  Biso   1.000  C
  C137     1.0000 0.67420  0.87170  0.74937  Biso   1.000  C
  H190     1.0000 0.64340  0.88130  0.76100  Biso   1.000  H
  H191     1.0000 0.66650  0.83810  0.73960  Biso   1.000  H
  H192     1.0000 0.68080  0.90040  0.73590  Biso   1.000  H
  C138     1.0000 0.71850  0.81870  0.78976  Biso   1.000  C
  H193     1.0000 0.68840  0.82740  0.80210  Biso   1.000  H
  H194     1.0000 0.75160  0.81560  0.80060  Biso   1.000  H
  H195     1.0000 0.71130  0.78460  0.78030  Biso   1.000  H
  C139     1.0000 0.69800  0.94360  0.80080  Biso   1.000  C
  C140     1.0000 0.86770  0.99960  0.69370  Biso   1.000  C
  H196     1.0000 0.84700  0.98820  0.67700  Biso   1.000  H
  C141     1.0000 0.91410  0.96080  0.69753  Biso   1.000  C
  C142     1.0000 0.94820  0.95200  0.67176  Biso   1.000  C
  H197     1.0000 0.96680  0.98550  0.66700  Biso   1.000  H
  H198     1.0000 0.92510  0.94120  0.65630  Biso   1.000  H
  H199     1.0000 0.97480  0.92380  0.67530  Biso   1.000  H
  C143     1.0000 0.94930  0.97570  0.72280  Biso   1.000  C
  H200     1.0000 0.96840  0.00930  0.71910  Biso   1.000  H
  H201     1.0000 0.97530  0.94690  0.72630  Biso   1.000  H
  H202     1.0000 0.92630  0.98030  0.73910  Biso   1.000  H
  C144     1.0000 0.88640  0.06030  0.68920  Biso   1.000  C
  C145     1.0000 0.70590  0.84530  0.61968  Biso   1.000  C
  H203     1.0000 0.73820  0.86230  0.61090  Biso   1.000  H
  C146     1.0000 0.71350  0.84680  0.65141  Biso   1.000  C
  C147     1.0000 0.73210  0.90140  0.66350  Biso   1.000  C
  H204     1.0000 0.70480  0.92880  0.65970  Biso   1.000  H
  H205     1.0000 0.76620  0.91190  0.65490  Biso   1.000  H
  H206     1.0000 0.73720  0.89790  0.68350  Biso   1.000  H
  C148     1.0000 0.66110  0.82980  0.66640  Biso   1.000  C
  H207     1.0000 0.63260  0.85600  0.66240  Biso   1.000  H
  H208     1.0000 0.66740  0.82860  0.68640  Biso   1.000  H
  H209     1.0000 0.65000  0.79420  0.65990  Biso   1.000  H
  C149     1.0000 0.65460  0.87750  0.61010  Biso   1.000  C
  C150     1.0000 0.75140  0.62500  0.60430  Biso   1.000  C
  H210     1.0000 0.72680  0.60870  0.61840  Biso   1.000  H
  C151     1.0000 0.81130  0.62390  0.61544  Biso   1.000  C
  C152     1.0000 0.82930  0.57040  0.62780  Biso   1.000  C
  H211     1.0000 0.83070  0.54310  0.61320  Biso   1.000  H
  H212     1.0000 0.80370  0.55920  0.64210  Biso   1.000  H
  H213     1.0000 0.86510  0.57460  0.63610  Biso   1.000  H
  C153     1.0000 0.85140  0.64570  0.59300  Biso   1.000  C
  H214     1.0000 0.85400  0.61990  0.57770  Biso   1.000  H
  H215     1.0000 0.88700  0.65070  0.60130  Biso   1.000  H
  H216     1.0000 0.83830  0.68020  0.58580  Biso   1.000  H
  C154     1.0000 0.74950  0.59090  0.57650  Biso   1.000  C
  C155     1.0000 0.97470  0.83590  0.83006  Biso   1.000  C
  H217     1.0000 0.94520  0.81770  0.84060  Biso   1.000  H
  C156     1.0000 0.95140  0.85900  0.80293  Biso   1.000  C
  C157     1.0000 0.89640  0.88580  0.80750  Biso   1.000  C
  H218     1.0000 0.90060  0.91710  0.81960  Biso   1.000  H
  H219     1.0000 0.87170  0.86000  0.81610  Biso   1.000  H
  H220     1.0000 0.88170  0.89740  0.78960  Biso   1.000  H
  C158     1.0000 0.99130  0.89900  0.78805  Biso   1.000  C
  H221     1.0000 0.99650  0.93090  0.79970  Biso   1.000  H
  H222     1.0000 0.97620  0.90980  0.77020  Biso   1.000  H
  H223     1.0000 0.02590  0.88110  0.78510  Biso   1.000  H
  C159     1.0000 0.00030  0.88350  0.84916  Biso   1.000  C
  C160     1.0000 0.07860  0.64860  0.79301  Biso   1.000  C
  H224     1.0000 0.10260  0.65840  0.77720  Biso   1.000  H
  C161     1.0000 0.02510  0.62010  0.78109  Biso   1.000  C
  C162     1.0000 0.99300  0.59640  0.80520  Biso   1.000  C
  H225     1.0000 0.01310  0.56650  0.81340  Biso   1.000  H
  H226     1.0000 0.95820  0.58340  0.79840  Biso   1.000  H
  H227     1.0000 0.98710  0.62430  0.81920  Biso   1.000  H
  C163     1.0000 0.03880  0.58070  0.75778  Biso   1.000  C
  H228     1.0000 0.05900  0.55030  0.76540  Biso   1.000  H
  H229     1.0000 0.06070  0.59910  0.74380  Biso   1.000  H
  H230     1.0000 0.00560  0.56770  0.74920  Biso   1.000  H
  C164     1.0000 0.11060  0.60870  0.81350  Biso   1.000  C
  C165     1.0000 0.76170  0.68320  0.82789  Biso   1.000  C
  H231     1.0000 0.75860  0.72300  0.82550  Biso   1.000  H
  C166     1.0000 0.81800  0.66580  0.81604  Biso   1.000  C
  C167     1.0000 0.82780  0.60330  0.81930  Biso   1.000  C
  H232     1.0000 0.83140  0.59440  0.83890  Biso   1.000  H
  H233     1.0000 0.86080  0.59320  0.80950  Biso   1.000  H
  H234     1.0000 0.79730  0.58360  0.81140  Biso   1.000  H
  C168     1.0000 0.86500  0.69720  0.82814  Biso   1.000  C
  H235     1.0000 0.86860  0.68880  0.84790  Biso   1.000  H
  H236     1.0000 0.85850  0.73580  0.82590  Biso   1.000  H
  H237     1.0000 0.89820  0.68730  0.81840  Biso   1.000  H
  C169     1.0000 0.75470  0.67070  0.85930  Biso   1.000  C
  C170     1.0000 0.63890  0.62030  0.73650  Biso   1.000  C
  H238     1.0000 0.65610  0.58590  0.73050  Biso   1.000  H
  C171     1.0000 0.65640  0.66650  0.71690  Biso   1.000  C
  C172     1.0000 0.62660  0.72330  0.72390  Biso   1.000  C
  H239     1.0000 0.58830  0.72050  0.71940  Biso   1.000  H
  H240     1.0000 0.64290  0.75210  0.71290  Biso   1.000  H
  H241     1.0000 0.63080  0.73140  0.74370  Biso   1.000  H
  C173     1.0000 0.57350  0.61410  0.73580  Biso   1.000  C
  C174     1.0000 0.65150  0.65470  0.68590  Biso   1.000  C
  H242     1.0000 0.61350  0.65020  0.68100  Biso   1.000  H
  H243     1.0000 0.67120  0.62170  0.68150  Biso   1.000  H
  H244     1.0000 0.66660  0.68480  0.67530  Biso   1.000  H
  C175     1.0000 0.12550  0.79930  0.68707  Biso   1.000  C
  H245     1.0000 0.12700  0.75990  0.68300  Biso   1.000  H
  C176     1.0000 0.08710  0.80750  0.71115  Biso   1.000  C
  C177     1.0000 0.08390  0.86780  0.71898  Biso   1.000  C
  H246     1.0000 0.11880  0.87980  0.72610  Biso   1.000  H
  H247     1.0000 0.05630  0.87290  0.73320  Biso   1.000  H
  H248     1.0000 0.07450  0.88890  0.70250  Biso   1.000  H
  C178     1.0000 0.10140  0.77540  0.73699  Biso   1.000  C
  H249     1.0000 0.13650  0.78710  0.74390  Biso   1.000  H
  H250     1.0000 0.10290  0.73710  0.73240  Biso   1.000  H
  H251     1.0000 0.07410  0.78150  0.75120  Biso   1.000  H
  C179     1.0000 0.18570  0.81940  0.69295  Biso   1.000  C
  C180     1.0000 0.98720  0.85050  0.59913  Biso   1.000  C
  H252     1.0000 0.96680  0.88330  0.60490  Biso   1.000  H
  C181     1.0000 0.95030  0.80090  0.60402  Biso   1.000  C
  C182     1.0000 0.97590  0.75060  0.59240  Biso   1.000  C
  H253     1.0000 0.97910  0.75400  0.57220  Biso   1.000  H
  H254     1.0000 0.95350  0.71940  0.59690  Biso   1.000  H
  H255     1.0000 0.01170  0.74590  0.60040  Biso   1.000  H
  C183     1.0000 0.89270  0.81050  0.59240  Biso   1.000  C
  H256     1.0000 0.89450  0.81430  0.57220  Biso   1.000  H
  H257     1.0000 0.87780  0.84340  0.60040  Biso   1.000  H
  H258     1.0000 0.86970  0.77990  0.59710  Biso   1.000  H
  C184     1.0000 0.00430  0.85820  0.56890  Biso   1.000  C
  O78      1.0000 0.08630  0.66840  0.91450  Biso   1.000  O
  C185     1.0000 0.06230  0.63480  0.93730  Biso   1.000  C
  C186     1.0000 0.02860  0.66620  0.96360  Biso   1.000  C
  H259     1.0000 0.03800  0.64930  0.98130  Biso   1.000  H
  H260     1.0000 0.98980  0.66310  0.96050  Biso   1.000  H
  H261     1.0000 0.03870  0.70430  0.96410  Biso   1.000  H
  La4      1.0000 0.87847  0.41852  0.38724  Biso   1.000  La
  Ag25     1.0000 0.20674  0.37030  0.19115  Biso   1.000  Ag
  Ag26     1.0000 0.10745  0.35251  0.24987  Biso   1.000  Ag
  Ag27     1.0000 0.00353  0.31087  0.21287  Biso   1.000  Ag
  Ag28     1.0000 0.09285  0.29808  0.15645  Biso   1.000  Ag
  Ag29     1.0000 0.23702  0.23242  0.21055  Biso   1.000  Ag
  Ag30     1.0000 0.15584  0.22204  0.26866  Biso   1.000  Ag
  Ag31     1.0000 0.05688  0.17482  0.22745  Biso   1.000  Ag
  Ag32     1.0000 0.13970  0.16030  0.16268  Biso   1.000  Ag
  Ni19     1.0000 0.06512  0.45578  0.18659  Biso   1.000  Ni
  Ni20     1.0000 0.18774  0.07376  0.23227  Biso   1.000  Ni
  Ni21     1.0000 0.24759  0.26447  0.12710  Biso   1.000  Ni
  Ni22     1.0000 0.99593  0.25707  0.29525  Biso   1.000  Ni
  Ni23     1.0000 0.27355  0.33905  0.27076  Biso   1.000  Ni
  Ni24     1.0000 0.97307  0.18444  0.15471  Biso   1.000  Ni
  S37      1.0000 0.12913  0.42390  0.21366  Biso   1.000  S
  S38      1.0000 0.03340  0.37577  0.17521  Biso   1.000  S
  S39      1.0000 0.21651  0.15451  0.24471  Biso   1.000  S
  S40      1.0000 0.12083  0.10465  0.20655  Biso   1.000  S
  S41      1.0000 0.23224  0.20376  0.15944  Biso   1.000  S
  S42      1.0000 0.19066  0.32401  0.14416  Biso   1.000  S
  S43      1.0000 0.05738  0.20134  0.27940  Biso   1.000  S
  S44      1.0000 0.01334  0.32247  0.26540  Biso   1.000  S
  S45      1.0000 0.18855  0.31729  0.27777  Biso   1.000  S
  S46      1.0000 0.27081  0.32451  0.22583  Biso   1.000  S
  S47      1.0000 0.98045  0.21435  0.19756  Biso   1.000  S
  S48      1.0000 0.05595  0.20590  0.14264  Biso   1.000  S
  O79      1.0000 0.11480  0.61690  0.22300  Biso   1.000  O
  O80      1.0000 0.19960  0.60700  0.22480  Biso   1.000  O
  O81      1.0000 0.86810  0.45580  0.14161  Biso   1.000  O
  O82      1.0000 0.92780  0.52140  0.13042  Biso   1.000  O
  O83      1.0000 0.32400  0.01300  0.29194  Biso   1.000  O
  O84      1.0000 0.31250  0.08120  0.32270  Biso   1.000  O
  O85      1.0000 0.10940  0.91090  0.21150  Biso   1.000  O
  O86      1.0000 0.10050  0.92860  0.16300  Biso   1.000  O
  O87      1.0000 0.34160  0.07110  0.10970  Biso   1.000  O
  O88      1.0000 0.38650  0.14940  0.10441  Biso   1.000  O
  O89      1.0000 0.25500  0.38460  0.05420  Biso   1.000  O
  O90      1.0000 0.25080  0.45890  0.07770  Biso   1.000  O
  O91      1.0000 0.94980  0.11140  0.34960  Biso   1.000  O
  O92      1.0000 0.03490  0.08940  0.36250  Biso   1.000  O
  O93      1.0000 0.89150  0.38150  0.33878  Biso   1.000  O
  O94      1.0000 0.86750  0.43100  0.30245  Biso   1.000  O
  O95      1.0000 0.22330  0.29680  0.37615  Biso   1.000  O
  O96      1.0000 0.26700  0.37440  0.36482  Biso   1.000  O
  O97      1.0000 0.45390  0.37090  0.25670  Biso   1.000  O
  O98      1.0000 0.44440  0.41080  0.21380  Biso   1.000  O
  O99      1.0000 0.79860  0.13710  0.18429  Biso   1.000  O
  O100     1.0000 0.78660  0.21570  0.20622  Biso   1.000  O
  O101     1.0000 0.94850  0.15950  0.06093  Biso   1.000  O
  O102     1.0000 0.03080  0.12120  0.05239  Biso   1.000  O
  O103     1.0000 0.93330  0.41290  0.43706  Biso   1.000  O
  N37      1.0000 0.09340  0.52860  0.19434  Biso   1.000  N
  N38      1.0000 0.00550  0.48760  0.16503  Biso   1.000  N
  N39      1.0000 0.23900  0.04350  0.25947  Biso   1.000  N
  N40      1.0000 0.17070  0.00080  0.21856  Biso   1.000  N
  N41      1.0000 0.29720  0.21270  0.10988  Biso   1.000  N
  N42      1.0000 0.26570  0.31690  0.09837  Biso   1.000  N
  N43      1.0000 0.98120  0.20420  0.32435  Biso   1.000  N
  N44      1.0000 0.93590  0.30070  0.30904  Biso   1.000  N
  N45      1.0000 0.28330  0.34240  0.31148  Biso   1.000  N
  N46      1.0000 0.34620  0.36760  0.26635  Biso   1.000  N
  N47      1.0000 0.89660  0.17240  0.16133  Biso   1.000  N
  N48      1.0000 0.96290  0.15350  0.11743  Biso   1.000  N
  C187     1.0000 0.14750  0.53140  0.20720  Biso   1.000  C
  H262     1.0000 0.17570  0.52460  0.19290  Biso   1.000  H
  C188     1.0000 0.15220  0.48880  0.23084  Biso   1.000  C
  C189     1.0000 0.21140  0.48050  0.24150  Biso   1.000  C
  H263     1.0000 0.22400  0.51350  0.25040  Biso   1.000  H
  H264     1.0000 0.23490  0.47190  0.22580  Biso   1.000  H
  H265     1.0000 0.21220  0.45080  0.25480  Biso   1.000  H
  C190     1.0000 0.11560  0.50160  0.25550  Biso   1.000  C
  H266     1.0000 0.12760  0.53500  0.26430  Biso   1.000  H
  H267     1.0000 0.11730  0.47210  0.26890  Biso   1.000  H
  H268     1.0000 0.07850  0.50590  0.24900  Biso   1.000  H
  C191     1.0000 0.15590  0.58920  0.22030  Biso   1.000  C
  C192     1.0000 0.95770  0.45110  0.16188  Biso   1.000  C
  H269     1.0000 0.94160  0.44570  0.18070  Biso   1.000  H
  C193     1.0000 0.97660  0.39480  0.15105  Biso   1.000  C
  C194     1.0000 0.99830  0.39850  0.12104  Biso   1.000  C
  H270     1.0000 0.96890  0.40840  0.10850  Biso   1.000  H
  H271     1.0000 0.01300  0.36360  0.11550  Biso   1.000  H
  H272     1.0000 0.02660  0.42580  0.12010  Biso   1.000  H
  C195     1.0000 0.93380  0.35060  0.15290  Biso   1.000  C
  H273     1.0000 0.90380  0.35950  0.14060  Biso   1.000  H
  H274     1.0000 0.92080  0.34800  0.17200  Biso   1.000  H
  H275     1.0000 0.94960  0.31620  0.14730  Biso   1.000  H
  C196     1.0000 0.91350  0.47810  0.14280  Biso   1.000  C
  C197     1.0000 0.25570  0.08190  0.28062  Biso   1.000  C
  H276     1.0000 0.22360  0.08980  0.29240  Biso   1.000  H
  C198     1.0000 0.27500  0.13590  0.26792  Biso   1.000  C
  C199     1.0000 0.32580  0.12830  0.24937  Biso   1.000  C
  H277     1.0000 0.35660  0.11870  0.26100  Biso   1.000  H
  H278     1.0000 0.33350  0.16190  0.23960  Biso   1.000  H
  H279     1.0000 0.31920  0.09960  0.23590  Biso   1.000  H
  C200     1.0000 0.28150  0.18130  0.28976  Biso   1.000  C
  H280     1.0000 0.31160  0.17260  0.30210  Biso   1.000  H
  H281     1.0000 0.24840  0.18440  0.30060  Biso   1.000  H
  H282     1.0000 0.28870  0.21540  0.28030  Biso   1.000  H
  C201     1.0000 0.30200  0.05640  0.30080  Biso   1.000  C
  C202     1.0000 0.13230  0.00040  0.19370  Biso   1.000  C
  H283     1.0000 0.15300  0.01180  0.17700  Biso   1.000  H
  C203     1.0000 0.08590  0.03920  0.19753  Biso   1.000  C
  C204     1.0000 0.05180  0.04800  0.17176  Biso   1.000  C
  H284     1.0000 0.03320  0.01450  0.16700  Biso   1.000  H
  H285     1.0000 0.07490  0.05880  0.15630  Biso   1.000  H
  H286     1.0000 0.02520  0.07620  0.17530  Biso   1.000  H
  C205     1.0000 0.05070  0.02430  0.22280  Biso   1.000  C
  H287     1.0000 0.03160  0.99070  0.21910  Biso   1.000  H
  H288     1.0000 0.02470  0.05310  0.22630  Biso   1.000  H
  H289     1.0000 0.07370  0.01970  0.23910  Biso   1.000  H
  C206     1.0000 0.11360  0.93970  0.18920  Biso   1.000  C
  C207     1.0000 0.29410  0.15470  0.11968  Biso   1.000  C
  H290     1.0000 0.26180  0.13770  0.11090  Biso   1.000  H
  C208     1.0000 0.28650  0.15320  0.15141  Biso   1.000  C
  C209     1.0000 0.26790  0.09860  0.16350  Biso   1.000  C
  H291     1.0000 0.29520  0.07120  0.15970  Biso   1.000  H
  H292     1.0000 0.23380  0.08810  0.15490  Biso   1.000  H
  H293     1.0000 0.26280  0.10210  0.18350  Biso   1.000  H
  C210     1.0000 0.33890  0.17020  0.16640  Biso   1.000  C
  H294     1.0000 0.36740  0.14400  0.16240  Biso   1.000  H
  H295     1.0000 0.33260  0.17140  0.18640  Biso   1.000  H
  H296     1.0000 0.35000  0.20580  0.15990  Biso   1.000  H
  C211     1.0000 0.34540  0.12250  0.11010  Biso   1.000  C
  C212     1.0000 0.24860  0.37500  0.10430  Biso   1.000  C
  H297     1.0000 0.27320  0.39130  0.11840  Biso   1.000  H
  C213     1.0000 0.18870  0.37610  0.11544  Biso   1.000  C
  C214     1.0000 0.17070  0.42960  0.12780  Biso   1.000  C
  H298     1.0000 0.16930  0.45690  0.11320  Biso   1.000  H
  H299     1.0000 0.19630  0.44080  0.14210  Biso   1.000  H
  H300     1.0000 0.13490  0.42540  0.13610  Biso   1.000  H
  C215     1.0000 0.14860  0.35430  0.09300  Biso   1.000  C
  H301     1.0000 0.14600  0.38010  0.07770  Biso   1.000  H
  H302     1.0000 0.11300  0.34930  0.10130  Biso   1.000  H
  H303     1.0000 0.16170  0.31980  0.08580  Biso   1.000  H
  C216     1.0000 0.25050  0.40910  0.07650  Biso   1.000  C
  C217     1.0000 0.02530  0.16410  0.33006  Biso   1.000  C
  H304     1.0000 0.05480  0.18230  0.34060  Biso   1.000  H
  C218     1.0000 0.04860  0.14100  0.30293  Biso   1.000  C
  C219     1.0000 0.10360  0.11420  0.30750  Biso   1.000  C
  H305     1.0000 0.09940  0.08290  0.31960  Biso   1.000  H
  H306     1.0000 0.12830  0.14000  0.31610  Biso   1.000  H
  H307     1.0000 0.11830  0.10260  0.28960  Biso   1.000  H
  C220     1.0000 0.00870  0.10100  0.28805  Biso   1.000  C
  H308     1.0000 0.00350  0.06910  0.29970  Biso   1.000  H
  H309     1.0000 0.02380  0.09020  0.27020  Biso   1.000  H
  H310     1.0000 0.97410  0.11890  0.28510  Biso   1.000  H
  C221     1.0000 0.99970  0.11650  0.34916  Biso   1.000  C
  C222     1.0000 0.92140  0.35140  0.29301  Biso   1.000  C
  H311     1.0000 0.89740  0.34160  0.27720  Biso   1.000  H
  C223     1.0000 0.97490  0.37990  0.28109  Biso   1.000  C
  C224     1.0000 0.00700  0.40360  0.30520  Biso   1.000  C
  H312     1.0000 0.98690  0.43350  0.31340  Biso   1.000  H
  H313     1.0000 0.04180  0.41660  0.29840  Biso   1.000  H
  H314     1.0000 0.01290  0.37570  0.31920  Biso   1.000  H
  C225     1.0000 0.96120  0.41930  0.25778  Biso   1.000  C
  H315     1.0000 0.94100  0.44970  0.26540  Biso   1.000  H
  H316     1.0000 0.93930  0.40090  0.24380  Biso   1.000  H
  H317     1.0000 0.99440  0.43230  0.24920  Biso   1.000  H
  C226     1.0000 0.88940  0.39130  0.31350  Biso   1.000  C
  C227     1.0000 0.23830  0.31680  0.32789  Biso   1.000  C
  H318     1.0000 0.24140  0.27700  0.32550  Biso   1.000  H
  C228     1.0000 0.18200  0.33420  0.31604  Biso   1.000  C
  C229     1.0000 0.17220  0.39670  0.31930  Biso   1.000  C
  H319     1.0000 0.16860  0.40560  0.33890  Biso   1.000  H
  H320     1.0000 0.13920  0.40680  0.30950  Biso   1.000  H
  H321     1.0000 0.20270  0.41640  0.31140  Biso   1.000  H
  C230     1.0000 0.13500  0.30280  0.32814  Biso   1.000  C
  H322     1.0000 0.13140  0.31120  0.34790  Biso   1.000  H
  H323     1.0000 0.14150  0.26420  0.32590  Biso   1.000  H
  H324     1.0000 0.10180  0.31270  0.31840  Biso   1.000  H
  C231     1.0000 0.24530  0.32930  0.35930  Biso   1.000  C
  C232     1.0000 0.36110  0.37970  0.23650  Biso   1.000  C
  H325     1.0000 0.34390  0.41410  0.23050  Biso   1.000  H
  C233     1.0000 0.34360  0.33350  0.21690  Biso   1.000  C
  C234     1.0000 0.37340  0.27670  0.22390  Biso   1.000  C
  H326     1.0000 0.41170  0.27950  0.21940  Biso   1.000  H
  H327     1.0000 0.35710  0.24790  0.21290  Biso   1.000  H
  H328     1.0000 0.36920  0.26860  0.24370  Biso   1.000  H
  C235     1.0000 0.42650  0.38590  0.23580  Biso   1.000  C
  C236     1.0000 0.34850  0.34530  0.18590  Biso   1.000  C
  H329     1.0000 0.38650  0.34980  0.18100  Biso   1.000  H
  H330     1.0000 0.32880  0.37830  0.18150  Biso   1.000  H
  H331     1.0000 0.33340  0.31520  0.17530  Biso   1.000  H
  C237     1.0000 0.87450  0.20070  0.18707  Biso   1.000  C
  H332     1.0000 0.87300  0.24010  0.18300  Biso   1.000  H
  C238     1.0000 0.91290  0.19250  0.21115  Biso   1.000  C
  C239     1.0000 0.91610  0.13220  0.21898  Biso   1.000  C
  H333     1.0000 0.88120  0.12020  0.22610  Biso   1.000  H
  H334     1.0000 0.94370  0.12710  0.23320  Biso   1.000  H
  H335     1.0000 0.92550  0.11110  0.20250  Biso   1.000  H
  C240     1.0000 0.89860  0.22460  0.23699  Biso   1.000  C
  H336     1.0000 0.86350  0.21290  0.24390  Biso   1.000  H
  H337     1.0000 0.89710  0.26290  0.23240  Biso   1.000  H
  H338     1.0000 0.92590  0.21850  0.25120  Biso   1.000  H
  C241     1.0000 0.81430  0.18060  0.19295  Biso   1.000  C
  C242     1.0000 0.01280  0.14950  0.09913  Biso   1.000  C
  H339     1.0000 0.03320  0.11670  0.10490  Biso   1.000  H
  C243     1.0000 0.04970  0.19910  0.10402  Biso   1.000  C
  C244     1.0000 0.02410  0.24940  0.09240  Biso   1.000  C
  H340     1.0000 0.02090  0.24600  0.07220  Biso   1.000  H
  H341     1.0000 0.04650  0.28060  0.09690  Biso   1.000  H
  H342     1.0000 0.98830  0.25410  0.10040  Biso   1.000  H
  C245     1.0000 0.10730  0.18950  0.09240  Biso   1.000  C
  H343     1.0000 0.10550  0.18570  0.07220  Biso   1.000  H
  H344     1.0000 0.12220  0.15660  0.10040  Biso   1.000  H
  H345     1.0000 0.13030  0.22010  0.09710  Biso   1.000  H
  C246     1.0000 0.99570  0.14180  0.06890  Biso   1.000  C
  O104     1.0000 0.91370  0.33160  0.41450  Biso   1.000  O
  C247     1.0000 0.93770  0.36520  0.43730  Biso   1.000  C
  C248     1.0000 0.97140  0.33380  0.46360  Biso   1.000  C
  H346     1.0000 0.96200  0.35070  0.48130  Biso   1.000  H
  H347     1.0000 0.01020  0.33690  0.46050  Biso   1.000  H
  H348     1.0000 0.96130  0.29570  0.46410  Biso   1.000  H
  La5      1.0000 0.41852  0.87847  0.61276  Biso   1.000  La
  Ag33     1.0000 0.37030  0.20674  0.80885  Biso   1.000  Ag
  Ag34     1.0000 0.35251  0.10745  0.75013  Biso   1.000  Ag
  Ag35     1.0000 0.31087  0.00353  0.78713  Biso   1.000  Ag
  Ag36     1.0000 0.29808  0.09285  0.84355  Biso   1.000  Ag
  Ag37     1.0000 0.23242  0.23702  0.78945  Biso   1.000  Ag
  Ag38     1.0000 0.22204  0.15584  0.73134  Biso   1.000  Ag
  Ag39     1.0000 0.17482  0.05688  0.77255  Biso   1.000  Ag
  Ag40     1.0000 0.16030  0.13970  0.83732  Biso   1.000  Ag
  Ni25     1.0000 0.45578  0.06512  0.81341  Biso   1.000  Ni
  Ni26     1.0000 0.07376  0.18774  0.76773  Biso   1.000  Ni
  Ni27     1.0000 0.26447  0.24759  0.87290  Biso   1.000  Ni
  Ni28     1.0000 0.25707  0.99593  0.70475  Biso   1.000  Ni
  Ni29     1.0000 0.33905  0.27355  0.72924  Biso   1.000  Ni
  Ni30     1.0000 0.18444  0.97307  0.84529  Biso   1.000  Ni
  S49      1.0000 0.42390  0.12913  0.78634  Biso   1.000  S
  S50      1.0000 0.37577  0.03340  0.82479  Biso   1.000  S
  S51      1.0000 0.15451  0.21651  0.75529  Biso   1.000  S
  S52      1.0000 0.10465  0.12083  0.79345  Biso   1.000  S
  S53      1.0000 0.20376  0.23224  0.84056  Biso   1.000  S
  S54      1.0000 0.32401  0.19066  0.85584  Biso   1.000  S
  S55      1.0000 0.20134  0.05738  0.72060  Biso   1.000  S
  S56      1.0000 0.32247  0.01334  0.73460  Biso   1.000  S
  S57      1.0000 0.31729  0.18855  0.72223  Biso   1.000  S
  S58      1.0000 0.32451  0.27081  0.77417  Biso   1.000  S
  S59      1.0000 0.21435  0.98045  0.80244  Biso   1.000  S
  S60      1.0000 0.20590  0.05595  0.85736  Biso   1.000  S
  O105     1.0000 0.61690  0.11480  0.77700  Biso   1.000  O
  O106     1.0000 0.60700  0.19960  0.77520  Biso   1.000  O
  O107     1.0000 0.45580  0.86810  0.85839  Biso   1.000  O
  O108     1.0000 0.52140  0.92780  0.86958  Biso   1.000  O
  O109     1.0000 0.01300  0.32400  0.70806  Biso   1.000  O
  O110     1.0000 0.08120  0.31250  0.67730  Biso   1.000  O
  O111     1.0000 0.91090  0.10940  0.78850  Biso   1.000  O
  O112     1.0000 0.92860  0.10050  0.83700  Biso   1.000  O
  O113     1.0000 0.07110  0.34160  0.89030  Biso   1.000  O
  O114     1.0000 0.14940  0.38650  0.89559  Biso   1.000  O
  O115     1.0000 0.38460  0.25500  0.94580  Biso   1.000  O
  O116     1.0000 0.45890  0.25080  0.92230  Biso   1.000  O
  O117     1.0000 0.11140  0.94980  0.65040  Biso   1.000  O
  O118     1.0000 0.08940  0.03490  0.63750  Biso   1.000  O
  O119     1.0000 0.38150  0.89150  0.66122  Biso   1.000  O
  O120     1.0000 0.43100  0.86750  0.69755  Biso   1.000  O
  O121     1.0000 0.29680  0.22330  0.62385  Biso   1.000  O
  O122     1.0000 0.37440  0.26700  0.63518  Biso   1.000  O
  O123     1.0000 0.37090  0.45390  0.74330  Biso   1.000  O
  O124     1.0000 0.41080  0.44440  0.78620  Biso   1.000  O
  O125     1.0000 0.13710  0.79860  0.81571  Biso   1.000  O
  O126     1.0000 0.21570  0.78660  0.79378  Biso   1.000  O
  O127     1.0000 0.15950  0.94850  0.93907  Biso   1.000  O
  O128     1.0000 0.12120  0.03080  0.94761  Biso   1.000  O
  O129     1.0000 0.41290  0.93330  0.56294  Biso   1.000  O
  N49      1.0000 0.52860  0.09340  0.80566  Biso   1.000  N
  N50      1.0000 0.48760  0.00550  0.83497  Biso   1.000  N
  N51      1.0000 0.04350  0.23900  0.74053  Biso   1.000  N
  N52      1.0000 0.00080  0.17070  0.78144  Biso   1.000  N
  N53      1.0000 0.21270  0.29720  0.89012  Biso   1.000  N
  N54      1.0000 0.31690  0.26570  0.90163  Biso   1.000  N
  N55      1.0000 0.20420  0.98120  0.67565  Biso   1.000  N
  N56      1.0000 0.30070  0.93590  0.69096  Biso   1.000  N
  N57      1.0000 0.34240  0.28330  0.68852  Biso   1.000  N
  N58      1.0000 0.36760  0.34620  0.73365  Biso   1.000  N
  N59      1.0000 0.17240  0.89660  0.83867  Biso   1.000  N
  N60      1.0000 0.15350  0.96290  0.88257  Biso   1.000  N
  C249     1.0000 0.53140  0.14750  0.79280  Biso   1.000  C
  H349     1.0000 0.52460  0.17570  0.80710  Biso   1.000  H
  C250     1.0000 0.48880  0.15220  0.76916  Biso   1.000  C
  C251     1.0000 0.48050  0.21140  0.75850  Biso   1.000  C
  H350     1.0000 0.51350  0.22400  0.74960  Biso   1.000  H
  H351     1.0000 0.47190  0.23490  0.77420  Biso   1.000  H
  H352     1.0000 0.45080  0.21220  0.74520  Biso   1.000  H
  C252     1.0000 0.50160  0.11560  0.74450  Biso   1.000  C
  H353     1.0000 0.53500  0.12760  0.73570  Biso   1.000  H
  H354     1.0000 0.47210  0.11730  0.73110  Biso   1.000  H
  H355     1.0000 0.50590  0.07850  0.75100  Biso   1.000  H
  C253     1.0000 0.58920  0.15590  0.77970  Biso   1.000  C
  C254     1.0000 0.45110  0.95770  0.83812  Biso   1.000  C
  H356     1.0000 0.44570  0.94160  0.81930  Biso   1.000  H
  C255     1.0000 0.39480  0.97660  0.84895  Biso   1.000  C
  C256     1.0000 0.39850  0.99830  0.87896  Biso   1.000  C
  H357     1.0000 0.40840  0.96890  0.89150  Biso   1.000  H
  H358     1.0000 0.36360  0.01300  0.88450  Biso   1.000  H
  H359     1.0000 0.42580  0.02660  0.87990  Biso   1.000  H
  C257     1.0000 0.35060  0.93380  0.84710  Biso   1.000  C
  H360     1.0000 0.35950  0.90380  0.85940  Biso   1.000  H
  H361     1.0000 0.34800  0.92080  0.82800  Biso   1.000  H
  H362     1.0000 0.31620  0.94960  0.85270  Biso   1.000  H
  C258     1.0000 0.47810  0.91350  0.85720  Biso   1.000  C
  C259     1.0000 0.08190  0.25570  0.71938  Biso   1.000  C
  H363     1.0000 0.08980  0.22360  0.70760  Biso   1.000  H
  C260     1.0000 0.13590  0.27500  0.73208  Biso   1.000  C
  C261     1.0000 0.12830  0.32580  0.75063  Biso   1.000  C
  H364     1.0000 0.11870  0.35660  0.73900  Biso   1.000  H
  H365     1.0000 0.16190  0.33350  0.76040  Biso   1.000  H
  H366     1.0000 0.09960  0.31920  0.76410  Biso   1.000  H
  C262     1.0000 0.18130  0.28150  0.71024  Biso   1.000  C
  H367     1.0000 0.17260  0.31160  0.69790  Biso   1.000  H
  H368     1.0000 0.18440  0.24840  0.69940  Biso   1.000  H
  H369     1.0000 0.21540  0.28870  0.71970  Biso   1.000  H
  C263     1.0000 0.05640  0.30200  0.69920  Biso   1.000  C
  C264     1.0000 0.00040  0.13230  0.80630  Biso   1.000  C
  H370     1.0000 0.01180  0.15300  0.82300  Biso   1.000  H
  C265     1.0000 0.03920  0.08590  0.80247  Biso   1.000  C
  C266     1.0000 0.04800  0.05180  0.82824  Biso   1.000  C
  H371     1.0000 0.01450  0.03320  0.83300  Biso   1.000  H
  H372     1.0000 0.05880  0.07490  0.84370  Biso   1.000  H
  H373     1.0000 0.07620  0.02520  0.82470  Biso   1.000  H
  C267     1.0000 0.02430  0.05070  0.77720  Biso   1.000  C
  H374     1.0000 0.99070  0.03160  0.78090  Biso   1.000  H
  H375     1.0000 0.05310  0.02470  0.77370  Biso   1.000  H
  H376     1.0000 0.01970  0.07370  0.76090  Biso   1.000  H
  C268     1.0000 0.93970  0.11360  0.81080  Biso   1.000  C
  C269     1.0000 0.15470  0.29410  0.88032  Biso   1.000  C
  H377     1.0000 0.13770  0.26180  0.88910  Biso   1.000  H
  C270     1.0000 0.15320  0.28650  0.84859  Biso   1.000  C
  C271     1.0000 0.09860  0.26790  0.83650  Biso   1.000  C
  H378     1.0000 0.07120  0.29520  0.84030  Biso   1.000  H
  H379     1.0000 0.08810  0.23380  0.84510  Biso   1.000  H
  H380     1.0000 0.10210  0.26280  0.81650  Biso   1.000  H
  C272     1.0000 0.17020  0.33890  0.83360  Biso   1.000  C
  H381     1.0000 0.14400  0.36740  0.83760  Biso   1.000  H
  H382     1.0000 0.17140  0.33260  0.81360  Biso   1.000  H
  H383     1.0000 0.20580  0.35000  0.84010  Biso   1.000  H
  C273     1.0000 0.12250  0.34540  0.88990  Biso   1.000  C
  C274     1.0000 0.37500  0.24860  0.89570  Biso   1.000  C
  H384     1.0000 0.39130  0.27320  0.88160  Biso   1.000  H
  C275     1.0000 0.37610  0.18870  0.88456  Biso   1.000  C
  C276     1.0000 0.42960  0.17070  0.87220  Biso   1.000  C
  H385     1.0000 0.45690  0.16930  0.88680  Biso   1.000  H
  H386     1.0000 0.44080  0.19630  0.85790  Biso   1.000  H
  H387     1.0000 0.42540  0.13490  0.86390  Biso   1.000  H
  C277     1.0000 0.35430  0.14860  0.90700  Biso   1.000  C
  H388     1.0000 0.38010  0.14600  0.92230  Biso   1.000  H
  H389     1.0000 0.34930  0.11300  0.89870  Biso   1.000  H
  H390     1.0000 0.31980  0.16170  0.91420  Biso   1.000  H
  C278     1.0000 0.40910  0.25050  0.92350  Biso   1.000  C
  C279     1.0000 0.16410  0.02530  0.66994  Biso   1.000  C
  H391     1.0000 0.18230  0.05480  0.65940  Biso   1.000  H
  C280     1.0000 0.14100  0.04860  0.69707  Biso   1.000  C
  C281     1.0000 0.11420  0.10360  0.69250  Biso   1.000  C
  H392     1.0000 0.08290  0.09940  0.68040  Biso   1.000  H
  H393     1.0000 0.14000  0.12830  0.68390  Biso   1.000  H
  H394     1.0000 0.10260  0.11830  0.71040  Biso   1.000  H
  C282     1.0000 0.10100  0.00870  0.71195  Biso   1.000  C
  H395     1.0000 0.06910  0.00350  0.70030  Biso   1.000  H
  H396     1.0000 0.09020  0.02380  0.72980  Biso   1.000  H
  H397     1.0000 0.11890  0.97410  0.71490  Biso   1.000  H
  C283     1.0000 0.11650  0.99970  0.65084  Biso   1.000  C
  C284     1.0000 0.35140  0.92140  0.70699  Biso   1.000  C
  H398     1.0000 0.34160  0.89740  0.72280  Biso   1.000  H
  C285     1.0000 0.37990  0.97490  0.71891  Biso   1.000  C
  C286     1.0000 0.40360  0.00700  0.69480  Biso   1.000  C
  H399     1.0000 0.43350  0.98690  0.68660  Biso   1.000  H
  H400     1.0000 0.41660  0.04180  0.70160  Biso   1.000  H
  H401     1.0000 0.37570  0.01290  0.68080  Biso   1.000  H
  C287     1.0000 0.41930  0.96120  0.74222  Biso   1.000  C
  H402     1.0000 0.44970  0.94100  0.73460  Biso   1.000  H
  H403     1.0000 0.40090  0.93930  0.75620  Biso   1.000  H
  H404     1.0000 0.43230  0.99440  0.75080  Biso   1.000  H
  C288     1.0000 0.39130  0.88940  0.68650  Biso   1.000  C
  C289     1.0000 0.31680  0.23830  0.67211  Biso   1.000  C
  H405     1.0000 0.27700  0.24140  0.67450  Biso   1.000  H
  C290     1.0000 0.33420  0.18200  0.68396  Biso   1.000  C
  C291     1.0000 0.39670  0.17220  0.68070  Biso   1.000  C
  H406     1.0000 0.40560  0.16860  0.66110  Biso   1.000  H
  H407     1.0000 0.40680  0.13920  0.69050  Biso   1.000  H
  H408     1.0000 0.41640  0.20270  0.68860  Biso   1.000  H
  C292     1.0000 0.30280  0.13500  0.67186  Biso   1.000  C
  H409     1.0000 0.31120  0.13140  0.65210  Biso   1.000  H
  H410     1.0000 0.26420  0.14150  0.67410  Biso   1.000  H
  H411     1.0000 0.31270  0.10180  0.68160  Biso   1.000  H
  C293     1.0000 0.32930  0.24530  0.64070  Biso   1.000  C
  C294     1.0000 0.37970  0.36110  0.76350  Biso   1.000  C
  H412     1.0000 0.41410  0.34390  0.76950  Biso   1.000  H
  C295     1.0000 0.33350  0.34360  0.78310  Biso   1.000  C
  C296     1.0000 0.27670  0.37340  0.77610  Biso   1.000  C
  H413     1.0000 0.27950  0.41170  0.78060  Biso   1.000  H
  H414     1.0000 0.24790  0.35710  0.78710  Biso   1.000  H
  H415     1.0000 0.26860  0.36920  0.75630  Biso   1.000  H
  C297     1.0000 0.38590  0.42650  0.76420  Biso   1.000  C
  C298     1.0000 0.34530  0.34850  0.81410  Biso   1.000  C
  H416     1.0000 0.34980  0.38650  0.81900  Biso   1.000  H
  H417     1.0000 0.37830  0.32880  0.81850  Biso   1.000  H
  H418     1.0000 0.31520  0.33340  0.82470  Biso   1.000  H
  C299     1.0000 0.20070  0.87450  0.81293  Biso   1.000  C
  H419     1.0000 0.24010  0.87300  0.81700  Biso   1.000  H
  C300     1.0000 0.19250  0.91290  0.78885  Biso   1.000  C
  C301     1.0000 0.13220  0.91610  0.78102  Biso   1.000  C
  H420     1.0000 0.12020  0.88120  0.77390  Biso   1.000  H
  H421     1.0000 0.12710  0.94370  0.76680  Biso   1.000  H
  H422     1.0000 0.11110  0.92550  0.79750  Biso   1.000  H
  C302     1.0000 0.22460  0.89860  0.76301  Biso   1.000  C
  H423     1.0000 0.21290  0.86350  0.75610  Biso   1.000  H
  H424     1.0000 0.26290  0.89710  0.76760  Biso   1.000  H
  H425     1.0000 0.21850  0.92590  0.74880  Biso   1.000  H
  C303     1.0000 0.18060  0.81430  0.80705  Biso   1.000  C
  C304     1.0000 0.14950  0.01280  0.90087  Biso   1.000  C
  H426     1.0000 0.11670  0.03320  0.89510  Biso   1.000  H
  C305     1.0000 0.19910  0.04970  0.89598  Biso   1.000  C
  C306     1.0000 0.24940  0.02410  0.90760  Biso   1.000  C
  H427     1.0000 0.24600  0.02090  0.92780  Biso   1.000  H
  H428     1.0000 0.28060  0.04650  0.90310  Biso   1.000  H
  H429     1.0000 0.25410  0.98830  0.89960  Biso   1.000  H
  C307     1.0000 0.18950  0.10730  0.90760  Biso   1.000  C
  H430     1.0000 0.18570  0.10550  0.92780  Biso   1.000  H
  H431     1.0000 0.15660  0.12220  0.89960  Biso   1.000  H
  H432     1.0000 0.22010  0.13030  0.90290  Biso   1.000  H
  C308     1.0000 0.14180  0.99570  0.93110  Biso   1.000  C
  O130     1.0000 0.33160  0.91370  0.58550  Biso   1.000  O
  C309     1.0000 0.36520  0.93770  0.56270  Biso   1.000  C
  C310     1.0000 0.33380  0.97140  0.53640  Biso   1.000  C
  H433     1.0000 0.35070  0.96200  0.51870  Biso   1.000  H
  H434     1.0000 0.33690  0.01020  0.53950  Biso   1.000  H
  H435     1.0000 0.29570  0.96130  0.53590  Biso   1.000  H
  La6      1.0000 0.58148  0.12153  0.11276  Biso   1.000  La
  Ag41     1.0000 0.62970  0.79326  0.30885  Biso   1.000  Ag
  Ag42     1.0000 0.64749  0.89255  0.25013  Biso   1.000  Ag
  Ag43     1.0000 0.68913  0.99647  0.28713  Biso   1.000  Ag
  Ag44     1.0000 0.70192  0.90715  0.34355  Biso   1.000  Ag
  Ag45     1.0000 0.76758  0.76298  0.28945  Biso   1.000  Ag
  Ag46     1.0000 0.77796  0.84416  0.23134  Biso   1.000  Ag
  Ag47     1.0000 0.82518  0.94312  0.27255  Biso   1.000  Ag
  Ag48     1.0000 0.83970  0.86030  0.33732  Biso   1.000  Ag
  Ni31     1.0000 0.54422  0.93488  0.31341  Biso   1.000  Ni
  Ni32     1.0000 0.92624  0.81226  0.26773  Biso   1.000  Ni
  Ni33     1.0000 0.73553  0.75241  0.37290  Biso   1.000  Ni
  Ni34     1.0000 0.74293  0.00407  0.20475  Biso   1.000  Ni
  Ni35     1.0000 0.66095  0.72645  0.22924  Biso   1.000  Ni
  Ni36     1.0000 0.81556  0.02693  0.34529  Biso   1.000  Ni
  S61      1.0000 0.57610  0.87087  0.28634  Biso   1.000  S
  S62      1.0000 0.62423  0.96660  0.32479  Biso   1.000  S
  S63      1.0000 0.84549  0.78349  0.25529  Biso   1.000  S
  S64      1.0000 0.89535  0.87917  0.29345  Biso   1.000  S
  S65      1.0000 0.79624  0.76776  0.34056  Biso   1.000  S
  S66      1.0000 0.67599  0.80934  0.35584  Biso   1.000  S
  S67      1.0000 0.79866  0.94262  0.22060  Biso   1.000  S
  S68      1.0000 0.67753  0.98666  0.23460  Biso   1.000  S
  S69      1.0000 0.68271  0.81145  0.22223  Biso   1.000  S
  S70      1.0000 0.67549  0.72919  0.27417  Biso   1.000  S
  S71      1.0000 0.78565  0.01955  0.30244  Biso   1.000  S
  S72      1.0000 0.79410  0.94405  0.35736  Biso   1.000  S
  O131     1.0000 0.38310  0.88520  0.27700  Biso   1.000  O
  O132     1.0000 0.39300  0.80040  0.27520  Biso   1.000  O
  O133     1.0000 0.54420  0.13190  0.35839  Biso   1.000  O
  O134     1.0000 0.47860  0.07220  0.36958  Biso   1.000  O
  O135     1.0000 0.98700  0.67600  0.20806  Biso   1.000  O
  O136     1.0000 0.91880  0.68750  0.17730  Biso   1.000  O
  O137     1.0000 0.08910  0.89060  0.28850  Biso   1.000  O
  O138     1.0000 0.07140  0.89950  0.33700  Biso   1.000  O
  O139     1.0000 0.92890  0.65840  0.39030  Biso   1.000  O
  O140     1.0000 0.85060  0.61350  0.39559  Biso   1.000  O
  O141     1.0000 0.61540  0.74500  0.44580  Biso   1.000  O
  O142     1.0000 0.54110  0.74920  0.42230  Biso   1.000  O
  O143     1.0000 0.88860  0.05020  0.15040  Biso   1.000  O
  O144     1.0000 0.91060  0.96510  0.13750  Biso   1.000  O
  O145     1.0000 0.61850  0.10850  0.16122  Biso   1.000  O
  O146     1.0000 0.56900  0.13250  0.19755  Biso   1.000  O
  O147     1.0000 0.70320  0.77670  0.12385  Biso   1.000  O
  O148     1.0000 0.62560  0.73300  0.13518  Biso   1.000  O
  O149     1.0000 0.62910  0.54610  0.24330  Biso   1.000  O
  O150     1.0000 0.58920  0.55560  0.28620  Biso   1.000  O
  O151     1.0000 0.86290  0.20140  0.31571  Biso   1.000  O
  O152     1.0000 0.78430  0.21340  0.29378  Biso   1.000  O
  O153     1.0000 0.84050  0.05150  0.43907  Biso   1.000  O
  O154     1.0000 0.87880  0.96920  0.44761  Biso   1.000  O
  O155     1.0000 0.58710  0.06670  0.06294  Biso   1.000  O
  N61      1.0000 0.47140  0.90660  0.30566  Biso   1.000  N
  N62      1.0000 0.51240  0.99450  0.33497  Biso   1.000  N
  N63      1.0000 0.95650  0.76100  0.24053  Biso   1.000  N
  N64      1.0000 0.99920  0.82930  0.28144  Biso   1.000  N
  N65      1.0000 0.78730  0.70280  0.39012  Biso   1.000  N
  N66      1.0000 0.68310  0.73430  0.40163  Biso   1.000  N
  N67      1.0000 0.79580  0.01880  0.17565  Biso   1.000  N
  N68      1.0000 0.69930  0.06410  0.19096  Biso   1.000  N
  N69      1.0000 0.65760  0.71670  0.18852  Biso   1.000  N
  N70      1.0000 0.63240  0.65380  0.23365  Biso   1.000  N
  N71      1.0000 0.82760  0.10340  0.33867  Biso   1.000  N
  N72      1.0000 0.84650  0.03710  0.38257  Biso   1.000  N
  C311     1.0000 0.46860  0.85250  0.29280  Biso   1.000  C
  H436     1.0000 0.47540  0.82430  0.30710  Biso   1.000  H
  C312     1.0000 0.51120  0.84780  0.26916  Biso   1.000  C
  C313     1.0000 0.51950  0.78860  0.25850  Biso   1.000  C
  H437     1.0000 0.48650  0.77600  0.24960  Biso   1.000  H
  H438     1.0000 0.52810  0.76510  0.27420  Biso   1.000  H
  H439     1.0000 0.54920  0.78780  0.24520  Biso   1.000  H
  C314     1.0000 0.49840  0.88440  0.24450  Biso   1.000  C
  H440     1.0000 0.46500  0.87240  0.23570  Biso   1.000  H
  H441     1.0000 0.52790  0.88270  0.23110  Biso   1.000  H
  H442     1.0000 0.49410  0.92150  0.25100  Biso   1.000  H
  C315     1.0000 0.41080  0.84410  0.27970  Biso   1.000  C
  C316     1.0000 0.54890  0.04230  0.33812  Biso   1.000  C
  H443     1.0000 0.55430  0.05840  0.31930  Biso   1.000  H
  C317     1.0000 0.60520  0.02340  0.34895  Biso   1.000  C
  C318     1.0000 0.60150  0.00170  0.37896  Biso   1.000  C
  H444     1.0000 0.59160  0.03110  0.39150  Biso   1.000  H
  H445     1.0000 0.63640  0.98700  0.38450  Biso   1.000  H
  H446     1.0000 0.57420  0.97340  0.37990  Biso   1.000  H
  C319     1.0000 0.64940  0.06620  0.34710  Biso   1.000  C
  H447     1.0000 0.64050  0.09620  0.35940  Biso   1.000  H
  H448     1.0000 0.65200  0.07920  0.32800  Biso   1.000  H
  H449     1.0000 0.68380  0.05040  0.35270  Biso   1.000  H
  C320     1.0000 0.52190  0.08650  0.35720  Biso   1.000  C
  C321     1.0000 0.91810  0.74430  0.21938  Biso   1.000  C
  H450     1.0000 0.91020  0.77640  0.20760  Biso   1.000  H
  C322     1.0000 0.86410  0.72500  0.23208  Biso   1.000  C
  C323     1.0000 0.87170  0.67420  0.25063  Biso   1.000  C
  H451     1.0000 0.88130  0.64340  0.23900  Biso   1.000  H
  H452     1.0000 0.83810  0.66650  0.26040  Biso   1.000  H
  H453     1.0000 0.90040  0.68080  0.26410  Biso   1.000  H
  C324     1.0000 0.81870  0.71850  0.21024  Biso   1.000  C
  H454     1.0000 0.82740  0.68840  0.19790  Biso   1.000  H
  H455     1.0000 0.81560  0.75160  0.19940  Biso   1.000  H
  H456     1.0000 0.78460  0.71130  0.21970  Biso   1.000  H
  C325     1.0000 0.94360  0.69800  0.19920  Biso   1.000  C
  C326     1.0000 0.99960  0.86770  0.30630  Biso   1.000  C
  H457     1.0000 0.98820  0.84700  0.32300  Biso   1.000  H
  C327     1.0000 0.96080  0.91410  0.30247  Biso   1.000  C
  C328     1.0000 0.95200  0.94820  0.32824  Biso   1.000  C
  H458     1.0000 0.98550  0.96680  0.33300  Biso   1.000  H
  H459     1.0000 0.94120  0.92510  0.34370  Biso   1.000  H
  H460     1.0000 0.92380  0.97480  0.32470  Biso   1.000  H
  C329     1.0000 0.97570  0.94930  0.27720  Biso   1.000  C
  H461     1.0000 0.00930  0.96840  0.28090  Biso   1.000  H
  H462     1.0000 0.94690  0.97530  0.27370  Biso   1.000  H
  H463     1.0000 0.98030  0.92630  0.26090  Biso   1.000  H
  C330     1.0000 0.06030  0.88640  0.31080  Biso   1.000  C
  C331     1.0000 0.84530  0.70590  0.38032  Biso   1.000  C
  H464     1.0000 0.86230  0.73820  0.38910  Biso   1.000  H
  C332     1.0000 0.84680  0.71350  0.34859  Biso   1.000  C
  C333     1.0000 0.90140  0.73210  0.33650  Biso   1.000  C
  H465     1.0000 0.92880  0.70480  0.34030  Biso   1.000  H
  H466     1.0000 0.91190  0.76620  0.34510  Biso   1.000  H
  H467     1.0000 0.89790  0.73720  0.31650  Biso   1.000  H
  C334     1.0000 0.82980  0.66110  0.33360  Biso   1.000  C
  H468     1.0000 0.85600  0.63260  0.33760  Biso   1.000  H
  H469     1.0000 0.82860  0.66740  0.31360  Biso   1.000  H
  H470     1.0000 0.79420  0.65000  0.34010  Biso   1.000  H
  C335     1.0000 0.87750  0.65460  0.38990  Biso   1.000  C
  C336     1.0000 0.62500  0.75140  0.39570  Biso   1.000  C
  H471     1.0000 0.60870  0.72680  0.38160  Biso   1.000  H
  C337     1.0000 0.62390  0.81130  0.38456  Biso   1.000  C
  C338     1.0000 0.57040  0.82930  0.37220  Biso   1.000  C
  H472     1.0000 0.54310  0.83070  0.38680  Biso   1.000  H
  H473     1.0000 0.55920  0.80370  0.35790  Biso   1.000  H
  H474     1.0000 0.57460  0.86510  0.36390  Biso   1.000  H
  C339     1.0000 0.64570  0.85140  0.40700  Biso   1.000  C
  H475     1.0000 0.61990  0.85400  0.42230  Biso   1.000  H
  H476     1.0000 0.65070  0.88700  0.39870  Biso   1.000  H
  H477     1.0000 0.68020  0.83830  0.41420  Biso   1.000  H
  C340     1.0000 0.59090  0.74950  0.42350  Biso   1.000  C
  C341     1.0000 0.83590  0.97470  0.16994  Biso   1.000  C
  H478     1.0000 0.81770  0.94520  0.15940  Biso   1.000  H
  C342     1.0000 0.85900  0.95140  0.19707  Biso   1.000  C
  C343     1.0000 0.88580  0.89640  0.19250  Biso   1.000  C
  H479     1.0000 0.91710  0.90060  0.18040  Biso   1.000  H
  H480     1.0000 0.86000  0.87170  0.18390  Biso   1.000  H
  H481     1.0000 0.89740  0.88170  0.21040  Biso   1.000  H
  C344     1.0000 0.89900  0.99130  0.21195  Biso   1.000  C
  H482     1.0000 0.93090  0.99650  0.20030  Biso   1.000  H
  H483     1.0000 0.90980  0.97620  0.22980  Biso   1.000  H
  H484     1.0000 0.88110  0.02590  0.21490  Biso   1.000  H
  C345     1.0000 0.88350  0.00030  0.15084  Biso   1.000  C
  C346     1.0000 0.64860  0.07860  0.20699  Biso   1.000  C
  H485     1.0000 0.65840  0.10260  0.22280  Biso   1.000  H
  C347     1.0000 0.62010  0.02510  0.21891  Biso   1.000  C
  C348     1.0000 0.59640  0.99300  0.19480  Biso   1.000  C
  H486     1.0000 0.56650  0.01310  0.18660  Biso   1.000  H
  H487     1.0000 0.58340  0.95820  0.20160  Biso   1.000  H
  H488     1.0000 0.62430  0.98710  0.18080  Biso   1.000  H
  C349     1.0000 0.58070  0.03880  0.24222  Biso   1.000  C
  H489     1.0000 0.55030  0.05900  0.23460  Biso   1.000  H
  H490     1.0000 0.59910  0.06070  0.25620  Biso   1.000  H
  H491     1.0000 0.56770  0.00560  0.25080  Biso   1.000  H
  C350     1.0000 0.60870  0.11060  0.18650  Biso   1.000  C
  C351     1.0000 0.68320  0.76170  0.17211  Biso   1.000  C
  H492     1.0000 0.72300  0.75860  0.17450  Biso   1.000  H
  C352     1.0000 0.66580  0.81800  0.18396  Biso   1.000  C
  C353     1.0000 0.60330  0.82780  0.18070  Biso   1.000  C
  H493     1.0000 0.59440  0.83140  0.16110  Biso   1.000  H
  H494     1.0000 0.59320  0.86080  0.19050  Biso   1.000  H
  H495     1.0000 0.58360  0.79730  0.18860  Biso   1.000  H
  C354     1.0000 0.69720  0.86500  0.17186  Biso   1.000  C
  H496     1.0000 0.68880  0.86860  0.15210  Biso   1.000  H
  H497     1.0000 0.73580  0.85850  0.17410  Biso   1.000  H
  H498     1.0000 0.68730  0.89820  0.18160  Biso   1.000  H
  C355     1.0000 0.67070  0.75470  0.14070  Biso   1.000  C
  C356     1.0000 0.62030  0.63890  0.26350  Biso   1.000  C
  H499     1.0000 0.58590  0.65610  0.26950  Biso   1.000  H
  C357     1.0000 0.66650  0.65640  0.28310  Biso   1.000  C
  C358     1.0000 0.72330  0.62660  0.27610  Biso   1.000  C
  H500     1.0000 0.72050  0.58830  0.28060  Biso   1.000  H
  H501     1.0000 0.75210  0.64290  0.28710  Biso   1.000  H
  H502     1.0000 0.73140  0.63080  0.25630  Biso   1.000  H
  C359     1.0000 0.61410  0.57350  0.26420  Biso   1.000  C
  C360     1.0000 0.65470  0.65150  0.31410  Biso   1.000  C
  H503     1.0000 0.65020  0.61350  0.31900  Biso   1.000  H
  H504     1.0000 0.62170  0.67120  0.31850  Biso   1.000  H
  H505     1.0000 0.68480  0.66660  0.32470  Biso   1.000  H
  C361     1.0000 0.79930  0.12550  0.31293  Biso   1.000  C
  H506     1.0000 0.75990  0.12700  0.31700  Biso   1.000  H
  C362     1.0000 0.80750  0.08710  0.28885  Biso   1.000  C
  C363     1.0000 0.86780  0.08390  0.28102  Biso   1.000  C
  H507     1.0000 0.87980  0.11880  0.27390  Biso   1.000  H
  H508     1.0000 0.87290  0.05630  0.26680  Biso   1.000  H
  H509     1.0000 0.88890  0.07450  0.29750  Biso   1.000  H
  C364     1.0000 0.77540  0.10140  0.26301  Biso   1.000  C
  H510     1.0000 0.78710  0.13650  0.25610  Biso   1.000  H
  H511     1.0000 0.73710  0.10290  0.26760  Biso   1.000  H
  H512     1.0000 0.78150  0.07410  0.24880  Biso   1.000  H
  C365     1.0000 0.81940  0.18570  0.30705  Biso   1.000  C
  C366     1.0000 0.85050  0.98720  0.40087  Biso   1.000  C
  H513     1.0000 0.88330  0.96680  0.39510  Biso   1.000  H
  C367     1.0000 0.80090  0.95030  0.39598  Biso   1.000  C
  C368     1.0000 0.75060  0.97590  0.40760  Biso   1.000  C
  H514     1.0000 0.75400  0.97910  0.42780  Biso   1.000  H
  H515     1.0000 0.71940  0.95350  0.40310  Biso   1.000  H
  H516     1.0000 0.74590  0.01170  0.39960  Biso   1.000  H
  C369     1.0000 0.81050  0.89270  0.40760  Biso   1.000  C
  H517     1.0000 0.81430  0.89450  0.42780  Biso   1.000  H
  H518     1.0000 0.84340  0.87780  0.39960  Biso   1.000  H
  H519     1.0000 0.77990  0.86970  0.40290  Biso   1.000  H
  C370     1.0000 0.85820  0.00430  0.43110  Biso   1.000  C
  O156     1.0000 0.66840  0.08630  0.08550  Biso   1.000  O
  C371     1.0000 0.63480  0.06230  0.06270  Biso   1.000  C
  C372     1.0000 0.66620  0.02860  0.03640  Biso   1.000  C
  H520     1.0000 0.64930  0.03800  0.01870  Biso   1.000  H
  H521     1.0000 0.66310  0.98980  0.03950  Biso   1.000  H
  H522     1.0000 0.70430  0.03870  0.03590  Biso   1.000  H
  La7      1.0000 0.37847  0.08148  0.36276  Biso   1.000  La
  Ag49     1.0000 0.70674  0.12970  0.55885  Biso   1.000  Ag
  Ag50     1.0000 0.60745  0.14749  0.50013  Biso   1.000  Ag
  Ag51     1.0000 0.50353  0.18913  0.53713  Biso   1.000  Ag
  Ag52     1.0000 0.59285  0.20192  0.59355  Biso   1.000  Ag
  Ag53     1.0000 0.73702  0.26758  0.53945  Biso   1.000  Ag
  Ag54     1.0000 0.65584  0.27796  0.48134  Biso   1.000  Ag
  Ag55     1.0000 0.55688  0.32518  0.52255  Biso   1.000  Ag
  Ag56     1.0000 0.63970  0.33970  0.58732  Biso   1.000  Ag
  Ni37     1.0000 0.56512  0.04422  0.56341  Biso   1.000  Ni
  Ni38     1.0000 0.68774  0.42624  0.51773  Biso   1.000  Ni
  Ni39     1.0000 0.74759  0.23553  0.62290  Biso   1.000  Ni
  Ni40     1.0000 0.49593  0.24293  0.45475  Biso   1.000  Ni
  Ni41     1.0000 0.77355  0.16095  0.47924  Biso   1.000  Ni
  Ni42     1.0000 0.47307  0.31556  0.59529  Biso   1.000  Ni
  S73      1.0000 0.62913  0.07610  0.53634  Biso   1.000  S
  S74      1.0000 0.53340  0.12423  0.57479  Biso   1.000  S
  S75      1.0000 0.71651  0.34549  0.50529  Biso   1.000  S
  S76      1.0000 0.62083  0.39535  0.54345  Biso   1.000  S
  S77      1.0000 0.73224  0.29624  0.59056  Biso   1.000  S
  S78      1.0000 0.69066  0.17599  0.60584  Biso   1.000  S
  S79      1.0000 0.55738  0.29866  0.47060  Biso   1.000  S
  S80      1.0000 0.51334  0.17753  0.48460  Biso   1.000  S
  S81      1.0000 0.68855  0.18271  0.47223  Biso   1.000  S
  S82      1.0000 0.77081  0.17549  0.52417  Biso   1.000  S
  S83      1.0000 0.48045  0.28565  0.55244  Biso   1.000  S
  S84      1.0000 0.55595  0.29410  0.60736  Biso   1.000  S
  O157     1.0000 0.61480  0.88310  0.52700  Biso   1.000  O
  O158     1.0000 0.69960  0.89300  0.52520  Biso   1.000  O
  O159     1.0000 0.36810  0.04420  0.60839  Biso   1.000  O
  O160     1.0000 0.42780  0.97860  0.61958  Biso   1.000  O
  O161     1.0000 0.82400  0.48700  0.45806  Biso   1.000  O
  O162     1.0000 0.81250  0.41880  0.42730  Biso   1.000  O
  O163     1.0000 0.60940  0.58910  0.53850  Biso   1.000  O
  O164     1.0000 0.60050  0.57140  0.58700  Biso   1.000  O
  O165     1.0000 0.84160  0.42890  0.64030  Biso   1.000  O
  O166     1.0000 0.88650  0.35060  0.64559  Biso   1.000  O
  O167     1.0000 0.75500  0.11540  0.69580  Biso   1.000  O
  O168     1.0000 0.75080  0.04110  0.67230  Biso   1.000  O
  O169     1.0000 0.44980  0.38860  0.40040  Biso   1.000  O
  O170     1.0000 0.53490  0.41060  0.38750  Biso   1.000  O
  O171     1.0000 0.39150  0.11850  0.41122  Biso   1.000  O
  O172     1.0000 0.36750  0.06900  0.44755  Biso   1.000  O
  O173     1.0000 0.72330  0.20320  0.37385  Biso   1.000  O
  O174     1.0000 0.76700  0.12560  0.38518  Biso   1.000  O
  O175     1.0000 0.95390  0.12910  0.49330  Biso   1.000  O
  O176     1.0000 0.94440  0.08920  0.53620  Biso   1.000  O
  O177     1.0000 0.29860  0.36290  0.56571  Biso   1.000  O
  O178     1.0000 0.28660  0.28430  0.54378  Biso   1.000  O
  O179     1.0000 0.44850  0.34050  0.68907  Biso   1.000  O
  O180     1.0000 0.53080  0.37880  0.69761  Biso   1.000  O
  O181     1.0000 0.43330  0.08710  0.31294  Biso   1.000  O
  N73      1.0000 0.59340  0.97140  0.55566  Biso   1.000  N
  N74      1.0000 0.50550  0.01240  0.58497  Biso   1.000  N
  N75      1.0000 0.73900  0.45650  0.49053  Biso   1.000  N
  N76      1.0000 0.67070  0.49920  0.53144  Biso   1.000  N
  N77      1.0000 0.79720  0.28730  0.64012  Biso   1.000  N
  N78      1.0000 0.76570  0.18310  0.65163  Biso   1.000  N
  N79      1.0000 0.48120  0.29580  0.42565  Biso   1.000  N
  N80      1.0000 0.43590  0.19930  0.44096  Biso   1.000  N
  N81      1.0000 0.78330  0.15760  0.43852  Biso   1.000  N
  N82      1.0000 0.84620  0.13240  0.48365  Biso   1.000  N
  N83      1.0000 0.39660  0.32760  0.58867  Biso   1.000  N
  N84      1.0000 0.46290  0.34650  0.63257  Biso   1.000  N
  C373     1.0000 0.64750  0.96860  0.54280  Biso   1.000  C
  H523     1.0000 0.67570  0.97540  0.55710  Biso   1.000  H
  C374     1.0000 0.65220  0.01120  0.51916  Biso   1.000  C
  C375     1.0000 0.71140  0.01950  0.50850  Biso   1.000  C
  H524     1.0000 0.72400  0.98650  0.49960  Biso   1.000  H
  H525     1.0000 0.73490  0.02810  0.52420  Biso   1.000  H
  H526     1.0000 0.71220  0.04920  0.49520  Biso   1.000  H
  C376     1.0000 0.61560  0.99840  0.49450  Biso   1.000  C
  H527     1.0000 0.62760  0.96500  0.48570  Biso   1.000  H
  H528     1.0000 0.61730  0.02790  0.48110  Biso   1.000  H
  H529     1.0000 0.57850  0.99410  0.50100  Biso   1.000  H
  C377     1.0000 0.65590  0.91080  0.52970  Biso   1.000  C
  C378     1.0000 0.45770  0.04890  0.58812  Biso   1.000  C
  H530     1.0000 0.44160  0.05430  0.56930  Biso   1.000  H
  C379     1.0000 0.47660  0.10520  0.59895  Biso   1.000  C
  C380     1.0000 0.49830  0.10150  0.62896  Biso   1.000  C
  H531     1.0000 0.46890  0.09160  0.64150  Biso   1.000  H
  H532     1.0000 0.51300  0.13640  0.63450  Biso   1.000  H
  H533     1.0000 0.52660  0.07420  0.62990  Biso   1.000  H
  C381     1.0000 0.43380  0.14940  0.59710  Biso   1.000  C
  H534     1.0000 0.40380  0.14050  0.60940  Biso   1.000  H
  H535     1.0000 0.42080  0.15200  0.57800  Biso   1.000  H
  H536     1.0000 0.44960  0.18380  0.60270  Biso   1.000  H
  C382     1.0000 0.41350  0.02190  0.60720  Biso   1.000  C
  C383     1.0000 0.75570  0.41810  0.46938  Biso   1.000  C
  H537     1.0000 0.72360  0.41020  0.45760  Biso   1.000  H
  C384     1.0000 0.77500  0.36410  0.48208  Biso   1.000  C
  C385     1.0000 0.82580  0.37170  0.50063  Biso   1.000  C
  H538     1.0000 0.85660  0.38130  0.48900  Biso   1.000  H
  H539     1.0000 0.83350  0.33810  0.51040  Biso   1.000  H
  H540     1.0000 0.81920  0.40040  0.51410  Biso   1.000  H
  C386     1.0000 0.78150  0.31870  0.46024  Biso   1.000  C
  H541     1.0000 0.81160  0.32740  0.44790  Biso   1.000  H
  H542     1.0000 0.74840  0.31560  0.44940  Biso   1.000  H
  H543     1.0000 0.78870  0.28460  0.46970  Biso   1.000  H
  C387     1.0000 0.80200  0.44360  0.44920  Biso   1.000  C
  C388     1.0000 0.63230  0.49960  0.55630  Biso   1.000  C
  H544     1.0000 0.65300  0.48820  0.57300  Biso   1.000  H
  C389     1.0000 0.58590  0.46080  0.55247  Biso   1.000  C
  C390     1.0000 0.55180  0.45200  0.57824  Biso   1.000  C
  H545     1.0000 0.53320  0.48550  0.58300  Biso   1.000  H
  H546     1.0000 0.57490  0.44120  0.59370  Biso   1.000  H
  H547     1.0000 0.52520  0.42380  0.57470  Biso   1.000  H
  C391     1.0000 0.55070  0.47570  0.52720  Biso   1.000  C
  H548     1.0000 0.53160  0.50930  0.53090  Biso   1.000  H
  H549     1.0000 0.52470  0.44690  0.52370  Biso   1.000  H
  H550     1.0000 0.57370  0.48030  0.51090  Biso   1.000  H
  C392     1.0000 0.61360  0.56030  0.56080  Biso   1.000  C
  C393     1.0000 0.79410  0.34530  0.63032  Biso   1.000  C
  H551     1.0000 0.76180  0.36230  0.63910  Biso   1.000  H
  C394     1.0000 0.78650  0.34680  0.59859  Biso   1.000  C
  C395     1.0000 0.76790  0.40140  0.58650  Biso   1.000  C
  H552     1.0000 0.79520  0.42880  0.59030  Biso   1.000  H
  H553     1.0000 0.73380  0.41190  0.59510  Biso   1.000  H
  H554     1.0000 0.76280  0.39790  0.56650  Biso   1.000  H
  C396     1.0000 0.83890  0.32980  0.58360  Biso   1.000  C
  H555     1.0000 0.86740  0.35600  0.58760  Biso   1.000  H
  H556     1.0000 0.83260  0.32860  0.56360  Biso   1.000  H
  H557     1.0000 0.85000  0.29420  0.59010  Biso   1.000  H
  C397     1.0000 0.84540  0.37750  0.63990  Biso   1.000  C
  C398     1.0000 0.74860  0.12500  0.64570  Biso   1.000  C
  H558     1.0000 0.77320  0.10870  0.63160  Biso   1.000  H
  C399     1.0000 0.68870  0.12390  0.63456  Biso   1.000  C
  C400     1.0000 0.67070  0.07040  0.62220  Biso   1.000  C
  H559     1.0000 0.66930  0.04310  0.63680  Biso   1.000  H
  H560     1.0000 0.69630  0.05920  0.60790  Biso   1.000  H
  H561     1.0000 0.63490  0.07460  0.61390  Biso   1.000  H
  C401     1.0000 0.64860  0.14570  0.65700  Biso   1.000  C
  H562     1.0000 0.64600  0.11990  0.67230  Biso   1.000  H
  H563     1.0000 0.61300  0.15070  0.64870  Biso   1.000  H
  H564     1.0000 0.66170  0.18020  0.66420  Biso   1.000  H
  C402     1.0000 0.75050  0.09090  0.67350  Biso   1.000  C
  C403     1.0000 0.52530  0.33590  0.41994  Biso   1.000  C
  H565     1.0000 0.55480  0.31770  0.40940  Biso   1.000  H
  C404     1.0000 0.54860  0.35900  0.44707  Biso   1.000  C
  C405     1.0000 0.60360  0.38580  0.44250  Biso   1.000  C
  H566     1.0000 0.59940  0.41710  0.43040  Biso   1.000  H
  H567     1.0000 0.62830  0.36000  0.43390  Biso   1.000  H
  H568     1.0000 0.61830  0.39740  0.46040  Biso   1.000  H
  C406     1.0000 0.50870  0.39900  0.46195  Biso   1.000  C
  H569     1.0000 0.50350  0.43090  0.45030  Biso   1.000  H
  H570     1.0000 0.52380  0.40980  0.47980  Biso   1.000  H
  H571     1.0000 0.47410  0.38110  0.46490  Biso   1.000  H
  C407     1.0000 0.49970  0.38350  0.40084  Biso   1.000  C
  C408     1.0000 0.42140  0.14860  0.45699  Biso   1.000  C
  H572     1.0000 0.39740  0.15840  0.47280  Biso   1.000  H
  C409     1.0000 0.47490  0.12010  0.46891  Biso   1.000  C
  C410     1.0000 0.50700  0.09640  0.44480  Biso   1.000  C
  H573     1.0000 0.48690  0.06650  0.43660  Biso   1.000  H
  H574     1.0000 0.54180  0.08340  0.45160  Biso   1.000  H
  H575     1.0000 0.51290  0.12430  0.43080  Biso   1.000  H
  C411     1.0000 0.46120  0.08070  0.49222  Biso   1.000  C
  H576     1.0000 0.44100  0.05030  0.48460  Biso   1.000  H
  H577     1.0000 0.43930  0.09910  0.50620  Biso   1.000  H
  H578     1.0000 0.49440  0.06770  0.50080  Biso   1.000  H
  C412     1.0000 0.38940  0.10870  0.43650  Biso   1.000  C
  C413     1.0000 0.73830  0.18320  0.42211  Biso   1.000  C
  H579     1.0000 0.74140  0.22300  0.42450  Biso   1.000  H
  C414     1.0000 0.68200  0.16580  0.43396  Biso   1.000  C
  C415     1.0000 0.67220  0.10330  0.43070  Biso   1.000  C
  H580     1.0000 0.66860  0.09440  0.41110  Biso   1.000  H
  H581     1.0000 0.63920  0.09320  0.44050  Biso   1.000  H
  H582     1.0000 0.70270  0.08360  0.43860  Biso   1.000  H
  C416     1.0000 0.63500  0.19720  0.42186  Biso   1.000  C
  H583     1.0000 0.63140  0.18880  0.40210  Biso   1.000  H
  H584     1.0000 0.64150  0.23580  0.42410  Biso   1.000  H
  H585     1.0000 0.60180  0.18730  0.43160  Biso   1.000  H
  C417     1.0000 0.74530  0.17070  0.39070  Biso   1.000  C
  C418     1.0000 0.86110  0.12030  0.51350  Biso   1.000  C
  H586     1.0000 0.84390  0.08590  0.51950  Biso   1.000  H
  C419     1.0000 0.84360  0.16650  0.53310  Biso   1.000  C
  C420     1.0000 0.87340  0.22330  0.52610  Biso   1.000  C
  H587     1.0000 0.91170  0.22050  0.53060  Biso   1.000  H
  H588     1.0000 0.85710  0.25210  0.53710  Biso   1.000  H
  H589     1.0000 0.86920  0.23140  0.50630  Biso   1.000  H
  C421     1.0000 0.92650  0.11410  0.51420  Biso   1.000  C
  C422     1.0000 0.84850  0.15470  0.56410  Biso   1.000  C
  H590     1.0000 0.88650  0.15020  0.56900  Biso   1.000  H
  H591     1.0000 0.82880  0.12170  0.56850  Biso   1.000  H
  H592     1.0000 0.83340  0.18480  0.57470  Biso   1.000  H
  C423     1.0000 0.37450  0.29930  0.56293  Biso   1.000  C
  H593     1.0000 0.37300  0.25990  0.56700  Biso   1.000  H
  C424     1.0000 0.41290  0.30750  0.53885  Biso   1.000  C
  C425     1.0000 0.41610  0.36780  0.53102  Biso   1.000  C
  H594     1.0000 0.38120  0.37980  0.52390  Biso   1.000  H
  H595     1.0000 0.44370  0.37290  0.51680  Biso   1.000  H
  H596     1.0000 0.42550  0.38890  0.54750  Biso   1.000  H
  C426     1.0000 0.39860  0.27540  0.51301  Biso   1.000  C
  H597     1.0000 0.36350  0.28710  0.50610  Biso   1.000  H
  H598     1.0000 0.39710  0.23710  0.51760  Biso   1.000  H
  H599     1.0000 0.42590  0.28150  0.49880  Biso   1.000  H
  C427     1.0000 0.31430  0.31940  0.55705  Biso   1.000  C
  C428     1.0000 0.51280  0.35050  0.65087  Biso   1.000  C
  H600     1.0000 0.53320  0.38330  0.64510  Biso   1.000  H
  C429     1.0000 0.54970  0.30090  0.64598  Biso   1.000  C
  C430     1.0000 0.52410  0.25060  0.65760  Biso   1.000  C
  H601     1.0000 0.52090  0.25400  0.67780  Biso   1.000  H
  H602     1.0000 0.54650  0.21940  0.65310  Biso   1.000  H
  H603     1.0000 0.48830  0.24590  0.64960  Biso   1.000  H
  C431     1.0000 0.60730  0.31050  0.65760  Biso   1.000  C
  H604     1.0000 0.60550  0.31430  0.67780  Biso   1.000  H
  H605     1.0000 0.62220  0.34340  0.64960  Biso   1.000  H
  H606     1.0000 0.63030  0.27990  0.65290  Biso   1.000  H
  C432     1.0000 0.49570  0.35820  0.68110  Biso   1.000  C
  O182     1.0000 0.41370  0.16840  0.33550  Biso   1.000  O
  C433     1.0000 0.43770  0.13480  0.31270  Biso   1.000  C
  C434     1.0000 0.47140  0.16620  0.28640  Biso   1.000  C
  H607     1.0000 0.46200  0.14930  0.26870  Biso   1.000  H
  H608     1.0000 0.51020  0.16310  0.28950  Biso   1.000  H
  H609     1.0000 0.46130  0.20430  0.28590  Biso   1.000  H
  La8      1.0000 0.62153  0.91852  0.86276  Biso   1.000  La
  Ag57     1.0000 0.29326  0.87030  0.05885  Biso   1.000  Ag
  Ag58     1.0000 0.39255  0.85251  0.00013  Biso   1.000  Ag
  Ag59     1.0000 0.49647  0.81087  0.03713  Biso   1.000  Ag
  Ag60     1.0000 0.40715  0.79808  0.09355  Biso   1.000  Ag
  Ag61     1.0000 0.26298  0.73242  0.03945  Biso   1.000  Ag
  Ag62     1.0000 0.34416  0.72204  0.98134  Biso   1.000  Ag
  Ag63     1.0000 0.44312  0.67482  0.02255  Biso   1.000  Ag
  Ag64     1.0000 0.36030  0.66030  0.08732  Biso   1.000  Ag
  Ni43     1.0000 0.43488  0.95578  0.06341  Biso   1.000  Ni
  Ni44     1.0000 0.31226  0.57376  0.01773  Biso   1.000  Ni
  Ni45     1.0000 0.25241  0.76447  0.12290  Biso   1.000  Ni
  Ni46     1.0000 0.50407  0.75707  0.95475  Biso   1.000  Ni
  Ni47     1.0000 0.22645  0.83905  0.97924  Biso   1.000  Ni
  Ni48     1.0000 0.52693  0.68444  0.09529  Biso   1.000  Ni
  S85      1.0000 0.37087  0.92390  0.03634  Biso   1.000  S
  S86      1.0000 0.46660  0.87577  0.07479  Biso   1.000  S
  S87      1.0000 0.28349  0.65451  0.00529  Biso   1.000  S
  S88      1.0000 0.37917  0.60465  0.04345  Biso   1.000  S
  S89      1.0000 0.26776  0.70376  0.09056  Biso   1.000  S
  S90      1.0000 0.30934  0.82401  0.10584  Biso   1.000  S
  S91      1.0000 0.44262  0.70134  0.97060  Biso   1.000  S
  S92      1.0000 0.48666  0.82247  0.98460  Biso   1.000  S
  S93      1.0000 0.31145  0.81729  0.97223  Biso   1.000  S
  S94      1.0000 0.22919  0.82451  0.02417  Biso   1.000  S
  S95      1.0000 0.51955  0.71435  0.05244  Biso   1.000  S
  S96      1.0000 0.44405  0.70590  0.10736  Biso   1.000  S
  O183     1.0000 0.38520  0.11690  0.02700  Biso   1.000  O
  O184     1.0000 0.30040  0.10700  0.02520  Biso   1.000  O
  O185     1.0000 0.63190  0.95580  0.10839  Biso   1.000  O
  O186     1.0000 0.57220  0.02140  0.11958  Biso   1.000  O
  O187     1.0000 0.17600  0.51300  0.95806  Biso   1.000  O
  O188     1.0000 0.18750  0.58120  0.92730  Biso   1.000  O
  O189     1.0000 0.39060  0.41090  0.03850  Biso   1.000  O
  O190     1.0000 0.39950  0.42860  0.08700  Biso   1.000  O
  O191     1.0000 0.15840  0.57110  0.14030  Biso   1.000  O
  O192     1.0000 0.11350  0.64940  0.14559  Biso   1.000  O
  O193     1.0000 0.24500  0.88460  0.19580  Biso   1.000  O
  O194     1.0000 0.24920  0.95890  0.17230  Biso   1.000  O
  O195     1.0000 0.55020  0.61140  0.90040  Biso   1.000  O
  O196     1.0000 0.46510  0.58940  0.88750  Biso   1.000  O
  O197     1.0000 0.60850  0.88150  0.91122  Biso   1.000  O
  O198     1.0000 0.63250  0.93100  0.94755  Biso   1.000  O
  O199     1.0000 0.27670  0.79680  0.87385  Biso   1.000  O
  O200     1.0000 0.23300  0.87440  0.88518  Biso   1.000  O
  O201     1.0000 0.04610  0.87090  0.99330  Biso   1.000  O
  O202     1.0000 0.05560  0.91080  0.03620  Biso   1.000  O
  O203     1.0000 0.70140  0.63710  0.06571  Biso   1.000  O
  O204     1.0000 0.71340  0.71570  0.04378  Biso   1.000  O
  O205     1.0000 0.55150  0.65950  0.18907  Biso   1.000  O
  O206     1.0000 0.46920  0.62120  0.19761  Biso   1.000  O
  O207     1.0000 0.56670  0.91290  0.81294  Biso   1.000  O
  N85      1.0000 0.40660  0.02860  0.05566  Biso   1.000  N
  N86      1.0000 0.49450  0.98760  0.08497  Biso   1.000  N
  N87      1.0000 0.26100  0.54350  0.99053  Biso   1.000  N
  N88      1.0000 0.32930  0.50080  0.03144  Biso   1.000  N
  N89      1.0000 0.20280  0.71270  0.14012  Biso   1.000  N
  N90      1.0000 0.23430  0.81690  0.15163  Biso   1.000  N
  N91      1.0000 0.51880  0.70420  0.92565  Biso   1.000  N
  N92      1.0000 0.56410  0.80070  0.94096  Biso   1.000  N
  N93      1.0000 0.21670  0.84240  0.93852  Biso   1.000  N
  N94      1.0000 0.15380  0.86760  0.98365  Biso   1.000  N
  N95      1.0000 0.60340  0.67240  0.08867  Biso   1.000  N
  N96      1.0000 0.53710  0.65350  0.13257  Biso   1.000  N
  C435     1.0000 0.35250  0.03140  0.04280  Biso   1.000  C
  H610     1.0000 0.32430  0.02460  0.05710  Biso   1.000  H
  C436     1.0000 0.34780  0.98880  0.01916  Biso   1.000  C
  C437     1.0000 0.28860  0.98050  0.00850  Biso   1.000  C
  H611     1.0000 0.27600  0.01350  0.99960  Biso   1.000  H
  H612     1.0000 0.26510  0.97190  0.02420  Biso   1.000  H
  H613     1.0000 0.28780  0.95080  0.99520  Biso   1.000  H
  C438     1.0000 0.38440  0.00160  0.99450  Biso   1.000  C
  H614     1.0000 0.37240  0.03500  0.98570  Biso   1.000  H
  H615     1.0000 0.38270  0.97210  0.98110  Biso   1.000  H
  H616     1.0000 0.42150  0.00590  0.00100  Biso   1.000  H
  C439     1.0000 0.34410  0.08920  0.02970  Biso   1.000  C
  C440     1.0000 0.54230  0.95110  0.08812  Biso   1.000  C
  H617     1.0000 0.55840  0.94570  0.06930  Biso   1.000  H
  C441     1.0000 0.52340  0.89480  0.09895  Biso   1.000  C
  C442     1.0000 0.50170  0.89850  0.12896  Biso   1.000  C
  H618     1.0000 0.53110  0.90840  0.14150  Biso   1.000  H
  H619     1.0000 0.48700  0.86360  0.13450  Biso   1.000  H
  H620     1.0000 0.47340  0.92580  0.12990  Biso   1.000  H
  C443     1.0000 0.56620  0.85060  0.09710  Biso   1.000  C
  H621     1.0000 0.59620  0.85950  0.10940  Biso   1.000  H
  H622     1.0000 0.57920  0.84800  0.07800  Biso   1.000  H
  H623     1.0000 0.55040  0.81620  0.10270  Biso   1.000  H
  C444     1.0000 0.58650  0.97810  0.10720  Biso   1.000  C
  C445     1.0000 0.24430  0.58190  0.96938  Biso   1.000  C
  H624     1.0000 0.27640  0.58980  0.95760  Biso   1.000  H
  C446     1.0000 0.22500  0.63590  0.98208  Biso   1.000  C
  C447     1.0000 0.17420  0.62830  0.00063  Biso   1.000  C
  H625     1.0000 0.14340  0.61870  0.98900  Biso   1.000  H
  H626     1.0000 0.16650  0.66190  0.01040  Biso   1.000  H
  H627     1.0000 0.18080  0.59960  0.01410  Biso   1.000  H
  C448     1.0000 0.21850  0.68130  0.96024  Biso   1.000  C
  H628     1.0000 0.18840  0.67260  0.94790  Biso   1.000  H
  H629     1.0000 0.25160  0.68440  0.94940  Biso   1.000  H
  H630     1.0000 0.21130  0.71540  0.96970  Biso   1.000  H
  C449     1.0000 0.19800  0.55640  0.94920  Biso   1.000  C
  C450     1.0000 0.36770  0.50040  0.05630  Biso   1.000  C
  H631     1.0000 0.34700  0.51180  0.07300  Biso   1.000  H
  C451     1.0000 0.41410  0.53920  0.05247  Biso   1.000  C
  C452     1.0000 0.44820  0.54800  0.07824  Biso   1.000  C
  H632     1.0000 0.46680  0.51450  0.08300  Biso   1.000  H
  H633     1.0000 0.42510  0.55880  0.09370  Biso   1.000  H
  H634     1.0000 0.47480  0.57620  0.07470  Biso   1.000  H
  C453     1.0000 0.44930  0.52430  0.02720  Biso   1.000  C
  H635     1.0000 0.46840  0.49070  0.03090  Biso   1.000  H
  H636     1.0000 0.47530  0.55310  0.02370  Biso   1.000  H
  H637     1.0000 0.42630  0.51970  0.01090  Biso   1.000  H
  C454     1.0000 0.38640  0.43970  0.06080  Biso   1.000  C
  C455     1.0000 0.20590  0.65470  0.13032  Biso   1.000  C
  H638     1.0000 0.23820  0.63770  0.13910  Biso   1.000  H
  C456     1.0000 0.21350  0.65320  0.09859  Biso   1.000  C
  C457     1.0000 0.23210  0.59860  0.08650  Biso   1.000  C
  H639     1.0000 0.20480  0.57120  0.09030  Biso   1.000  H
  H640     1.0000 0.26620  0.58810  0.09510  Biso   1.000  H
  H641     1.0000 0.23720  0.60210  0.06650  Biso   1.000  H
  C458     1.0000 0.16110  0.67020  0.08360  Biso   1.000  C
  H642     1.0000 0.13260  0.64400  0.08760  Biso   1.000  H
  H643     1.0000 0.16740  0.67140  0.06360  Biso   1.000  H
  H644     1.0000 0.15000  0.70580  0.09010  Biso   1.000  H
  C459     1.0000 0.15460  0.62250  0.13990  Biso   1.000  C
  C460     1.0000 0.25140  0.87500  0.14570  Biso   1.000  C
  H645     1.0000 0.22680  0.89130  0.13160  Biso   1.000  H
  C461     1.0000 0.31130  0.87610  0.13456  Biso   1.000  C
  C462     1.0000 0.32930  0.92960  0.12220  Biso   1.000  C
  H646     1.0000 0.33070  0.95690  0.13680  Biso   1.000  H
  H647     1.0000 0.30370  0.94080  0.10790  Biso   1.000  H
  H648     1.0000 0.36510  0.92540  0.11390  Biso   1.000  H
  C463     1.0000 0.35140  0.85430  0.15700  Biso   1.000  C
  H649     1.0000 0.35400  0.88010  0.17230  Biso   1.000  H
  H650     1.0000 0.38700  0.84930  0.14870  Biso   1.000  H
  H651     1.0000 0.33830  0.81980  0.16420  Biso   1.000  H
  C464     1.0000 0.24950  0.90910  0.17350  Biso   1.000  C
  C465     1.0000 0.47470  0.66410  0.91994  Biso   1.000  C
  H652     1.0000 0.44520  0.68230  0.90940  Biso   1.000  H
  C466     1.0000 0.45140  0.64100  0.94707  Biso   1.000  C
  C467     1.0000 0.39640  0.61420  0.94250  Biso   1.000  C
  H653     1.0000 0.40060  0.58290  0.93040  Biso   1.000  H
  H654     1.0000 0.37170  0.64000  0.93390  Biso   1.000  H
  H655     1.0000 0.38170  0.60260  0.96040  Biso   1.000  H
  C468     1.0000 0.49130  0.60100  0.96195  Biso   1.000  C
  H656     1.0000 0.49650  0.56910  0.95030  Biso   1.000  H
  H657     1.0000 0.47620  0.59020  0.97980  Biso   1.000  H
  H658     1.0000 0.52590  0.61890  0.96490  Biso   1.000  H
  C469     1.0000 0.50030  0.61650  0.90084  Biso   1.000  C
  C470     1.0000 0.57860  0.85140  0.95699  Biso   1.000  C
  H659     1.0000 0.60260  0.84160  0.97280  Biso   1.000  H
  C471     1.0000 0.52510  0.87990  0.96891  Biso   1.000  C
  C472     1.0000 0.49300  0.90360  0.94480  Biso   1.000  C
  H660     1.0000 0.51310  0.93350  0.93660  Biso   1.000  H
  H661     1.0000 0.45820  0.91660  0.95160  Biso   1.000  H
  H662     1.0000 0.48710  0.87570  0.93080  Biso   1.000  H
  C473     1.0000 0.53880  0.91930  0.99222  Biso   1.000  C
  H663     1.0000 0.55900  0.94970  0.98460  Biso   1.000  H
  H664     1.0000 0.56070  0.90090  0.00620  Biso   1.000  H
  H665     1.0000 0.50560  0.93230  0.00080  Biso   1.000  H
  C474     1.0000 0.61060  0.89130  0.93650  Biso   1.000  C
  C475     1.0000 0.26170  0.81680  0.92211  Biso   1.000  C
  H666     1.0000 0.25860  0.77700  0.92450  Biso   1.000  H
  C476     1.0000 0.31800  0.83420  0.93396  Biso   1.000  C
  C477     1.0000 0.32780  0.89670  0.93070  Biso   1.000  C
  H667     1.0000 0.33140  0.90560  0.91110  Biso   1.000  H
  H668     1.0000 0.36080  0.90680  0.94050  Biso   1.000  H
  H669     1.0000 0.29730  0.91640  0.93860  Biso   1.000  H
  C478     1.0000 0.36500  0.80280  0.92186  Biso   1.000  C
  H670     1.0000 0.36860  0.81120  0.90210  Biso   1.000  H
  H671     1.0000 0.35850  0.76420  0.92410  Biso   1.000  H
  H672     1.0000 0.39820  0.81270  0.93160  Biso   1.000  H
  C479     1.0000 0.25470  0.82930  0.89070  Biso   1.000  C
  C480     1.0000 0.13890  0.87970  0.01350  Biso   1.000  C
  H673     1.0000 0.15610  0.91410  0.01950  Biso   1.000  H
  C481     1.0000 0.15640  0.83350  0.03310  Biso   1.000  C
  C482     1.0000 0.12660  0.77670  0.02610  Biso   1.000  C
  H674     1.0000 0.08830  0.77950  0.03060  Biso   1.000  H
  H675     1.0000 0.14290  0.74790  0.03710  Biso   1.000  H
  H676     1.0000 0.13080  0.76860  0.00630  Biso   1.000  H
  C483     1.0000 0.07350  0.88590  0.01420  Biso   1.000  C
  C484     1.0000 0.15150  0.84530  0.06410  Biso   1.000  C
  H677     1.0000 0.11350  0.84980  0.06900  Biso   1.000  H
  H678     1.0000 0.17120  0.87830  0.06850  Biso   1.000  H
  H679     1.0000 0.16660  0.81520  0.07470  Biso   1.000  H
  C485     1.0000 0.62550  0.70070  0.06293  Biso   1.000  C
  H680     1.0000 0.62700  0.74010  0.06700  Biso   1.000  H
  C486     1.0000 0.58710  0.69250  0.03885  Biso   1.000  C
  C487     1.0000 0.58390  0.63220  0.03102  Biso   1.000  C
  H681     1.0000 0.61880  0.62020  0.02390  Biso   1.000  H
  H682     1.0000 0.55630  0.62710  0.01680  Biso   1.000  H
  H683     1.0000 0.57450  0.61110  0.04750  Biso   1.000  H
  C488     1.0000 0.60140  0.72460  0.01301  Biso   1.000  C
  H684     1.0000 0.63650  0.71290  0.00610  Biso   1.000  H
  H685     1.0000 0.60290  0.76290  0.01760  Biso   1.000  H
  H686     1.0000 0.57410  0.71850  0.99880  Biso   1.000  H
  C489     1.0000 0.68570  0.68060  0.05705  Biso   1.000  C
  C490     1.0000 0.48720  0.64950  0.15087  Biso   1.000  C
  H687     1.0000 0.46680  0.61670  0.14510  Biso   1.000  H
  C491     1.0000 0.45030  0.69910  0.14598  Biso   1.000  C
  C492     1.0000 0.47590  0.74940  0.15760  Biso   1.000  C
  H688     1.0000 0.47910  0.74600  0.17780  Biso   1.000  H
  H689     1.0000 0.45350  0.78060  0.15310  Biso   1.000  H
  H690     1.0000 0.51170  0.75410  0.14960  Biso   1.000  H
  C493     1.0000 0.39270  0.68950  0.15760  Biso   1.000  C
  H691     1.0000 0.39450  0.68570  0.17780  Biso   1.000  H
  H692     1.0000 0.37780  0.65660  0.14960  Biso   1.000  H
  H693     1.0000 0.36970  0.72010  0.15290  Biso   1.000  H
  C494     1.0000 0.50430  0.64180  0.18110  Biso   1.000  C
  O208     1.0000 0.58630  0.83160  0.83550  Biso   1.000  O
  C495     1.0000 0.56230  0.86520  0.81270  Biso   1.000  C
  C496     1.0000 0.52860  0.83380  0.78640  Biso   1.000  C
  H694     1.0000 0.53800  0.85070  0.76870  Biso   1.000  H
  H695     1.0000 0.48980  0.83690  0.78950  Biso   1.000  H
  H696     1.0000 0.53870  0.79570  0.78590  Biso   1.000  H
