data_WIKXUJ_charged
_audit_creation_date              2014-07-02
_audit_creation_method            'Materials Studio'
_symmetry_space_group_name_H-M    'P1'
_symmetry_Int_Tables_number       1
_symmetry_cell_setting            triclinic
loop_
_symmetry_equiv_pos_as_xyz
  x,y,z
_cell_length_a                    15.3600
_cell_length_b                    22.4930
_cell_length_c                    23.8300
_cell_angle_alpha                 90.0000
_cell_angle_beta                  90.0000
_cell_angle_gamma                 90.0000
loop_
_atom_site_label
_atom_site_type_symbol
_atom_site_fract_x
_atom_site_fract_y
_atom_site_fract_z
_atom_site_U_iso_or_equiv
_atom_site_adp_type
_atom_site_occupancy
Li1    Li    0.76630   0.63530   0.57150   0.01267  Uiso   1.00
Li2    Li    0.19690   0.76780   0.76210   0.01267  Uiso   1.00
Li3    Li    0.73370   0.36470   0.07150   0.01267  Uiso   1.00
Li4    Li    0.30310   0.23220   0.26210   0.01267  Uiso   1.00
Li5    Li    0.23370   0.13530   0.92850   0.01267  Uiso   1.00
Li6    Li    0.80310   0.26780   0.73790   0.01267  Uiso   1.00
Li7    Li    0.26630   0.86470   0.42850   0.01267  Uiso   1.00
Li8    Li    0.69690   0.73220   0.23790   0.01267  Uiso   1.00
Co1    Co    0.70696   0.90119   0.78121   0.01267  Uiso   1.00
Co2    Co    0.79304   0.09881   0.28121   0.01267  Uiso   1.00
Co3    Co    0.29304   0.40119   0.71879   0.01267  Uiso   1.00
Co4    Co    0.20696   0.59881   0.21879   0.01267  Uiso   1.00
P1     P     0.40258   0.77958   0.47421   0.01267  Uiso   1.00
P2     P     0.09742   0.22042   0.97421   0.01267  Uiso   1.00
P3     P     0.59742   0.27958   0.02579   0.01267  Uiso   1.00
P4     P     0.90258   0.72042   0.52579   0.01267  Uiso   1.00
H1     H     0.00970   0.84910   0.74870   0.01267  Uiso   1.00
H2     H     0.75850   0.10570   0.84300   0.01267  Uiso   1.00
H3     H     0.60700   0.06580   0.82950   0.01267  Uiso   1.00
H4     H     0.40930   0.90400   0.85810   0.01267  Uiso   1.00
H5     H     0.67960   0.73010   0.69940   0.01267  Uiso   1.00
H6     H     0.76420   0.76940   0.80000   0.01267  Uiso   1.00
H7     H     0.81250   0.84210   0.64370   0.01267  Uiso   1.00
H8     H     0.78150   0.77430   0.64690   0.01267  Uiso   1.00
H9     H     0.71570   0.82650   0.66360   0.01267  Uiso   1.00
H10    H     0.90310   0.70540   0.69650   0.01267  Uiso   1.00
H11    H     0.91850   0.75650   0.65080   0.01267  Uiso   1.00
H12    H     0.99640   0.73660   0.69120   0.01267  Uiso   1.00
H13    H     0.88630   0.73040   0.79890   0.01267  Uiso   1.00
H14    H     0.90870   0.79620   0.81990   0.01267  Uiso   1.00
H15    H     0.08530   0.67700   0.81560   0.01267  Uiso   1.00
H16    H     0.98800   0.66840   0.82500   0.01267  Uiso   1.00
H17    H     0.92340   0.89080   0.64880   0.01267  Uiso   1.00
H18    H     0.99000   0.83670   0.64180   0.01267  Uiso   1.00
H19    H     0.03130   0.95390   0.67710   0.01267  Uiso   1.00
H20    H     0.09860   0.90030   0.68570   0.01267  Uiso   1.00
H21    H     0.12780   0.98500   0.55390   0.01267  Uiso   1.00
H22    H     0.10370   0.00710   0.61230   0.01267  Uiso   1.00
H23    H     0.01490   0.97310   0.83590   0.01267  Uiso   1.00
H24    H     0.03960   0.91670   0.79810   0.01267  Uiso   1.00
H25    H     0.03550   0.98160   0.77060   0.01267  Uiso   1.00
H26    H     0.95640   0.08130   0.78110   0.01267  Uiso   1.00
H27    H     0.93370   0.12340   0.83320   0.01267  Uiso   1.00
H28    H     0.99350   0.06590   0.84220   0.01267  Uiso   1.00
H29    H     0.79770   0.01400   0.90530   0.01267  Uiso   1.00
H30    H     0.84830   0.07470   0.91690   0.01267  Uiso   1.00
H31    H     0.95720   0.92190   0.94920   0.01267  Uiso   1.00
H32    H     0.87210   0.92470   0.91640   0.01267  Uiso   1.00
H33    H     0.82020   0.08220   0.73020   0.01267  Uiso   1.00
H34    H     0.82160   0.14540   0.76090   0.01267  Uiso   1.00
H35    H     0.66180   0.14140   0.75840   0.01267  Uiso   1.00
H36    H     0.67230   0.08690   0.71590   0.01267  Uiso   1.00
H37    H     0.65630   0.18380   0.60900   0.01267  Uiso   1.00
H38    H     0.62040   0.12730   0.63560   0.01267  Uiso   1.00
H39    H     0.53480   0.00650   0.93200   0.01267  Uiso   1.00
H40    H     0.44730   0.96820   0.93680   0.01267  Uiso   1.00
H41    H     0.53770   0.93610   0.92260   0.01267  Uiso   1.00
H42    H     0.42960   0.04730   0.80410   0.01267  Uiso   1.00
H43    H     0.37900   0.03710   0.86210   0.01267  Uiso   1.00
H44    H     0.46940   0.07260   0.86140   0.01267  Uiso   1.00
H45    H     0.40400   0.97070   0.75650   0.01267  Uiso   1.00
H46    H     0.38670   0.90070   0.75230   0.01267  Uiso   1.00
H47    H     0.25610   0.96550   0.76330   0.01267  Uiso   1.00
H48    H     0.28450   0.97130   0.82780   0.01267  Uiso   1.00
H49    H     0.19180   0.84400   0.86810   0.01267  Uiso   1.00
H50    H     0.22420   0.90570   0.88450   0.01267  Uiso   1.00
H51    H     0.40530   0.79080   0.76640   0.01267  Uiso   1.00
H52    H     0.44080   0.75800   0.82140   0.01267  Uiso   1.00
H53    H     0.39130   0.82040   0.82680   0.01267  Uiso   1.00
H54    H     0.54680   0.71480   0.84990   0.01267  Uiso   1.00
H55    H     0.59930   0.65850   0.82670   0.01267  Uiso   1.00
H56    H     0.65100   0.71490   0.85040   0.01267  Uiso   1.00
H57    H     0.47540   0.69710   0.75260   0.01267  Uiso   1.00
H58    H     0.55020   0.65920   0.72300   0.01267  Uiso   1.00
H59    H     0.56830   0.73850   0.65520   0.01267  Uiso   1.00
H60    H     0.48750   0.77220   0.68330   0.01267  Uiso   1.00
H61    H     0.53660   0.68550   0.58020   0.01267  Uiso   1.00
H62    H     0.78550   0.66910   0.77230   0.01267  Uiso   1.00
H63    H     0.69300   0.63680   0.76740   0.01267  Uiso   1.00
H64    H     0.83630   0.57410   0.66600   0.01267  Uiso   1.00
H65    H     0.83960   0.58250   0.72940   0.01267  Uiso   1.00
H66    H     0.46970   0.61720   0.52740   0.01267  Uiso   1.00
H67    H     0.39790   0.61030   0.57540   0.01267  Uiso   1.00
H68    H     0.32890   0.69950   0.54110   0.01267  Uiso   1.00
H69    H     0.34260   0.60780   0.45730   0.01267  Uiso   1.00
H70    H     0.27440   0.60600   0.50800   0.01267  Uiso   1.00
H71    H     0.26580   0.65570   0.46030   0.01267  Uiso   1.00
H72    H     0.50070   0.97020   0.56720   0.01267  Uiso   1.00
H73    H     0.55150   0.88700   0.52130   0.01267  Uiso   1.00
H74    H     0.39830   0.88260   0.52200   0.01267  Uiso   1.00
H75    H     0.40320   0.84020   0.63660   0.01267  Uiso   1.00
H76    H     0.26270   0.84560   0.59910   0.01267  Uiso   1.00
H77    H     0.27940   0.91220   0.57790   0.01267  Uiso   1.00
H78    H     0.59740   0.81400   0.57080   0.01267  Uiso   1.00
H79    H     0.25290   0.87750   0.68300   0.01267  Uiso   1.00
H80    H     0.55040   0.89570   0.69990   0.01267  Uiso   1.00
H81    H     0.83640   0.98200   0.69030   0.01267  Uiso   1.00
H82    H     0.63860   0.01550   0.54110   0.01267  Uiso   1.00
H83    H     0.94370   0.03390   0.58340   0.01267  Uiso   1.00
H84    H     0.90250   0.09480   0.60570   0.01267  Uiso   1.00
H85    H     0.93730   0.04630   0.64940   0.01267  Uiso   1.00
H86    H     0.73790   0.08010   0.49620   0.01267  Uiso   1.00
H87    H     0.81250   0.10980   0.53380   0.01267  Uiso   1.00
H88    H     0.83300   0.05110   0.49820   0.01267  Uiso   1.00
H89    H     0.18730   0.75150   0.65070   0.01267  Uiso   1.00
H90    H     0.27440   0.73450   0.67310   0.01267  Uiso   1.00
H91    H     0.67460   0.55760   0.53410   0.01267  Uiso   1.00
H92    H     0.63730   0.60950   0.50310   0.01267  Uiso   1.00
H93    H     0.81760   0.53350   0.56100   0.01267  Uiso   1.00
H94    H     0.90590   0.55640   0.57530   0.01267  Uiso   1.00
H95    H     0.49030   0.15090   0.24870   0.01267  Uiso   1.00
H96    H     0.74150   0.89430   0.34300   0.01267  Uiso   1.00
H97    H     0.89300   0.93420   0.32950   0.01267  Uiso   1.00
H98    H     0.09070   0.09600   0.35810   0.01267  Uiso   1.00
H99    H     0.82040   0.26990   0.19940   0.01267  Uiso   1.00
H100   H     0.73580   0.23060   0.30000   0.01267  Uiso   1.00
H101   H     0.68750   0.15790   0.14370   0.01267  Uiso   1.00
H102   H     0.71850   0.22570   0.14690   0.01267  Uiso   1.00
H103   H     0.78430   0.17350   0.16360   0.01267  Uiso   1.00
H104   H     0.59690   0.29460   0.19650   0.01267  Uiso   1.00
H105   H     0.58150   0.24350   0.15080   0.01267  Uiso   1.00
H106   H     0.50360   0.26340   0.19120   0.01267  Uiso   1.00
H107   H     0.61370   0.26960   0.29890   0.01267  Uiso   1.00
H108   H     0.59130   0.20380   0.31990   0.01267  Uiso   1.00
H109   H     0.41470   0.32300   0.31560   0.01267  Uiso   1.00
H110   H     0.51200   0.33160   0.32500   0.01267  Uiso   1.00
H111   H     0.57660   0.10920   0.14880   0.01267  Uiso   1.00
H112   H     0.51000   0.16330   0.14180   0.01267  Uiso   1.00
H113   H     0.46870   0.04610   0.17710   0.01267  Uiso   1.00
H114   H     0.40140   0.09970   0.18570   0.01267  Uiso   1.00
H115   H     0.37220   0.01500   0.05390   0.01267  Uiso   1.00
H116   H     0.39630   0.99290   0.11230   0.01267  Uiso   1.00
H117   H     0.48510   0.02690   0.33590   0.01267  Uiso   1.00
H118   H     0.46040   0.08330   0.29810   0.01267  Uiso   1.00
H119   H     0.46450   0.01840   0.27060   0.01267  Uiso   1.00
H120   H     0.54360   0.91870   0.28110   0.01267  Uiso   1.00
H121   H     0.56630   0.87660   0.33320   0.01267  Uiso   1.00
H122   H     0.50650   0.93410   0.34220   0.01267  Uiso   1.00
H123   H     0.70230   0.98600   0.40530   0.01267  Uiso   1.00
H124   H     0.65170   0.92530   0.41690   0.01267  Uiso   1.00
H125   H     0.54280   0.07810   0.44920   0.01267  Uiso   1.00
H126   H     0.62790   0.07530   0.41640   0.01267  Uiso   1.00
H127   H     0.67980   0.91780   0.23020   0.01267  Uiso   1.00
H128   H     0.67840   0.85460   0.26090   0.01267  Uiso   1.00
H129   H     0.83820   0.85860   0.25840   0.01267  Uiso   1.00
H130   H     0.82770   0.91310   0.21590   0.01267  Uiso   1.00
H131   H     0.84370   0.81620   0.10900   0.01267  Uiso   1.00
H132   H     0.87960   0.87270   0.13560   0.01267  Uiso   1.00
H133   H     0.96520   0.99350   0.43200   0.01267  Uiso   1.00
H134   H     0.05270   0.03180   0.43680   0.01267  Uiso   1.00
H135   H     0.96230   0.06390   0.42260   0.01267  Uiso   1.00
H136   H     0.07040   0.95270   0.30410   0.01267  Uiso   1.00
H137   H     0.12100   0.96290   0.36210   0.01267  Uiso   1.00
H138   H     0.03060   0.92740   0.36140   0.01267  Uiso   1.00
H139   H     0.09600   0.02930   0.25650   0.01267  Uiso   1.00
H140   H     0.11330   0.09930   0.25230   0.01267  Uiso   1.00
H141   H     0.24390   0.03450   0.26330   0.01267  Uiso   1.00
H142   H     0.21550   0.02870   0.32780   0.01267  Uiso   1.00
H143   H     0.30820   0.15600   0.36810   0.01267  Uiso   1.00
H144   H     0.27580   0.09430   0.38450   0.01267  Uiso   1.00
H145   H     0.09470   0.20920   0.26640   0.01267  Uiso   1.00
H146   H     0.05920   0.24200   0.32140   0.01267  Uiso   1.00
H147   H     0.10870   0.17960   0.32680   0.01267  Uiso   1.00
H148   H     0.95320   0.28520   0.34990   0.01267  Uiso   1.00
H149   H     0.90070   0.34150   0.32670   0.01267  Uiso   1.00
H150   H     0.84900   0.28510   0.35040   0.01267  Uiso   1.00
H151   H     0.02460   0.30290   0.25260   0.01267  Uiso   1.00
H152   H     0.94980   0.34080   0.22300   0.01267  Uiso   1.00
H153   H     0.93170   0.26150   0.15520   0.01267  Uiso   1.00
H154   H     0.01250   0.22780   0.18330   0.01267  Uiso   1.00
H155   H     0.96340   0.31450   0.08020   0.01267  Uiso   1.00
H156   H     0.71450   0.33090   0.27230   0.01267  Uiso   1.00
H157   H     0.80700   0.36320   0.26740   0.01267  Uiso   1.00
H158   H     0.66370   0.42590   0.16600   0.01267  Uiso   1.00
H159   H     0.66040   0.41750   0.22940   0.01267  Uiso   1.00
H160   H     0.03030   0.38280   0.02740   0.01267  Uiso   1.00
H161   H     0.10210   0.38970   0.07540   0.01267  Uiso   1.00
H162   H     0.17110   0.30050   0.04110   0.01267  Uiso   1.00
H163   H     0.15740   0.39220   0.95730   0.01267  Uiso   1.00
H164   H     0.22560   0.39400   0.00800   0.01267  Uiso   1.00
H165   H     0.23420   0.34430   0.96030   0.01267  Uiso   1.00
H166   H     0.99930   0.02980   0.06720   0.01267  Uiso   1.00
H167   H     0.94850   0.11300   0.02130   0.01267  Uiso   1.00
H168   H     0.10170   0.11740   0.02200   0.01267  Uiso   1.00
H169   H     0.09680   0.15980   0.13660   0.01267  Uiso   1.00
H170   H     0.23730   0.15440   0.09910   0.01267  Uiso   1.00
H171   H     0.22060   0.08780   0.07790   0.01267  Uiso   1.00
H172   H     0.90260   0.18600   0.07080   0.01267  Uiso   1.00
H173   H     0.24710   0.12250   0.18300   0.01267  Uiso   1.00
H174   H     0.94960   0.10430   0.19990   0.01267  Uiso   1.00
H175   H     0.66360   0.01800   0.19030   0.01267  Uiso   1.00
H176   H     0.86140   0.98450   0.04110   0.01267  Uiso   1.00
H177   H     0.55630   0.96610   0.08340   0.01267  Uiso   1.00
H178   H     0.59750   0.90520   0.10570   0.01267  Uiso   1.00
H179   H     0.56270   0.95370   0.14940   0.01267  Uiso   1.00
H180   H     0.76210   0.91990   0.99620   0.01267  Uiso   1.00
H181   H     0.68750   0.89020   0.03380   0.01267  Uiso   1.00
H182   H     0.66700   0.94890   0.99820   0.01267  Uiso   1.00
H183   H     0.31270   0.24850   0.15070   0.01267  Uiso   1.00
H184   H     0.22560   0.26550   0.17310   0.01267  Uiso   1.00
H185   H     0.82540   0.44240   0.03410   0.01267  Uiso   1.00
H186   H     0.86270   0.39050   0.00310   0.01267  Uiso   1.00
H187   H     0.68240   0.46650   0.06100   0.01267  Uiso   1.00
H188   H     0.59410   0.44360   0.07530   0.01267  Uiso   1.00
H189   H     0.99030   0.34910   0.75130   0.01267  Uiso   1.00
H190   H     0.24150   0.60570   0.65700   0.01267  Uiso   1.00
H191   H     0.39300   0.56580   0.67050   0.01267  Uiso   1.00
H192   H     0.59070   0.40400   0.64190   0.01267  Uiso   1.00
H193   H     0.32040   0.23010   0.80060   0.01267  Uiso   1.00
H194   H     0.23580   0.26940   0.70000   0.01267  Uiso   1.00
H195   H     0.18750   0.34210   0.85630   0.01267  Uiso   1.00
H196   H     0.21850   0.27430   0.85310   0.01267  Uiso   1.00
H197   H     0.28430   0.32650   0.83640   0.01267  Uiso   1.00
H198   H     0.09690   0.20540   0.80350   0.01267  Uiso   1.00
H199   H     0.08150   0.25650   0.84920   0.01267  Uiso   1.00
H200   H     0.00360   0.23660   0.80880   0.01267  Uiso   1.00
H201   H     0.11370   0.23040   0.70110   0.01267  Uiso   1.00
H202   H     0.09130   0.29620   0.68010   0.01267  Uiso   1.00
H203   H     0.91470   0.17700   0.68440   0.01267  Uiso   1.00
H204   H     0.01200   0.16840   0.67500   0.01267  Uiso   1.00
H205   H     0.07660   0.39080   0.85120   0.01267  Uiso   1.00
H206   H     0.01000   0.33670   0.85820   0.01267  Uiso   1.00
H207   H     0.96870   0.45390   0.82290   0.01267  Uiso   1.00
H208   H     0.90140   0.40030   0.81430   0.01267  Uiso   1.00
H209   H     0.87220   0.48500   0.94610   0.01267  Uiso   1.00
H210   H     0.89630   0.50710   0.88770   0.01267  Uiso   1.00
H211   H     0.98510   0.47310   0.66410   0.01267  Uiso   1.00
H212   H     0.96040   0.41670   0.70190   0.01267  Uiso   1.00
H213   H     0.96450   0.48160   0.72940   0.01267  Uiso   1.00
H214   H     0.04360   0.58130   0.71890   0.01267  Uiso   1.00
H215   H     0.06630   0.62340   0.66680   0.01267  Uiso   1.00
H216   H     0.00650   0.56590   0.65780   0.01267  Uiso   1.00
H217   H     0.20230   0.51400   0.59470   0.01267  Uiso   1.00
H218   H     0.15170   0.57470   0.58310   0.01267  Uiso   1.00
H219   H     0.04280   0.42190   0.55080   0.01267  Uiso   1.00
H220   H     0.12790   0.42470   0.58360   0.01267  Uiso   1.00
H221   H     0.17980   0.58220   0.76980   0.01267  Uiso   1.00
H222   H     0.17840   0.64540   0.73910   0.01267  Uiso   1.00
H223   H     0.33820   0.64140   0.74160   0.01267  Uiso   1.00
H224   H     0.32770   0.58690   0.78410   0.01267  Uiso   1.00
H225   H     0.34370   0.68380   0.89100   0.01267  Uiso   1.00
H226   H     0.37960   0.62730   0.86440   0.01267  Uiso   1.00
H227   H     0.46520   0.50650   0.56800   0.01267  Uiso   1.00
H228   H     0.55270   0.46820   0.56320   0.01267  Uiso   1.00
H229   H     0.46230   0.43610   0.57740   0.01267  Uiso   1.00
H230   H     0.57040   0.54730   0.69590   0.01267  Uiso   1.00
H231   H     0.62100   0.53710   0.63790   0.01267  Uiso   1.00
H232   H     0.53060   0.57260   0.63860   0.01267  Uiso   1.00
H233   H     0.59600   0.47070   0.74350   0.01267  Uiso   1.00
H234   H     0.61330   0.40070   0.74770   0.01267  Uiso   1.00
H235   H     0.74390   0.46550   0.73670   0.01267  Uiso   1.00
H236   H     0.71550   0.47130   0.67220   0.01267  Uiso   1.00
H237   H     0.80820   0.34400   0.63190   0.01267  Uiso   1.00
H238   H     0.77580   0.40570   0.61550   0.01267  Uiso   1.00
H239   H     0.59470   0.29080   0.73360   0.01267  Uiso   1.00
H240   H     0.55920   0.25800   0.67860   0.01267  Uiso   1.00
H241   H     0.60870   0.32040   0.67320   0.01267  Uiso   1.00
H242   H     0.45320   0.21480   0.65010   0.01267  Uiso   1.00
H243   H     0.40070   0.15850   0.67330   0.01267  Uiso   1.00
H244   H     0.34900   0.21490   0.64960   0.01267  Uiso   1.00
H245   H     0.52460   0.19710   0.74740   0.01267  Uiso   1.00
H246   H     0.44980   0.15920   0.77700   0.01267  Uiso   1.00
H247   H     0.43170   0.23850   0.84480   0.01267  Uiso   1.00
H248   H     0.51250   0.27220   0.81670   0.01267  Uiso   1.00
H249   H     0.46340   0.18550   0.91980   0.01267  Uiso   1.00
H250   H     0.21450   0.16910   0.72770   0.01267  Uiso   1.00
H251   H     0.30700   0.13680   0.73260   0.01267  Uiso   1.00
H252   H     0.16370   0.07410   0.83400   0.01267  Uiso   1.00
H253   H     0.16040   0.08250   0.77060   0.01267  Uiso   1.00
H254   H     0.53030   0.11720   0.97260   0.01267  Uiso   1.00
H255   H     0.60210   0.11030   0.92460   0.01267  Uiso   1.00
H256   H     0.67110   0.19950   0.95890   0.01267  Uiso   1.00
H257   H     0.65740   0.10780   0.04270   0.01267  Uiso   1.00
H258   H     0.72560   0.10600   0.99200   0.01267  Uiso   1.00
H259   H     0.73420   0.15570   0.03970   0.01267  Uiso   1.00
H260   H     0.49930   0.47020   0.93280   0.01267  Uiso   1.00
H261   H     0.44850   0.38700   0.97870   0.01267  Uiso   1.00
H262   H     0.60170   0.38260   0.97800   0.01267  Uiso   1.00
H263   H     0.59680   0.34020   0.86340   0.01267  Uiso   1.00
H264   H     0.73730   0.34560   0.90090   0.01267  Uiso   1.00
H265   H     0.72060   0.41220   0.92210   0.01267  Uiso   1.00
H266   H     0.40260   0.31400   0.92920   0.01267  Uiso   1.00
H267   H     0.74710   0.37750   0.81700   0.01267  Uiso   1.00
H268   H     0.44960   0.39570   0.80010   0.01267  Uiso   1.00
H269   H     0.16360   0.48200   0.80970   0.01267  Uiso   1.00
H270   H     0.36140   0.51550   0.95890   0.01267  Uiso   1.00
H271   H     0.05630   0.53390   0.91660   0.01267  Uiso   1.00
H272   H     0.09750   0.59480   0.89430   0.01267  Uiso   1.00
H273   H     0.06270   0.54630   0.85060   0.01267  Uiso   1.00
H274   H     0.26210   0.58010   0.00380   0.01267  Uiso   1.00
H275   H     0.18750   0.60980   0.96620   0.01267  Uiso   1.00
H276   H     0.16700   0.55110   0.00180   0.01267  Uiso   1.00
H277   H     0.81270   0.25150   0.84930   0.01267  Uiso   1.00
H278   H     0.72560   0.23450   0.82690   0.01267  Uiso   1.00
H279   H     0.32540   0.05760   0.96590   0.01267  Uiso   1.00
H280   H     0.36270   0.10950   0.99690   0.01267  Uiso   1.00
H281   H     0.18240   0.03350   0.93900   0.01267  Uiso   1.00
H282   H     0.09410   0.05640   0.92470   0.01267  Uiso   1.00
H283   H     0.50970   0.65090   0.25130   0.01267  Uiso   1.00
H284   H     0.25850   0.39430   0.15700   0.01267  Uiso   1.00
H285   H     0.10700   0.43420   0.17050   0.01267  Uiso   1.00
H286   H     0.90930   0.59600   0.14190   0.01267  Uiso   1.00
H287   H     0.17960   0.76990   0.30060   0.01267  Uiso   1.00
H288   H     0.26420   0.73060   0.20000   0.01267  Uiso   1.00
H289   H     0.31250   0.65790   0.35630   0.01267  Uiso   1.00
H290   H     0.28150   0.72570   0.35310   0.01267  Uiso   1.00
H291   H     0.21570   0.67350   0.33640   0.01267  Uiso   1.00
H292   H     0.40310   0.79460   0.30350   0.01267  Uiso   1.00
H293   H     0.41850   0.74350   0.34920   0.01267  Uiso   1.00
H294   H     0.49640   0.76340   0.30880   0.01267  Uiso   1.00
H295   H     0.38630   0.76960   0.20110   0.01267  Uiso   1.00
H296   H     0.40870   0.70380   0.18010   0.01267  Uiso   1.00
H297   H     0.58530   0.82300   0.18440   0.01267  Uiso   1.00
H298   H     0.48800   0.83160   0.17500   0.01267  Uiso   1.00
H299   H     0.42340   0.60920   0.35120   0.01267  Uiso   1.00
H300   H     0.49000   0.66330   0.35820   0.01267  Uiso   1.00
H301   H     0.53130   0.54610   0.32290   0.01267  Uiso   1.00
H302   H     0.59860   0.59970   0.31430   0.01267  Uiso   1.00
H303   H     0.62780   0.51500   0.44610   0.01267  Uiso   1.00
H304   H     0.60370   0.49290   0.38770   0.01267  Uiso   1.00
H305   H     0.51490   0.52690   0.16410   0.01267  Uiso   1.00
H306   H     0.53960   0.58330   0.20190   0.01267  Uiso   1.00
H307   H     0.53550   0.51840   0.22940   0.01267  Uiso   1.00
H308   H     0.45640   0.41870   0.21890   0.01267  Uiso   1.00
H309   H     0.43370   0.37660   0.16680   0.01267  Uiso   1.00
H310   H     0.49350   0.43410   0.15780   0.01267  Uiso   1.00
H311   H     0.29770   0.48600   0.09470   0.01267  Uiso   1.00
H312   H     0.34830   0.42530   0.08310   0.01267  Uiso   1.00
H313   H     0.45720   0.57810   0.05080   0.01267  Uiso   1.00
H314   H     0.37210   0.57530   0.08360   0.01267  Uiso   1.00
H315   H     0.32020   0.41780   0.26980   0.01267  Uiso   1.00
H316   H     0.32160   0.35460   0.23910   0.01267  Uiso   1.00
H317   H     0.16180   0.35860   0.24160   0.01267  Uiso   1.00
H318   H     0.17230   0.41310   0.28410   0.01267  Uiso   1.00
H319   H     0.15630   0.31620   0.39100   0.01267  Uiso   1.00
H320   H     0.12040   0.37270   0.36440   0.01267  Uiso   1.00
H321   H     0.03480   0.49350   0.06800   0.01267  Uiso   1.00
H322   H     0.94730   0.53180   0.06320   0.01267  Uiso   1.00
H323   H     0.03770   0.56390   0.07740   0.01267  Uiso   1.00
H324   H     0.92960   0.45270   0.19590   0.01267  Uiso   1.00
H325   H     0.87900   0.46290   0.13790   0.01267  Uiso   1.00
H326   H     0.96940   0.42740   0.13860   0.01267  Uiso   1.00
H327   H     0.90400   0.52930   0.24350   0.01267  Uiso   1.00
H328   H     0.88670   0.59930   0.24770   0.01267  Uiso   1.00
H329   H     0.75610   0.53450   0.23670   0.01267  Uiso   1.00
H330   H     0.78450   0.52870   0.17220   0.01267  Uiso   1.00
H331   H     0.69180   0.65600   0.13190   0.01267  Uiso   1.00
H332   H     0.72420   0.59430   0.11550   0.01267  Uiso   1.00
H333   H     0.90530   0.70920   0.23360   0.01267  Uiso   1.00
H334   H     0.94080   0.74200   0.17860   0.01267  Uiso   1.00
H335   H     0.89130   0.67960   0.17320   0.01267  Uiso   1.00
H336   H     0.04680   0.78520   0.15010   0.01267  Uiso   1.00
H337   H     0.09930   0.84150   0.17330   0.01267  Uiso   1.00
H338   H     0.15100   0.78510   0.14960   0.01267  Uiso   1.00
H339   H     0.97540   0.80290   0.24740   0.01267  Uiso   1.00
H340   H     0.05020   0.84080   0.27700   0.01267  Uiso   1.00
H341   H     0.06830   0.76150   0.34480   0.01267  Uiso   1.00
H342   H     0.98750   0.72780   0.31670   0.01267  Uiso   1.00
H343   H     0.03660   0.81450   0.41980   0.01267  Uiso   1.00
H344   H     0.28550   0.83090   0.22770   0.01267  Uiso   1.00
H345   H     0.19300   0.86320   0.23260   0.01267  Uiso   1.00
H346   H     0.33630   0.92590   0.33400   0.01267  Uiso   1.00
H347   H     0.33960   0.91750   0.27060   0.01267  Uiso   1.00
H348   H     0.96970   0.88280   0.47260   0.01267  Uiso   1.00
H349   H     0.89790   0.88970   0.42460   0.01267  Uiso   1.00
H350   H     0.82890   0.80050   0.45890   0.01267  Uiso   1.00
H351   H     0.84260   0.89220   0.54270   0.01267  Uiso   1.00
H352   H     0.77440   0.89400   0.49200   0.01267  Uiso   1.00
H353   H     0.76580   0.84430   0.53970   0.01267  Uiso   1.00
H354   H     0.00070   0.52980   0.43280   0.01267  Uiso   1.00
H355   H     0.05150   0.61300   0.47870   0.01267  Uiso   1.00
H356   H     0.89830   0.61740   0.47800   0.01267  Uiso   1.00
H357   H     0.90320   0.65980   0.36340   0.01267  Uiso   1.00
H358   H     0.76270   0.65440   0.40090   0.01267  Uiso   1.00
H359   H     0.77940   0.58780   0.42210   0.01267  Uiso   1.00
H360   H     0.09740   0.68600   0.42920   0.01267  Uiso   1.00
H361   H     0.75290   0.62250   0.31700   0.01267  Uiso   1.00
H362   H     0.05040   0.60430   0.30010   0.01267  Uiso   1.00
H363   H     0.33640   0.51800   0.30970   0.01267  Uiso   1.00
H364   H     0.13860   0.48450   0.45890   0.01267  Uiso   1.00
H365   H     0.44370   0.46610   0.41660   0.01267  Uiso   1.00
H366   H     0.40250   0.40520   0.39430   0.01267  Uiso   1.00
H367   H     0.43730   0.45370   0.35060   0.01267  Uiso   1.00
H368   H     0.23790   0.41990   0.50380   0.01267  Uiso   1.00
H369   H     0.31250   0.39020   0.46620   0.01267  Uiso   1.00
H370   H     0.33300   0.44890   0.50180   0.01267  Uiso   1.00
H371   H     0.68730   0.74850   0.34930   0.01267  Uiso   1.00
H372   H     0.77440   0.76550   0.32690   0.01267  Uiso   1.00
H373   H     0.17460   0.94240   0.46590   0.01267  Uiso   1.00
H374   H     0.13730   0.89050   0.49690   0.01267  Uiso   1.00
H375   H     0.31760   0.96650   0.43900   0.01267  Uiso   1.00
H376   H     0.40590   0.94360   0.42470   0.01267  Uiso   1.00
C1     C     0.73880   0.87667   0.85407   0.01267  Uiso   1.00
C2     C     0.80840   0.81000   0.72620   0.01267  Uiso   1.00
C3     C     0.90550   0.78994   0.73162   0.01267  Uiso   1.00
C4     C     0.95460   0.85085   0.72639   0.01267  Uiso   1.00
C5     C     0.89060   0.89125   0.75568   0.01267  Uiso   1.00
C6     C     0.91440   0.94593   0.78513   0.01267  Uiso   1.00
C7     C     0.85180   0.98477   0.80274   0.01267  Uiso   1.00
C8     C     0.86330   0.04525   0.83353   0.01267  Uiso   1.00
C9     C     0.77890   0.07689   0.81385   0.01267  Uiso   1.00
C10    C     0.71720   0.02480   0.81013   0.01267  Uiso   1.00
C11    C     0.63080   0.02763   0.82218   0.01267  Uiso   1.00
C12    C     0.57460   0.97951   0.82462   0.01267  Uiso   1.00
C13    C     0.48590   0.98146   0.85317   0.01267  Uiso   1.00
C14    C     0.44250   0.92522   0.82801   0.01267  Uiso   1.00
C15    C     0.52020   0.88822   0.81120   0.01267  Uiso   1.00
C16    C     0.51680   0.82908   0.79774   0.01267  Uiso   1.00
C17    C     0.59200   0.79743   0.77797   0.01267  Uiso   1.00
C18    C     0.59980   0.72952   0.77063   0.01267  Uiso   1.00
C19    C     0.68970   0.72417   0.74051   0.01267  Uiso   1.00
C20    C     0.73860   0.77899   0.76249   0.01267  Uiso   1.00
C21    C     0.77660   0.81353   0.66439   0.01267  Uiso   1.00
C22    C     0.93340   0.74283   0.68862   0.01267  Uiso   1.00
C23    C     0.92420   0.76529   0.79204   0.01267  Uiso   1.00
C24    C     0.01790   0.74718   0.80100   0.01267  Uiso   1.00
C25    C     0.97590   0.87192   0.66500   0.01267  Uiso   1.00
C26    C     0.05030   0.91498   0.66197   0.01267  Uiso   1.00
C27    C     0.08310   0.92344   0.60191   0.01267  Uiso   1.00
C28    C     0.00940   0.95513   0.79862   0.01267  Uiso   1.00
C29    C     0.94390   0.08224   0.82145   0.01267  Uiso   1.00
C30    C     0.85320   0.03523   0.89876   0.01267  Uiso   1.00
C31    C     0.92470   0.00115   0.92811   0.01267  Uiso   1.00
C32    C     0.78750   0.10841   0.75602   0.01267  Uiso   1.00
C33    C     0.70010   0.12395   0.72934   0.01267  Uiso   1.00
C34    C     0.70680   0.16652   0.68150   0.01267  Uiso   1.00
C35    C     0.50300   0.97219   0.91709   0.01267  Uiso   1.00
C36    C     0.43650   0.03987   0.84440   0.01267  Uiso   1.00
C37    C     0.38310   0.93552   0.77757   0.01267  Uiso   1.00
C38    C     0.28730   0.94539   0.79431   0.01267  Uiso   1.00
C39    C     0.24370   0.88674   0.80698   0.01267  Uiso   1.00
C40    C     0.43100   0.79672   0.80362   0.01267  Uiso   1.00
C41    C     0.59920   0.70190   0.82977   0.01267  Uiso   1.00
C42    C     0.53080   0.70017   0.73162   0.01267  Uiso   1.00
C43    C     0.51270   0.73255   0.67549   0.01267  Uiso   1.00
C44    C     0.45080   0.69758   0.63901   0.01267  Uiso   1.00
C45    C     0.73370   0.66416   0.74807   0.01267  Uiso   1.00
C46    C     0.76160   0.63630   0.69249   0.01267  Uiso   1.00
C47    C     0.43020   0.63960   0.55243   0.01267  Uiso   1.00
C48    C     0.36560   0.67351   0.51662   0.01267  Uiso   1.00
C49    C     0.30680   0.63200   0.48247   0.01267  Uiso   1.00
C50    C     0.50840   0.93544   0.59284   0.01267  Uiso   1.00
C51    C     0.52290   0.87880   0.55815   0.01267  Uiso   1.00
C52    C     0.42800   0.85855   0.55165   0.01267  Uiso   1.00
C53    C     0.38900   0.87260   0.60934   0.01267  Uiso   1.00
C54    C     0.29290   0.88333   0.60803   0.01267  Uiso   1.00
C55    C     0.59290   0.91983   0.68203   0.01267  Uiso   1.00
C56    C     0.79630   0.98901   0.66072   0.01267  Uiso   1.00
C57    C     0.82040   0.02387   0.61418   0.01267  Uiso   1.00
C58    C     0.76130   0.03404   0.56935   0.01267  Uiso   1.00
C59    C     0.67870   0.00945   0.57094   0.01267  Uiso   1.00
C60    C     0.65650   0.97576   0.61754   0.01267  Uiso   1.00
C61    C     0.71390   0.96515   0.66275   0.01267  Uiso   1.00
C62    C     0.90860   0.05220   0.61300   0.01267  Uiso   1.00
C63    C     0.78860   0.07210   0.52000   0.01267  Uiso   1.00
C64    C     0.76120   0.12333   0.35407   0.01267  Uiso   1.00
C65    C     0.69160   0.19000   0.22620   0.01267  Uiso   1.00
C66    C     0.59450   0.21006   0.23162   0.01267  Uiso   1.00
C67    C     0.54540   0.14915   0.22639   0.01267  Uiso   1.00
C68    C     0.60940   0.10875   0.25568   0.01267  Uiso   1.00
C69    C     0.58560   0.05407   0.28513   0.01267  Uiso   1.00
C70    C     0.64820   0.01523   0.30274   0.01267  Uiso   1.00
C71    C     0.63670   0.95475   0.33353   0.01267  Uiso   1.00
C72    C     0.72110   0.92311   0.31385   0.01267  Uiso   1.00
C73    C     0.78280   0.97520   0.31013   0.01267  Uiso   1.00
C74    C     0.86920   0.97237   0.32218   0.01267  Uiso   1.00
C75    C     0.92540   0.02049   0.32462   0.01267  Uiso   1.00
C76    C     0.01410   0.01854   0.35317   0.01267  Uiso   1.00
C77    C     0.05750   0.07478   0.32801   0.01267  Uiso   1.00
C78    C     0.97980   0.11178   0.31120   0.01267  Uiso   1.00
C79    C     0.98320   0.17092   0.29774   0.01267  Uiso   1.00
C80    C     0.90800   0.20257   0.27797   0.01267  Uiso   1.00
C81    C     0.90020   0.27048   0.27063   0.01267  Uiso   1.00
C82    C     0.81030   0.27583   0.24051   0.01267  Uiso   1.00
C83    C     0.76140   0.22101   0.26249   0.01267  Uiso   1.00
C84    C     0.72340   0.18647   0.16439   0.01267  Uiso   1.00
C85    C     0.56660   0.25717   0.18862   0.01267  Uiso   1.00
C86    C     0.57580   0.23471   0.29204   0.01267  Uiso   1.00
C87    C     0.48210   0.25282   0.30100   0.01267  Uiso   1.00
C88    C     0.52410   0.12808   0.16500   0.01267  Uiso   1.00
C89    C     0.44970   0.08502   0.16197   0.01267  Uiso   1.00
C90    C     0.41690   0.07656   0.10191   0.01267  Uiso   1.00
C91    C     0.49060   0.04487   0.29862   0.01267  Uiso   1.00
C92    C     0.55610   0.91776   0.32145   0.01267  Uiso   1.00
C93    C     0.64680   0.96477   0.39876   0.01267  Uiso   1.00
C94    C     0.57530   0.99885   0.42811   0.01267  Uiso   1.00
C95    C     0.71250   0.89159   0.25602   0.01267  Uiso   1.00
C96    C     0.79990   0.87605   0.22934   0.01267  Uiso   1.00
C97    C     0.79320   0.83348   0.18150   0.01267  Uiso   1.00
C98    C     0.99700   0.02781   0.41709   0.01267  Uiso   1.00
C99    C     0.06350   0.96013   0.34440   0.01267  Uiso   1.00
C100   C     0.11690   0.06448   0.27757   0.01267  Uiso   1.00
C101   C     0.21270   0.05461   0.29431   0.01267  Uiso   1.00
C102   C     0.25630   0.11326   0.30698   0.01267  Uiso   1.00
C103   C     0.06900   0.20328   0.30362   0.01267  Uiso   1.00
C104   C     0.90080   0.29810   0.32977   0.01267  Uiso   1.00
C105   C     0.96920   0.29983   0.23162   0.01267  Uiso   1.00
C106   C     0.98730   0.26745   0.17549   0.01267  Uiso   1.00
C107   C     0.04920   0.30242   0.13901   0.01267  Uiso   1.00
C108   C     0.76630   0.33584   0.24807   0.01267  Uiso   1.00
C109   C     0.73840   0.36370   0.19249   0.01267  Uiso   1.00
C110   C     0.06980   0.36040   0.05243   0.01267  Uiso   1.00
C111   C     0.13440   0.32649   0.01662   0.01267  Uiso   1.00
C112   C     0.19320   0.36800   0.98247   0.01267  Uiso   1.00
C113   C     0.99160   0.06456   0.09284   0.01267  Uiso   1.00
C114   C     0.97710   0.12120   0.05815   0.01267  Uiso   1.00
C115   C     0.07200   0.14145   0.05165   0.01267  Uiso   1.00
C116   C     0.11100   0.12740   0.10934   0.01267  Uiso   1.00
C117   C     0.20710   0.11667   0.10803   0.01267  Uiso   1.00
C118   C     0.90710   0.08017   0.18203   0.01267  Uiso   1.00
C119   C     0.70370   0.01099   0.16072   0.01267  Uiso   1.00
C120   C     0.67960   0.97613   0.11418   0.01267  Uiso   1.00
C121   C     0.73870   0.96596   0.06935   0.01267  Uiso   1.00
C122   C     0.82130   0.99055   0.07094   0.01267  Uiso   1.00
C123   C     0.84350   0.02424   0.11754   0.01267  Uiso   1.00
C124   C     0.78610   0.03485   0.16275   0.01267  Uiso   1.00
C125   C     0.59140   0.94780   0.11300   0.01267  Uiso   1.00
C126   C     0.71140   0.92790   0.02000   0.01267  Uiso   1.00
C127   C     0.26120   0.37667   0.64593   0.01267  Uiso   1.00
C128   C     0.19160   0.31000   0.77380   0.01267  Uiso   1.00
C129   C     0.09450   0.28994   0.76838   0.01267  Uiso   1.00
C130   C     0.04540   0.35085   0.77361   0.01267  Uiso   1.00
C131   C     0.10940   0.39125   0.74432   0.01267  Uiso   1.00
C132   C     0.08560   0.44593   0.71487   0.01267  Uiso   1.00
C133   C     0.14820   0.48477   0.69726   0.01267  Uiso   1.00
C134   C     0.13670   0.54525   0.66647   0.01267  Uiso   1.00
C135   C     0.22110   0.57689   0.68615   0.01267  Uiso   1.00
C136   C     0.28280   0.52480   0.68987   0.01267  Uiso   1.00
C137   C     0.36920   0.52763   0.67782   0.01267  Uiso   1.00
C138   C     0.42540   0.47951   0.67538   0.01267  Uiso   1.00
C139   C     0.51410   0.48146   0.64683   0.01267  Uiso   1.00
C140   C     0.55750   0.42522   0.67199   0.01267  Uiso   1.00
C141   C     0.47980   0.38822   0.68880   0.01267  Uiso   1.00
C142   C     0.48320   0.32908   0.70226   0.01267  Uiso   1.00
C143   C     0.40800   0.29743   0.72203   0.01267  Uiso   1.00
C144   C     0.40020   0.22952   0.72937   0.01267  Uiso   1.00
C145   C     0.31030   0.22417   0.75949   0.01267  Uiso   1.00
C146   C     0.26140   0.27899   0.73751   0.01267  Uiso   1.00
C147   C     0.22340   0.31353   0.83561   0.01267  Uiso   1.00
C148   C     0.06660   0.24283   0.81138   0.01267  Uiso   1.00
C149   C     0.07580   0.26529   0.70796   0.01267  Uiso   1.00
C150   C     0.98210   0.24718   0.69900   0.01267  Uiso   1.00
C151   C     0.02410   0.37192   0.83500   0.01267  Uiso   1.00
C152   C     0.94970   0.41498   0.83803   0.01267  Uiso   1.00
C153   C     0.91690   0.42344   0.89809   0.01267  Uiso   1.00
C154   C     0.99060   0.45513   0.70138   0.01267  Uiso   1.00
C155   C     0.05610   0.58224   0.67855   0.01267  Uiso   1.00
C156   C     0.14680   0.53523   0.60124   0.01267  Uiso   1.00
C157   C     0.07530   0.50115   0.57189   0.01267  Uiso   1.00
C158   C     0.21250   0.60841   0.74398   0.01267  Uiso   1.00
C159   C     0.29990   0.62395   0.77066   0.01267  Uiso   1.00
C160   C     0.29320   0.66652   0.81850   0.01267  Uiso   1.00
C161   C     0.49700   0.47219   0.58291   0.01267  Uiso   1.00
C162   C     0.56350   0.53987   0.65560   0.01267  Uiso   1.00
C163   C     0.61690   0.43552   0.72243   0.01267  Uiso   1.00
C164   C     0.71270   0.44539   0.70569   0.01267  Uiso   1.00
C165   C     0.75630   0.38674   0.69302   0.01267  Uiso   1.00
C166   C     0.56900   0.29672   0.69638   0.01267  Uiso   1.00
C167   C     0.40080   0.20190   0.67023   0.01267  Uiso   1.00
C168   C     0.46920   0.20017   0.76838   0.01267  Uiso   1.00
C169   C     0.48730   0.23255   0.82451   0.01267  Uiso   1.00
C170   C     0.54920   0.19758   0.86099   0.01267  Uiso   1.00
C171   C     0.26630   0.16416   0.75193   0.01267  Uiso   1.00
C172   C     0.23840   0.13630   0.80751   0.01267  Uiso   1.00
C173   C     0.56980   0.13960   0.94757   0.01267  Uiso   1.00
C174   C     0.63440   0.17351   0.98338   0.01267  Uiso   1.00
C175   C     0.69320   0.13200   0.01753   0.01267  Uiso   1.00
C176   C     0.49160   0.43544   0.90716   0.01267  Uiso   1.00
C177   C     0.47710   0.37880   0.94185   0.01267  Uiso   1.00
C178   C     0.57200   0.35855   0.94835   0.01267  Uiso   1.00
C179   C     0.61100   0.37260   0.89066   0.01267  Uiso   1.00
C180   C     0.70710   0.38333   0.89197   0.01267  Uiso   1.00
C181   C     0.40710   0.41983   0.81797   0.01267  Uiso   1.00
C182   C     0.20370   0.48901   0.83928   0.01267  Uiso   1.00
C183   C     0.17960   0.52387   0.88582   0.01267  Uiso   1.00
C184   C     0.23870   0.53404   0.93065   0.01267  Uiso   1.00
C185   C     0.32130   0.50945   0.92906   0.01267  Uiso   1.00
C186   C     0.34350   0.47576   0.88246   0.01267  Uiso   1.00
C187   C     0.28610   0.46515   0.83725   0.01267  Uiso   1.00
C188   C     0.09140   0.55220   0.88700   0.01267  Uiso   1.00
C189   C     0.21140   0.57210   0.98000   0.01267  Uiso   1.00
C190   C     0.23880   0.62333   0.14593   0.01267  Uiso   1.00
C191   C     0.30840   0.69000   0.27380   0.01267  Uiso   1.00
C192   C     0.40550   0.71006   0.26838   0.01267  Uiso   1.00
C193   C     0.45460   0.64915   0.27361   0.01267  Uiso   1.00
C194   C     0.39060   0.60875   0.24432   0.01267  Uiso   1.00
C195   C     0.41440   0.55407   0.21487   0.01267  Uiso   1.00
C196   C     0.35180   0.51523   0.19726   0.01267  Uiso   1.00
C197   C     0.36330   0.45475   0.16647   0.01267  Uiso   1.00
C198   C     0.27890   0.42311   0.18615   0.01267  Uiso   1.00
C199   C     0.21720   0.47520   0.18987   0.01267  Uiso   1.00
C200   C     0.13080   0.47237   0.17782   0.01267  Uiso   1.00
C201   C     0.07460   0.52049   0.17538   0.01267  Uiso   1.00
C202   C     0.98590   0.51854   0.14683   0.01267  Uiso   1.00
C203   C     0.94250   0.57478   0.17199   0.01267  Uiso   1.00
C204   C     0.02020   0.61178   0.18880   0.01267  Uiso   1.00
C205   C     0.01680   0.67092   0.20226   0.01267  Uiso   1.00
C206   C     0.09200   0.70257   0.22203   0.01267  Uiso   1.00
C207   C     0.09980   0.77048   0.22937   0.01267  Uiso   1.00
C208   C     0.18970   0.77583   0.25949   0.01267  Uiso   1.00
C209   C     0.23860   0.72101   0.23751   0.01267  Uiso   1.00
C210   C     0.27660   0.68647   0.33561   0.01267  Uiso   1.00
C211   C     0.43340   0.75717   0.31138   0.01267  Uiso   1.00
C212   C     0.42420   0.73471   0.20796   0.01267  Uiso   1.00
C213   C     0.51790   0.75282   0.19900   0.01267  Uiso   1.00
C214   C     0.47590   0.62808   0.33500   0.01267  Uiso   1.00
C215   C     0.55030   0.58502   0.33803   0.01267  Uiso   1.00
C216   C     0.58310   0.57656   0.39809   0.01267  Uiso   1.00
C217   C     0.50940   0.54487   0.20138   0.01267  Uiso   1.00
C218   C     0.44390   0.41776   0.17855   0.01267  Uiso   1.00
C219   C     0.35320   0.46477   0.10124   0.01267  Uiso   1.00
C220   C     0.42470   0.49885   0.07189   0.01267  Uiso   1.00
C221   C     0.28750   0.39159   0.24398   0.01267  Uiso   1.00
C222   C     0.20010   0.37605   0.27066   0.01267  Uiso   1.00
C223   C     0.20680   0.33348   0.31850   0.01267  Uiso   1.00
C224   C     0.00300   0.52781   0.08291   0.01267  Uiso   1.00
C225   C     0.93650   0.46013   0.15560   0.01267  Uiso   1.00
C226   C     0.88310   0.56448   0.22243   0.01267  Uiso   1.00
C227   C     0.78730   0.55461   0.20569   0.01267  Uiso   1.00
C228   C     0.74370   0.61326   0.19302   0.01267  Uiso   1.00
C229   C     0.93100   0.70328   0.19638   0.01267  Uiso   1.00
C230   C     0.09920   0.79810   0.17023   0.01267  Uiso   1.00
C231   C     0.03080   0.79983   0.26838   0.01267  Uiso   1.00
C232   C     0.01270   0.76745   0.32451   0.01267  Uiso   1.00
C233   C     0.95080   0.80242   0.36099   0.01267  Uiso   1.00
C234   C     0.23370   0.83584   0.25193   0.01267  Uiso   1.00
C235   C     0.26160   0.86370   0.30751   0.01267  Uiso   1.00
C236   C     0.93020   0.86040   0.44757   0.01267  Uiso   1.00
C237   C     0.86560   0.82649   0.48338   0.01267  Uiso   1.00
C238   C     0.80680   0.86800   0.51753   0.01267  Uiso   1.00
C239   C     0.00840   0.56456   0.40716   0.01267  Uiso   1.00
C240   C     0.02290   0.62120   0.44185   0.01267  Uiso   1.00
C241   C     0.92800   0.64145   0.44835   0.01267  Uiso   1.00
C242   C     0.88900   0.62740   0.39066   0.01267  Uiso   1.00
C243   C     0.79290   0.61667   0.39197   0.01267  Uiso   1.00
C244   C     0.09290   0.58017   0.31797   0.01267  Uiso   1.00
C245   C     0.29630   0.51099   0.33928   0.01267  Uiso   1.00
C246   C     0.32040   0.47613   0.38582   0.01267  Uiso   1.00
C247   C     0.26130   0.46596   0.43065   0.01267  Uiso   1.00
C248   C     0.17870   0.49055   0.42906   0.01267  Uiso   1.00
C249   C     0.15650   0.52424   0.38246   0.01267  Uiso   1.00
C250   C     0.21390   0.53485   0.33725   0.01267  Uiso   1.00
C251   C     0.40860   0.44780   0.38700   0.01267  Uiso   1.00
C252   C     0.28860   0.42790   0.48000   0.01267  Uiso   1.00
N1     N     0.76050   0.86100   0.89834   0.01267  Uiso   1.00
N2     N     0.81196   0.87106   0.75224   0.01267  Uiso   1.00
N3     N     0.76240   0.97561   0.79589   0.01267  Uiso   1.00
N4     N     0.59392   0.92491   0.80734   0.01267  Uiso   1.00
N5     N     0.66752   0.82283   0.76999   0.01267  Uiso   1.00
N6     N     0.03200   0.69130   0.81550   0.01267  Uiso   1.00
N7     N     0.10760   0.97798   0.58779   0.01267  Uiso   1.00
N8     N     0.91720   0.94275   0.93164   0.01267  Uiso   1.00
N9     N     0.65530   0.15830   0.63700   0.01267  Uiso   1.00
N10    N     0.21690   0.87781   0.85899   0.01267  Uiso   1.00
N11    N     0.48290   0.67663   0.58982   0.01267  Uiso   1.00
N12    N     0.81880   0.59283   0.69642   0.01267  Uiso   1.00
N13    N     0.57960   0.94699   0.63158   0.01267  Uiso   1.00
N14    N     0.67024   0.93020   0.70359   0.01267  Uiso   1.00
N15    N     0.73950   0.13900   0.39834   0.01267  Uiso   1.00
N16    N     0.68804   0.12894   0.25224   0.01267  Uiso   1.00
N17    N     0.73760   0.02439   0.29589   0.01267  Uiso   1.00
N18    N     0.90608   0.07509   0.30734   0.01267  Uiso   1.00
N19    N     0.83248   0.17717   0.26999   0.01267  Uiso   1.00
N20    N     0.46800   0.30870   0.31550   0.01267  Uiso   1.00
N21    N     0.39240   0.02202   0.08779   0.01267  Uiso   1.00
N22    N     0.58280   0.05725   0.43164   0.01267  Uiso   1.00
N23    N     0.84470   0.84170   0.13700   0.01267  Uiso   1.00
N24    N     0.28310   0.12219   0.35899   0.01267  Uiso   1.00
N25    N     0.01710   0.32337   0.08982   0.01267  Uiso   1.00
N26    N     0.68120   0.40717   0.19642   0.01267  Uiso   1.00
N27    N     0.92040   0.05301   0.13158   0.01267  Uiso   1.00
N28    N     0.82976   0.06980   0.20359   0.01267  Uiso   1.00
N29    N     0.23950   0.36100   0.60166   0.01267  Uiso   1.00
N30    N     0.18804   0.37106   0.74776   0.01267  Uiso   1.00
N31    N     0.23760   0.47561   0.70411   0.01267  Uiso   1.00
N32    N     0.40608   0.42491   0.69266   0.01267  Uiso   1.00
N33    N     0.33248   0.32283   0.73001   0.01267  Uiso   1.00
N34    N     0.96800   0.19130   0.68450   0.01267  Uiso   1.00
N35    N     0.89240   0.47798   0.91221   0.01267  Uiso   1.00
N36    N     0.08280   0.44275   0.56836   0.01267  Uiso   1.00
N37    N     0.34470   0.65830   0.86300   0.01267  Uiso   1.00
N38    N     0.78310   0.37781   0.64101   0.01267  Uiso   1.00
N39    N     0.51710   0.17663   0.91018   0.01267  Uiso   1.00
N40    N     0.18120   0.09283   0.80358   0.01267  Uiso   1.00
N41    N     0.42040   0.44699   0.86842   0.01267  Uiso   1.00
N42    N     0.32976   0.43020   0.79641   0.01267  Uiso   1.00
N43    N     0.26050   0.63900   0.10166   0.01267  Uiso   1.00
N44    N     0.31196   0.62894   0.24776   0.01267  Uiso   1.00
N45    N     0.26240   0.52439   0.20411   0.01267  Uiso   1.00
N46    N     0.09392   0.57509   0.19266   0.01267  Uiso   1.00
N47    N     0.16752   0.67717   0.23001   0.01267  Uiso   1.00
N48    N     0.53200   0.80870   0.18450   0.01267  Uiso   1.00
N49    N     0.60760   0.52202   0.41221   0.01267  Uiso   1.00
N50    N     0.41720   0.55725   0.06836   0.01267  Uiso   1.00
N51    N     0.15530   0.34170   0.36300   0.01267  Uiso   1.00
N52    N     0.71690   0.62219   0.14101   0.01267  Uiso   1.00
N53    N     0.98290   0.82337   0.41018   0.01267  Uiso   1.00
N54    N     0.31880   0.90717   0.30358   0.01267  Uiso   1.00
N55    N     0.07960   0.55301   0.36842   0.01267  Uiso   1.00
N56    N     0.17024   0.56980   0.29641   0.01267  Uiso   1.00
O1     O     0.07946   0.77817   0.78798   0.01267  Uiso   1.00
O2     O     0.08763   0.88070   0.56825   0.01267  Uiso   1.00
O3     O     0.98780   0.02780   0.94928   0.01267  Uiso   1.00
O4     O     0.75710   0.21069   0.68396   0.01267  Uiso   1.00
O5     O     0.23559   0.84946   0.76875   0.01267  Uiso   1.00
O6     O     0.37574   0.68666   0.65452   0.01267  Uiso   1.00
O7     O     0.73022   0.65265   0.64700   0.01267  Uiso   1.00
O8     O     0.42015   0.79693   0.53947   0.01267  Uiso   1.00
O9     O     0.41515   0.71017   0.47757   0.01267  Uiso   1.00
O10    O     0.31052   0.79447   0.46088   0.01267  Uiso   1.00
O11    O     0.47139   0.80433   0.43694   0.01267  Uiso   1.00
O12    O     0.43180   0.92740   0.62571   0.01267  Uiso   1.00
O13    O     0.57123   0.83831   0.59169   0.01267  Uiso   1.00
O14    O     0.26074   0.90588   0.66066   0.01267  Uiso   1.00
O15    O     0.22060   0.74835   0.68263   0.01267  Uiso   1.00
O16    O     0.66912   0.59801   0.53392   0.01267  Uiso   1.00
O17    O     0.84770   0.56455   0.57628   0.01267  Uiso   1.00
O18    O     0.42054   0.22183   0.28798   0.01267  Uiso   1.00
O19    O     0.41237   0.11930   0.06825   0.01267  Uiso   1.00
O20    O     0.51220   0.97220   0.44928   0.01267  Uiso   1.00
O21    O     0.74290   0.78931   0.18396   0.01267  Uiso   1.00
O22    O     0.26441   0.15054   0.26875   0.01267  Uiso   1.00
O23    O     0.12426   0.31334   0.15452   0.01267  Uiso   1.00
O24    O     0.76978   0.34735   0.14700   0.01267  Uiso   1.00
O25    O     0.07985   0.20307   0.03947   0.01267  Uiso   1.00
O26    O     0.08485   0.28983   0.97757   0.01267  Uiso   1.00
O27    O     0.18948   0.20553   0.96088   0.01267  Uiso   1.00
O28    O     0.02861   0.19567   0.93694   0.01267  Uiso   1.00
O29    O     0.06820   0.07260   0.12571   0.01267  Uiso   1.00
O30    O     0.92877   0.16169   0.09169   0.01267  Uiso   1.00
O31    O     0.23926   0.09412   0.16066   0.01267  Uiso   1.00
O32    O     0.27940   0.25165   0.18263   0.01267  Uiso   1.00
O33    O     0.83088   0.40199   0.03392   0.01267  Uiso   1.00
O34    O     0.65230   0.43545   0.07628   0.01267  Uiso   1.00
O35    O     0.92054   0.27817   0.71202   0.01267  Uiso   1.00
O36    O     0.91237   0.38070   0.93175   0.01267  Uiso   1.00
O37    O     0.01220   0.52780   0.55072   0.01267  Uiso   1.00
O38    O     0.24290   0.71069   0.81604   0.01267  Uiso   1.00
O39    O     0.76441   0.34946   0.73125   0.01267  Uiso   1.00
O40    O     0.62426   0.18666   0.84548   0.01267  Uiso   1.00
O41    O     0.26978   0.15265   0.85300   0.01267  Uiso   1.00
O42    O     0.57985   0.29693   0.96053   0.01267  Uiso   1.00
O43    O     0.58485   0.21017   0.02243   0.01267  Uiso   1.00
O44    O     0.68948   0.29447   0.03912   0.01267  Uiso   1.00
O45    O     0.52861   0.30433   0.06306   0.01267  Uiso   1.00
O46    O     0.56820   0.42740   0.87429   0.01267  Uiso   1.00
O47    O     0.42877   0.33831   0.90831   0.01267  Uiso   1.00
O48    O     0.73926   0.40588   0.83934   0.01267  Uiso   1.00
O49    O     0.77940   0.24835   0.81737   0.01267  Uiso   1.00
O50    O     0.33088   0.09801   0.96608   0.01267  Uiso   1.00
O51    O     0.15230   0.06455   0.92372   0.01267  Uiso   1.00
O52    O     0.57946   0.72183   0.21202   0.01267  Uiso   1.00
O53    O     0.58763   0.61930   0.43175   0.01267  Uiso   1.00
O54    O     0.48780   0.47220   0.05072   0.01267  Uiso   1.00
O55    O     0.25710   0.28931   0.31604   0.01267  Uiso   1.00
O56    O     0.73559   0.65054   0.23125   0.01267  Uiso   1.00
O57    O     0.87574   0.81334   0.34548   0.01267  Uiso   1.00
O58    O     0.23022   0.84735   0.35300   0.01267  Uiso   1.00
O59    O     0.92015   0.70307   0.46053   0.01267  Uiso   1.00
O60    O     0.91515   0.78983   0.52243   0.01267  Uiso   1.00
O61    O     0.81052   0.70553   0.53912   0.01267  Uiso   1.00
O62    O     0.97139   0.69567   0.56306   0.01267  Uiso   1.00
O63    O     0.93180   0.57260   0.37429   0.01267  Uiso   1.00
O64    O     0.07123   0.66169   0.40831   0.01267  Uiso   1.00
O65    O     0.76074   0.59412   0.33934   0.01267  Uiso   1.00
O66    O     0.72060   0.75165   0.31737   0.01267  Uiso   1.00
O67    O     0.16912   0.90199   0.46608   0.01267  Uiso   1.00
O68    O     0.34770   0.93545   0.42372   0.01267  Uiso   1.00
Cl1    Cl    0.89088   0.58405   0.82271   0.01267  Uiso   1.00
Cl2    Cl    0.27355   0.96224   0.96941   0.01267  Uiso   1.00
Cl3    Cl    0.60912   0.41595   0.32271   0.01267  Uiso   1.00
Cl4    Cl    0.22645   0.03776   0.46941   0.01267  Uiso   1.00
Cl5    Cl    0.10912   0.08405   0.67729   0.01267  Uiso   1.00
Cl6    Cl    0.72645   0.46224   0.53059   0.01267  Uiso   1.00
Cl7    Cl    0.39088   0.91595   0.17729   0.01267  Uiso   1.00
Cl8    Cl    0.77355   0.53776   0.03059   0.01267  Uiso   1.00
