data_WIKYAQ_clean
_audit_creation_date              2014-07-02
_audit_creation_method            'Materials Studio'
_symmetry_space_group_name_H-M    'P1'
_symmetry_Int_Tables_number       1
_symmetry_cell_setting            triclinic
loop_
_symmetry_equiv_pos_as_xyz
  x,y,z
_cell_length_a                    16.0150
_cell_length_b                    21.1460
_cell_length_c                    23.8430
_cell_angle_alpha                 90.0000
_cell_angle_beta                  90.0000
_cell_angle_gamma                 90.0000
loop_
_atom_site_label
_atom_site_type_symbol
_atom_site_fract_x
_atom_site_fract_y
_atom_site_fract_z
_atom_site_U_iso_or_equiv
_atom_site_adp_type
_atom_site_occupancy
K1     K     0.11901   0.09460   0.92837   0.01267  Uiso   1.00
K2     K     0.38099   0.90540   0.42837   0.01267  Uiso   1.00
K3     K     0.88099   0.59460   0.57163   0.01267  Uiso   1.00
K4     K     0.61901   0.40540   0.07163   0.01267  Uiso   1.00
Co1    Co    0.73308   0.88020   0.78581   0.01267  Uiso   1.00
Co2    Co    0.76692   0.11980   0.28581   0.01267  Uiso   1.00
Co3    Co    0.26692   0.38020   0.71419   0.01267  Uiso   1.00
Co4    Co    0.23308   0.61980   0.21419   0.01267  Uiso   1.00
P1     P     0.49732   0.74022   0.45766   0.01267  Uiso   1.00
P2     P     0.00268   0.25978   0.95766   0.01267  Uiso   1.00
P3     P     0.50268   0.24022   0.04234   0.01267  Uiso   1.00
P4     P     0.99732   0.75978   0.54234   0.01267  Uiso   1.00
H1     H     0.03330   0.85580   0.78750   0.01267  Uiso   1.00
H2     H     0.72370   0.10230   0.84480   0.01267  Uiso   1.00
H3     H     0.59340   0.03930   0.82950   0.01267  Uiso   1.00
H4     H     0.43170   0.84760   0.82780   0.01267  Uiso   1.00
H5     H     0.76340   0.69910   0.69740   0.01267  Uiso   1.00
H6     H     0.81070   0.74610   0.80760   0.01267  Uiso   1.00
H7     H     0.78220   0.80950   0.67060   0.01267  Uiso   1.00
H8     H     0.87460   0.83620   0.66070   0.01267  Uiso   1.00
H9     H     0.85740   0.76160   0.65850   0.01267  Uiso   1.00
H10    H     0.96810   0.70370   0.70600   0.01267  Uiso   1.00
H11    H     0.00190   0.76570   0.67500   0.01267  Uiso   1.00
H12    H     0.05580   0.73380   0.72390   0.01267  Uiso   1.00
H13    H     0.93810   0.71250   0.81380   0.01267  Uiso   1.00
H14    H     0.92760   0.78120   0.84100   0.01267  Uiso   1.00
H15    H     0.10810   0.75890   0.90450   0.01267  Uiso   1.00
H16    H     0.01480   0.77200   0.91010   0.01267  Uiso   1.00
H17    H     0.99010   0.87040   0.67220   0.01267  Uiso   1.00
H18    H     0.01280   0.93220   0.70770   0.01267  Uiso   1.00
H19    H     0.12510   0.82830   0.68800   0.01267  Uiso   1.00
H20    H     0.14810   0.88670   0.72800   0.01267  Uiso   1.00
H21    H     0.16660   0.90210   0.56590   0.01267  Uiso   1.00
H22    H     0.12970   0.84280   0.59260   0.01267  Uiso   1.00
H23    H     0.99960   0.01040   0.84910   0.01267  Uiso   1.00
H24    H     0.03370   0.93950   0.84400   0.01267  Uiso   1.00
H25    H     0.03720   0.98570   0.79090   0.01267  Uiso   1.00
H26    H     0.92850   0.09420   0.79010   0.01267  Uiso   1.00
H27    H     0.88290   0.14440   0.82990   0.01267  Uiso   1.00
H28    H     0.95200   0.09780   0.85520   0.01267  Uiso   1.00
H29    H     0.77430   0.01960   0.91240   0.01267  Uiso   1.00
H30    H     0.81500   0.08770   0.92200   0.01267  Uiso   1.00
H31    H     0.93410   0.93600   0.96680   0.01267  Uiso   1.00
H32    H     0.84760   0.93380   0.94020   0.01267  Uiso   1.00
H33    H     0.80020   0.08210   0.73610   0.01267  Uiso   1.00
H34    H     0.77990   0.14940   0.76370   0.01267  Uiso   1.00
H35    H     0.65560   0.06270   0.72460   0.01267  Uiso   1.00
H36    H     0.63450   0.12900   0.75310   0.01267  Uiso   1.00
H37    H     0.73530   0.19250   0.62230   0.01267  Uiso   1.00
H38    H     0.77900   0.17940   0.67790   0.01267  Uiso   1.00
H39    H     0.43660   0.91410   0.91220   0.01267  Uiso   1.00
H40    H     0.52910   0.88610   0.90670   0.01267  Uiso   1.00
H41    H     0.51560   0.95970   0.91920   0.01267  Uiso   1.00
H42    H     0.44980   0.01240   0.78590   0.01267  Uiso   1.00
H43    H     0.37700   0.98190   0.82320   0.01267  Uiso   1.00
H44    H     0.44490   0.02730   0.85170   0.01267  Uiso   1.00
H45    H     0.44120   0.84310   0.72390   0.01267  Uiso   1.00
H46    H     0.46300   0.91670   0.72570   0.01267  Uiso   1.00
H47    H     0.31930   0.89150   0.70360   0.01267  Uiso   1.00
H48    H     0.33220   0.94430   0.75050   0.01267  Uiso   1.00
H49    H     0.24240   0.78350   0.79120   0.01267  Uiso   1.00
H50    H     0.30280   0.78820   0.74200   0.01267  Uiso   1.00
H51    H     0.44270   0.75960   0.80070   0.01267  Uiso   1.00
H52    H     0.47430   0.72950   0.74290   0.01267  Uiso   1.00
H53    H     0.50320   0.69940   0.80130   0.01267  Uiso   1.00
H54    H     0.61530   0.66440   0.83870   0.01267  Uiso   1.00
H55    H     0.67150   0.60810   0.81460   0.01267  Uiso   1.00
H56    H     0.71490   0.66840   0.84270   0.01267  Uiso   1.00
H57    H     0.64180   0.60950   0.71310   0.01267  Uiso   1.00
H58    H     0.56110   0.64290   0.73870   0.01267  Uiso   1.00
H59    H     0.64800   0.67810   0.63860   0.01267  Uiso   1.00
H60    H     0.58990   0.72920   0.66900   0.01267  Uiso   1.00
H61    H     0.58340   0.63250   0.56830   0.01267  Uiso   1.00
H62    H     0.80370   0.61900   0.79360   0.01267  Uiso   1.00
H63    H     0.87880   0.64570   0.75600   0.01267  Uiso   1.00
H64    H     0.79580   0.49110   0.71570   0.01267  Uiso   1.00
H65    H     0.80580   0.52000   0.77390   0.01267  Uiso   1.00
H66    H     0.42050   0.58790   0.57880   0.01267  Uiso   1.00
H67    H     0.48340   0.56710   0.53010   0.01267  Uiso   1.00
H68    H     0.40030   0.68590   0.53410   0.01267  Uiso   1.00
H69    H     0.36840   0.57460   0.46700   0.01267  Uiso   1.00
H70    H     0.30210   0.60960   0.50640   0.01267  Uiso   1.00
H71    H     0.33220   0.64230   0.44940   0.01267  Uiso   1.00
H72    H     0.56680   0.94830   0.55990   0.01267  Uiso   1.00
H73    H     0.64180   0.86760   0.52010   0.01267  Uiso   1.00
H74    H     0.50080   0.85400   0.50110   0.01267  Uiso   1.00
H75    H     0.47310   0.80150   0.61140   0.01267  Uiso   1.00
H76    H     0.34560   0.85490   0.60970   0.01267  Uiso   1.00
H77    H     0.35210   0.81060   0.55540   0.01267  Uiso   1.00
H78    H     0.67370   0.78680   0.57070   0.01267  Uiso   1.00
H79    H     0.31400   0.90260   0.52830   0.01267  Uiso   1.00
H80    H     0.60350   0.86660   0.69210   0.01267  Uiso   1.00
H81    H     0.86850   0.97390   0.70520   0.01267  Uiso   1.00
H82    H     0.69570   0.01320   0.54880   0.01267  Uiso   1.00
H83    H     0.97040   0.04200   0.67350   0.01267  Uiso   1.00
H84    H     0.97870   0.04340   0.60660   0.01267  Uiso   1.00
H85    H     0.93600   0.10140   0.63890   0.01267  Uiso   1.00
H86    H     0.79340   0.08040   0.50920   0.01267  Uiso   1.00
H87    H     0.84500   0.12160   0.55360   0.01267  Uiso   1.00
H88    H     0.88830   0.06270   0.52320   0.01267  Uiso   1.00
H89    H     0.46670   0.14420   0.28750   0.01267  Uiso   1.00
H90    H     0.77630   0.89770   0.34480   0.01267  Uiso   1.00
H91    H     0.90660   0.96070   0.32950   0.01267  Uiso   1.00
H92    H     0.06830   0.15240   0.32780   0.01267  Uiso   1.00
H93    H     0.73660   0.30090   0.19740   0.01267  Uiso   1.00
H94    H     0.68930   0.25390   0.30760   0.01267  Uiso   1.00
H95    H     0.71780   0.19050   0.17060   0.01267  Uiso   1.00
H96    H     0.62540   0.16380   0.16070   0.01267  Uiso   1.00
H97    H     0.64260   0.23840   0.15850   0.01267  Uiso   1.00
H98    H     0.53190   0.29630   0.20600   0.01267  Uiso   1.00
H99    H     0.49810   0.23430   0.17500   0.01267  Uiso   1.00
H100   H     0.44420   0.26620   0.22390   0.01267  Uiso   1.00
H101   H     0.56190   0.28750   0.31380   0.01267  Uiso   1.00
H102   H     0.57240   0.21880   0.34100   0.01267  Uiso   1.00
H103   H     0.39190   0.24110   0.40450   0.01267  Uiso   1.00
H104   H     0.48520   0.22800   0.41010   0.01267  Uiso   1.00
H105   H     0.50990   0.12960   0.17220   0.01267  Uiso   1.00
H106   H     0.48720   0.06780   0.20770   0.01267  Uiso   1.00
H107   H     0.37490   0.17170   0.18800   0.01267  Uiso   1.00
H108   H     0.35190   0.11330   0.22800   0.01267  Uiso   1.00
H109   H     0.33340   0.09790   0.06590   0.01267  Uiso   1.00
H110   H     0.37030   0.15720   0.09260   0.01267  Uiso   1.00
H111   H     0.50040   0.98960   0.34910   0.01267  Uiso   1.00
H112   H     0.46630   0.06050   0.34400   0.01267  Uiso   1.00
H113   H     0.46280   0.01430   0.29090   0.01267  Uiso   1.00
H114   H     0.57150   0.90580   0.29010   0.01267  Uiso   1.00
H115   H     0.61710   0.85560   0.32990   0.01267  Uiso   1.00
H116   H     0.54800   0.90220   0.35520   0.01267  Uiso   1.00
H117   H     0.72570   0.98040   0.41240   0.01267  Uiso   1.00
H118   H     0.68500   0.91230   0.42200   0.01267  Uiso   1.00
H119   H     0.56590   0.06400   0.46680   0.01267  Uiso   1.00
H120   H     0.65240   0.06620   0.44020   0.01267  Uiso   1.00
H121   H     0.69980   0.91790   0.23610   0.01267  Uiso   1.00
H122   H     0.72010   0.85060   0.26370   0.01267  Uiso   1.00
H123   H     0.84440   0.93730   0.22460   0.01267  Uiso   1.00
H124   H     0.86550   0.87100   0.25310   0.01267  Uiso   1.00
H125   H     0.76470   0.80750   0.12230   0.01267  Uiso   1.00
H126   H     0.72100   0.82060   0.17790   0.01267  Uiso   1.00
H127   H     0.06340   0.08590   0.41220   0.01267  Uiso   1.00
H128   H     0.97090   0.11390   0.40670   0.01267  Uiso   1.00
H129   H     0.98440   0.04030   0.41920   0.01267  Uiso   1.00
H130   H     0.05020   0.98760   0.28590   0.01267  Uiso   1.00
H131   H     0.12300   0.01810   0.32320   0.01267  Uiso   1.00
H132   H     0.05510   0.97270   0.35170   0.01267  Uiso   1.00
H133   H     0.05880   0.15690   0.22390   0.01267  Uiso   1.00
H134   H     0.03700   0.08330   0.22570   0.01267  Uiso   1.00
H135   H     0.18070   0.10850   0.20360   0.01267  Uiso   1.00
H136   H     0.16780   0.05570   0.25050   0.01267  Uiso   1.00
H137   H     0.25760   0.21650   0.29120   0.01267  Uiso   1.00
H138   H     0.19720   0.21180   0.24200   0.01267  Uiso   1.00
H139   H     0.05730   0.24040   0.30070   0.01267  Uiso   1.00
H140   H     0.02570   0.27050   0.24290   0.01267  Uiso   1.00
H141   H     0.99680   0.30060   0.30130   0.01267  Uiso   1.00
H142   H     0.88470   0.33560   0.33870   0.01267  Uiso   1.00
H143   H     0.82850   0.39190   0.31460   0.01267  Uiso   1.00
H144   H     0.78510   0.33160   0.34270   0.01267  Uiso   1.00
H145   H     0.85820   0.39050   0.21310   0.01267  Uiso   1.00
H146   H     0.93890   0.35710   0.23870   0.01267  Uiso   1.00
H147   H     0.85200   0.32190   0.13860   0.01267  Uiso   1.00
H148   H     0.91010   0.27080   0.16900   0.01267  Uiso   1.00
H149   H     0.91660   0.36750   0.06830   0.01267  Uiso   1.00
H150   H     0.69630   0.38100   0.29360   0.01267  Uiso   1.00
H151   H     0.62120   0.35430   0.25600   0.01267  Uiso   1.00
H152   H     0.70420   0.50890   0.21570   0.01267  Uiso   1.00
H153   H     0.69420   0.48000   0.27390   0.01267  Uiso   1.00
H154   H     0.07950   0.41210   0.07880   0.01267  Uiso   1.00
H155   H     0.01660   0.43290   0.03010   0.01267  Uiso   1.00
H156   H     0.09970   0.31410   0.03410   0.01267  Uiso   1.00
H157   H     0.13160   0.42540   0.96700   0.01267  Uiso   1.00
H158   H     0.19790   0.39040   0.00640   0.01267  Uiso   1.00
H159   H     0.16780   0.35770   0.94940   0.01267  Uiso   1.00
H160   H     0.93320   0.05170   0.05990   0.01267  Uiso   1.00
H161   H     0.85820   0.13240   0.02010   0.01267  Uiso   1.00
H162   H     0.99920   0.14600   0.00110   0.01267  Uiso   1.00
H163   H     0.02690   0.19850   0.11140   0.01267  Uiso   1.00
H164   H     0.15440   0.14510   0.10970   0.01267  Uiso   1.00
H165   H     0.14790   0.18940   0.05540   0.01267  Uiso   1.00
H166   H     0.82630   0.21320   0.07070   0.01267  Uiso   1.00
H167   H     0.18600   0.09740   0.02830   0.01267  Uiso   1.00
H168   H     0.89650   0.13340   0.19210   0.01267  Uiso   1.00
H169   H     0.63150   0.02610   0.20520   0.01267  Uiso   1.00
H170   H     0.80430   0.98680   0.04880   0.01267  Uiso   1.00
H171   H     0.52960   0.95800   0.17350   0.01267  Uiso   1.00
H172   H     0.52130   0.95660   0.10660   0.01267  Uiso   1.00
H173   H     0.56400   0.89860   0.13890   0.01267  Uiso   1.00
H174   H     0.70660   0.91960   0.00920   0.01267  Uiso   1.00
H175   H     0.65500   0.87840   0.05360   0.01267  Uiso   1.00
H176   H     0.61170   0.93730   0.02320   0.01267  Uiso   1.00
H177   H     0.96670   0.35580   0.71250   0.01267  Uiso   1.00
H178   H     0.27630   0.60230   0.65520   0.01267  Uiso   1.00
H179   H     0.40660   0.53930   0.67050   0.01267  Uiso   1.00
H180   H     0.56830   0.34760   0.67220   0.01267  Uiso   1.00
H181   H     0.23660   0.19910   0.80260   0.01267  Uiso   1.00
H182   H     0.18930   0.24610   0.69240   0.01267  Uiso   1.00
H183   H     0.21780   0.30950   0.82940   0.01267  Uiso   1.00
H184   H     0.12540   0.33620   0.83930   0.01267  Uiso   1.00
H185   H     0.14260   0.26160   0.84150   0.01267  Uiso   1.00
H186   H     0.03190   0.20370   0.79400   0.01267  Uiso   1.00
H187   H     0.99810   0.26570   0.82500   0.01267  Uiso   1.00
H188   H     0.94420   0.23380   0.77610   0.01267  Uiso   1.00
H189   H     0.06190   0.21250   0.68620   0.01267  Uiso   1.00
H190   H     0.07240   0.28120   0.65900   0.01267  Uiso   1.00
H191   H     0.89190   0.25890   0.59550   0.01267  Uiso   1.00
H192   H     0.98520   0.27200   0.58990   0.01267  Uiso   1.00
H193   H     0.00990   0.37040   0.82780   0.01267  Uiso   1.00
H194   H     0.98720   0.43220   0.79230   0.01267  Uiso   1.00
H195   H     0.87490   0.32830   0.81200   0.01267  Uiso   1.00
H196   H     0.85190   0.38670   0.77200   0.01267  Uiso   1.00
H197   H     0.83340   0.40210   0.93410   0.01267  Uiso   1.00
H198   H     0.87030   0.34280   0.90740   0.01267  Uiso   1.00
H199   H     0.00040   0.51040   0.65090   0.01267  Uiso   1.00
H200   H     0.96630   0.43950   0.65600   0.01267  Uiso   1.00
H201   H     0.96280   0.48570   0.70910   0.01267  Uiso   1.00
H202   H     0.07150   0.59420   0.70990   0.01267  Uiso   1.00
H203   H     0.11710   0.64440   0.67010   0.01267  Uiso   1.00
H204   H     0.04800   0.59780   0.64480   0.01267  Uiso   1.00
H205   H     0.22570   0.51960   0.58760   0.01267  Uiso   1.00
H206   H     0.18500   0.58770   0.57800   0.01267  Uiso   1.00
H207   H     0.06590   0.43600   0.53320   0.01267  Uiso   1.00
H208   H     0.15240   0.43380   0.55980   0.01267  Uiso   1.00
H209   H     0.19980   0.58210   0.76390   0.01267  Uiso   1.00
H210   H     0.22010   0.64940   0.73630   0.01267  Uiso   1.00
H211   H     0.34440   0.56270   0.77540   0.01267  Uiso   1.00
H212   H     0.36550   0.62900   0.74690   0.01267  Uiso   1.00
H213   H     0.26470   0.69250   0.87770   0.01267  Uiso   1.00
H214   H     0.22100   0.67940   0.82210   0.01267  Uiso   1.00
H215   H     0.56340   0.41410   0.58780   0.01267  Uiso   1.00
H216   H     0.47090   0.38610   0.59330   0.01267  Uiso   1.00
H217   H     0.48440   0.45970   0.58080   0.01267  Uiso   1.00
H218   H     0.55020   0.51240   0.71410   0.01267  Uiso   1.00
H219   H     0.62300   0.48190   0.67680   0.01267  Uiso   1.00
H220   H     0.55510   0.52730   0.64830   0.01267  Uiso   1.00
H221   H     0.55880   0.34310   0.77610   0.01267  Uiso   1.00
H222   H     0.53700   0.41670   0.77430   0.01267  Uiso   1.00
H223   H     0.68070   0.39150   0.79640   0.01267  Uiso   1.00
H224   H     0.66780   0.44430   0.74950   0.01267  Uiso   1.00
H225   H     0.75760   0.28350   0.70880   0.01267  Uiso   1.00
H226   H     0.69720   0.28820   0.75800   0.01267  Uiso   1.00
H227   H     0.55730   0.25960   0.69930   0.01267  Uiso   1.00
H228   H     0.52570   0.22950   0.75710   0.01267  Uiso   1.00
H229   H     0.49680   0.19940   0.69870   0.01267  Uiso   1.00
H230   H     0.38470   0.16440   0.66130   0.01267  Uiso   1.00
H231   H     0.32850   0.10810   0.68540   0.01267  Uiso   1.00
H232   H     0.28510   0.16840   0.65730   0.01267  Uiso   1.00
H233   H     0.35820   0.10950   0.78690   0.01267  Uiso   1.00
H234   H     0.43890   0.14290   0.76130   0.01267  Uiso   1.00
H235   H     0.35200   0.17810   0.86140   0.01267  Uiso   1.00
H236   H     0.41010   0.22920   0.83100   0.01267  Uiso   1.00
H237   H     0.41660   0.13250   0.93170   0.01267  Uiso   1.00
H238   H     0.19630   0.11900   0.70640   0.01267  Uiso   1.00
H239   H     0.12120   0.14570   0.74400   0.01267  Uiso   1.00
H240   H     0.20420   0.99110   0.78430   0.01267  Uiso   1.00
H241   H     0.19420   0.02000   0.72610   0.01267  Uiso   1.00
H242   H     0.57950   0.08790   0.92120   0.01267  Uiso   1.00
H243   H     0.51660   0.06710   0.96990   0.01267  Uiso   1.00
H244   H     0.59970   0.18590   0.96590   0.01267  Uiso   1.00
H245   H     0.63160   0.07460   0.03300   0.01267  Uiso   1.00
H246   H     0.69790   0.10960   0.99360   0.01267  Uiso   1.00
H247   H     0.66780   0.14230   0.05060   0.01267  Uiso   1.00
H248   H     0.43320   0.44830   0.94010   0.01267  Uiso   1.00
H249   H     0.35820   0.36760   0.97990   0.01267  Uiso   1.00
H250   H     0.49920   0.35400   0.99890   0.01267  Uiso   1.00
H251   H     0.52690   0.30150   0.88860   0.01267  Uiso   1.00
H252   H     0.65440   0.35490   0.89030   0.01267  Uiso   1.00
H253   H     0.64790   0.31060   0.94460   0.01267  Uiso   1.00
H254   H     0.32630   0.28680   0.92930   0.01267  Uiso   1.00
H255   H     0.68600   0.40260   0.97170   0.01267  Uiso   1.00
H256   H     0.39650   0.36660   0.80790   0.01267  Uiso   1.00
H257   H     0.13150   0.47390   0.79480   0.01267  Uiso   1.00
H258   H     0.30430   0.51320   0.95120   0.01267  Uiso   1.00
H259   H     0.02960   0.54200   0.82650   0.01267  Uiso   1.00
H260   H     0.02130   0.54340   0.89340   0.01267  Uiso   1.00
H261   H     0.06400   0.60140   0.86110   0.01267  Uiso   1.00
H262   H     0.20660   0.58040   0.99080   0.01267  Uiso   1.00
H263   H     0.15500   0.62160   0.94640   0.01267  Uiso   1.00
H264   H     0.11170   0.56270   0.97680   0.01267  Uiso   1.00
H265   H     0.53330   0.64420   0.21250   0.01267  Uiso   1.00
H266   H     0.22370   0.39770   0.15520   0.01267  Uiso   1.00
H267   H     0.09340   0.46070   0.17050   0.01267  Uiso   1.00
H268   H     0.93170   0.65240   0.17220   0.01267  Uiso   1.00
H269   H     0.26340   0.80090   0.30260   0.01267  Uiso   1.00
H270   H     0.31070   0.75390   0.19240   0.01267  Uiso   1.00
H271   H     0.28220   0.69050   0.32940   0.01267  Uiso   1.00
H272   H     0.37460   0.66380   0.33930   0.01267  Uiso   1.00
H273   H     0.35740   0.73840   0.34150   0.01267  Uiso   1.00
H274   H     0.46810   0.79630   0.29400   0.01267  Uiso   1.00
H275   H     0.50190   0.73430   0.32500   0.01267  Uiso   1.00
H276   H     0.55580   0.76620   0.27610   0.01267  Uiso   1.00
H277   H     0.43810   0.78750   0.18620   0.01267  Uiso   1.00
H278   H     0.42760   0.71880   0.15900   0.01267  Uiso   1.00
H279   H     0.60810   0.74110   0.09550   0.01267  Uiso   1.00
H280   H     0.51480   0.72800   0.08990   0.01267  Uiso   1.00
H281   H     0.49010   0.62960   0.32780   0.01267  Uiso   1.00
H282   H     0.51280   0.56780   0.29230   0.01267  Uiso   1.00
H283   H     0.62510   0.67170   0.31200   0.01267  Uiso   1.00
H284   H     0.64810   0.61330   0.27200   0.01267  Uiso   1.00
H285   H     0.66660   0.59790   0.43410   0.01267  Uiso   1.00
H286   H     0.62970   0.65720   0.40740   0.01267  Uiso   1.00
H287   H     0.49960   0.48960   0.15090   0.01267  Uiso   1.00
H288   H     0.53370   0.56050   0.15600   0.01267  Uiso   1.00
H289   H     0.53720   0.51430   0.20910   0.01267  Uiso   1.00
H290   H     0.42850   0.40580   0.20990   0.01267  Uiso   1.00
H291   H     0.38290   0.35560   0.17010   0.01267  Uiso   1.00
H292   H     0.45200   0.40220   0.14480   0.01267  Uiso   1.00
H293   H     0.27430   0.48040   0.08760   0.01267  Uiso   1.00
H294   H     0.31500   0.41230   0.07800   0.01267  Uiso   1.00
H295   H     0.43410   0.56400   0.03320   0.01267  Uiso   1.00
H296   H     0.34760   0.56620   0.05980   0.01267  Uiso   1.00
H297   H     0.30020   0.41790   0.26390   0.01267  Uiso   1.00
H298   H     0.27990   0.35060   0.23630   0.01267  Uiso   1.00
H299   H     0.15560   0.43730   0.27540   0.01267  Uiso   1.00
H300   H     0.13450   0.37100   0.24690   0.01267  Uiso   1.00
H301   H     0.23530   0.30750   0.37770   0.01267  Uiso   1.00
H302   H     0.27900   0.32060   0.32210   0.01267  Uiso   1.00
H303   H     0.93660   0.58590   0.08780   0.01267  Uiso   1.00
H304   H     0.02910   0.61390   0.09330   0.01267  Uiso   1.00
H305   H     0.01560   0.54030   0.08080   0.01267  Uiso   1.00
H306   H     0.94980   0.48760   0.21410   0.01267  Uiso   1.00
H307   H     0.87700   0.51810   0.17680   0.01267  Uiso   1.00
H308   H     0.94490   0.47270   0.14830   0.01267  Uiso   1.00
H309   H     0.94120   0.65690   0.27610   0.01267  Uiso   1.00
H310   H     0.96300   0.58330   0.27430   0.01267  Uiso   1.00
H311   H     0.81930   0.60850   0.29640   0.01267  Uiso   1.00
H312   H     0.83220   0.55570   0.24950   0.01267  Uiso   1.00
H313   H     0.74240   0.71650   0.20880   0.01267  Uiso   1.00
H314   H     0.80280   0.71180   0.25800   0.01267  Uiso   1.00
H315   H     0.94270   0.74040   0.19930   0.01267  Uiso   1.00
H316   H     0.97430   0.77050   0.25710   0.01267  Uiso   1.00
H317   H     0.00320   0.80060   0.19870   0.01267  Uiso   1.00
H318   H     0.11530   0.83560   0.16130   0.01267  Uiso   1.00
H319   H     0.17150   0.89190   0.18540   0.01267  Uiso   1.00
H320   H     0.21490   0.83160   0.15730   0.01267  Uiso   1.00
H321   H     0.14180   0.89050   0.28690   0.01267  Uiso   1.00
H322   H     0.06110   0.85710   0.26130   0.01267  Uiso   1.00
H323   H     0.14800   0.82190   0.36140   0.01267  Uiso   1.00
H324   H     0.08990   0.77080   0.33100   0.01267  Uiso   1.00
H325   H     0.08340   0.86750   0.43170   0.01267  Uiso   1.00
H326   H     0.30370   0.88100   0.20640   0.01267  Uiso   1.00
H327   H     0.37880   0.85430   0.24400   0.01267  Uiso   1.00
H328   H     0.29580   0.00890   0.28430   0.01267  Uiso   1.00
H329   H     0.30580   0.98000   0.22610   0.01267  Uiso   1.00
H330   H     0.92050   0.91210   0.42120   0.01267  Uiso   1.00
H331   H     0.98340   0.93290   0.46990   0.01267  Uiso   1.00
H332   H     0.90030   0.81410   0.46590   0.01267  Uiso   1.00
H333   H     0.86840   0.92540   0.53300   0.01267  Uiso   1.00
H334   H     0.80210   0.89040   0.49360   0.01267  Uiso   1.00
H335   H     0.83220   0.85770   0.55060   0.01267  Uiso   1.00
H336   H     0.06680   0.55170   0.44010   0.01267  Uiso   1.00
H337   H     0.14180   0.63240   0.47990   0.01267  Uiso   1.00
H338   H     0.00080   0.64600   0.49890   0.01267  Uiso   1.00
H339   H     0.97310   0.69850   0.38860   0.01267  Uiso   1.00
H340   H     0.84560   0.64510   0.39030   0.01267  Uiso   1.00
H341   H     0.85210   0.68940   0.44460   0.01267  Uiso   1.00
H342   H     0.17370   0.71320   0.42930   0.01267  Uiso   1.00
H343   H     0.81400   0.59740   0.47170   0.01267  Uiso   1.00
H344   H     0.10350   0.63340   0.30790   0.01267  Uiso   1.00
H345   H     0.36850   0.52610   0.29480   0.01267  Uiso   1.00
H346   H     0.19570   0.48680   0.45120   0.01267  Uiso   1.00
H347   H     0.47040   0.45800   0.32650   0.01267  Uiso   1.00
H348   H     0.47870   0.45660   0.39340   0.01267  Uiso   1.00
H349   H     0.43600   0.39860   0.36110   0.01267  Uiso   1.00
H350   H     0.29340   0.41960   0.49080   0.01267  Uiso   1.00
H351   H     0.34500   0.37840   0.44640   0.01267  Uiso   1.00
H352   H     0.38830   0.43730   0.47680   0.01267  Uiso   1.00
C1     C     0.75050   0.85930   0.86100   0.01267  Uiso   1.00
C2     C     0.85930   0.79680   0.74090   0.01267  Uiso   1.00
C3     C     0.95400   0.78530   0.75480   0.01267  Uiso   1.00
C4     C     0.98890   0.85420   0.75800   0.01267  Uiso   1.00
C5     C     0.91300   0.89010   0.77920   0.01267  Uiso   1.00
C6     C     0.91590   0.95080   0.80590   0.01267  Uiso   1.00
C7     C     0.84800   0.98640   0.81590   0.01267  Uiso   1.00
C8     C     0.83790   0.05250   0.84120   0.01267  Uiso   1.00
C9     C     0.75320   0.07410   0.81760   0.01267  Uiso   1.00
C10    C     0.70940   0.01040   0.81290   0.01267  Uiso   1.00
C11    C     0.62490   0.00250   0.82080   0.01267  Uiso   1.00
C12    C     0.58160   0.94660   0.81730   0.01267  Uiso   1.00
C13    C     0.49240   0.93660   0.83520   0.01267  Uiso   1.00
C14    C     0.46880   0.87460   0.80400   0.01267  Uiso   1.00
C15    C     0.55550   0.84380   0.79710   0.01267  Uiso   1.00
C16    C     0.56560   0.78270   0.78260   0.01267  Uiso   1.00
C17    C     0.64950   0.75690   0.77070   0.01267  Uiso   1.00
C18    C     0.67080   0.68720   0.76170   0.01267  Uiso   1.00
C19    C     0.76370   0.69340   0.73900   0.01267  Uiso   1.00
C20    C     0.79280   0.75610   0.76840   0.01267  Uiso   1.00
C21    C     0.84170   0.80150   0.67670   0.01267  Uiso   1.00
C22    C     0.99910   0.74330   0.71090   0.01267  Uiso   1.00
C23    C     0.96170   0.75580   0.81470   0.01267  Uiso   1.00
C24    C     0.04890   0.75240   0.83660   0.01267  Uiso   1.00
C25    C     0.02220   0.88610   0.70480   0.01267  Uiso   1.00
C26    C     0.11580   0.87400   0.69440   0.01267  Uiso   1.00
C27    C     0.14540   0.91080   0.64470   0.01267  Uiso   1.00
C28    C     0.00490   0.97370   0.82420   0.01267  Uiso   1.00
C29    C     0.90660   0.10180   0.82790   0.01267  Uiso   1.00
C30    C     0.82520   0.04520   0.90590   0.01267  Uiso   1.00
C31    C     0.89780   0.01450   0.93820   0.01267  Uiso   1.00
C32    C     0.75920   0.10560   0.75920   0.01267  Uiso   1.00
C33    C     0.67510   0.10690   0.72870   0.01267  Uiso   1.00
C34    C     0.67290   0.13810   0.67100   0.01267  Uiso   1.00
C35    C     0.49350   0.92290   0.89920   0.01267  Uiso   1.00
C36    C     0.43580   0.99500   0.82290   0.01267  Uiso   1.00
C37    C     0.43180   0.88270   0.74510   0.01267  Uiso   1.00
C38    C     0.33860   0.89860   0.74250   0.01267  Uiso   1.00
C39    C     0.28430   0.86490   0.77900   0.01267  Uiso   1.00
C40    C     0.48960   0.73880   0.78180   0.01267  Uiso   1.00
C41    C     0.66780   0.65400   0.81980   0.01267  Uiso   1.00
C42    C     0.61550   0.65100   0.72040   0.01267  Uiso   1.00
C43    C     0.59850   0.68340   0.66300   0.01267  Uiso   1.00
C44    C     0.52370   0.65640   0.63440   0.01267  Uiso   1.00
C45    C     0.81910   0.63370   0.75550   0.01267  Uiso   1.00
C46    C     0.80570   0.58190   0.71460   0.01267  Uiso   1.00
C47    C     0.46260   0.60380   0.55180   0.01267  Uiso   1.00
C48    C     0.42170   0.64840   0.51300   0.01267  Uiso   1.00
C49    C     0.34950   0.61570   0.48100   0.01267  Uiso   1.00
C50    C     0.57600   0.91160   0.58570   0.01267  Uiso   1.00
C51    C     0.60560   0.85510   0.55240   0.01267  Uiso   1.00
C52    C     0.52270   0.82870   0.53340   0.01267  Uiso   1.00
C53    C     0.46630   0.83820   0.58540   0.01267  Uiso   1.00
C54    C     0.37570   0.84850   0.57390   0.01267  Uiso   1.00
C55    C     0.64300   0.89680   0.67930   0.01267  Uiso   1.00
C56    C     0.83320   0.98240   0.67410   0.01267  Uiso   1.00
C57    C     0.85920   0.02340   0.63330   0.01267  Uiso   1.00
C58    C     0.80680   0.03620   0.58530   0.01267  Uiso   1.00
C59    C     0.73040   0.00600   0.58050   0.01267  Uiso   1.00
C60    C     0.70520   0.96460   0.62320   0.01267  Uiso   1.00
C61    C     0.75480   0.95250   0.67050   0.01267  Uiso   1.00
C62    C     0.94350   0.05540   0.63860   0.01267  Uiso   1.00
C63    C     0.83590   0.07900   0.53880   0.01267  Uiso   1.00
C64    C     0.74950   0.14070   0.36100   0.01267  Uiso   1.00
C65    C     0.64070   0.20320   0.24090   0.01267  Uiso   1.00
C66    C     0.54600   0.21470   0.25480   0.01267  Uiso   1.00
C67    C     0.51110   0.14580   0.25800   0.01267  Uiso   1.00
C68    C     0.58700   0.10990   0.27920   0.01267  Uiso   1.00
C69    C     0.58410   0.04920   0.30590   0.01267  Uiso   1.00
C70    C     0.65200   0.01360   0.31590   0.01267  Uiso   1.00
C71    C     0.66210   0.94750   0.34120   0.01267  Uiso   1.00
C72    C     0.74680   0.92590   0.31760   0.01267  Uiso   1.00
C73    C     0.79060   0.98960   0.31290   0.01267  Uiso   1.00
C74    C     0.87510   0.99750   0.32080   0.01267  Uiso   1.00
C75    C     0.91840   0.05340   0.31730   0.01267  Uiso   1.00
C76    C     0.00760   0.06340   0.33520   0.01267  Uiso   1.00
C77    C     0.03120   0.12540   0.30400   0.01267  Uiso   1.00
C78    C     0.94450   0.15620   0.29710   0.01267  Uiso   1.00
C79    C     0.93440   0.21730   0.28260   0.01267  Uiso   1.00
C80    C     0.85050   0.24310   0.27070   0.01267  Uiso   1.00
C81    C     0.82920   0.31280   0.26170   0.01267  Uiso   1.00
C82    C     0.73630   0.30660   0.23900   0.01267  Uiso   1.00
C83    C     0.70720   0.24390   0.26840   0.01267  Uiso   1.00
C84    C     0.65830   0.19850   0.17670   0.01267  Uiso   1.00
C85    C     0.50090   0.25670   0.21090   0.01267  Uiso   1.00
C86    C     0.53830   0.24420   0.31470   0.01267  Uiso   1.00
C87    C     0.45110   0.24760   0.33660   0.01267  Uiso   1.00
C88    C     0.47780   0.11390   0.20480   0.01267  Uiso   1.00
C89    C     0.38420   0.12600   0.19440   0.01267  Uiso   1.00
C90    C     0.35460   0.08920   0.14470   0.01267  Uiso   1.00
C91    C     0.49510   0.02630   0.32420   0.01267  Uiso   1.00
C92    C     0.59340   0.89820   0.32790   0.01267  Uiso   1.00
C93    C     0.67480   0.95480   0.40590   0.01267  Uiso   1.00
C94    C     0.60220   0.98550   0.43820   0.01267  Uiso   1.00
C95    C     0.74080   0.89440   0.25920   0.01267  Uiso   1.00
C96    C     0.82490   0.89310   0.22870   0.01267  Uiso   1.00
C97    C     0.82710   0.86190   0.17100   0.01267  Uiso   1.00
C98    C     0.00650   0.07710   0.39920   0.01267  Uiso   1.00
C99    C     0.06420   0.00500   0.32290   0.01267  Uiso   1.00
C100   C     0.06820   0.11730   0.24510   0.01267  Uiso   1.00
C101   C     0.16140   0.10140   0.24250   0.01267  Uiso   1.00
C102   C     0.21570   0.13510   0.27900   0.01267  Uiso   1.00
C103   C     0.01040   0.26120   0.28180   0.01267  Uiso   1.00
C104   C     0.83220   0.34600   0.31980   0.01267  Uiso   1.00
C105   C     0.88450   0.34900   0.22040   0.01267  Uiso   1.00
C106   C     0.90150   0.31660   0.16300   0.01267  Uiso   1.00
C107   C     0.97630   0.34360   0.13440   0.01267  Uiso   1.00
C108   C     0.68090   0.36630   0.25550   0.01267  Uiso   1.00
C109   C     0.69430   0.41810   0.21460   0.01267  Uiso   1.00
C110   C     0.03740   0.39620   0.05180   0.01267  Uiso   1.00
C111   C     0.07830   0.35160   0.01300   0.01267  Uiso   1.00
C112   C     0.15050   0.38430   0.98100   0.01267  Uiso   1.00
C113   C     0.92400   0.08840   0.08570   0.01267  Uiso   1.00
C114   C     0.89440   0.14490   0.05240   0.01267  Uiso   1.00
C115   C     0.97730   0.17130   0.03340   0.01267  Uiso   1.00
C116   C     0.03370   0.16180   0.08540   0.01267  Uiso   1.00
C117   C     0.12430   0.15150   0.07390   0.01267  Uiso   1.00
C118   C     0.85700   0.10320   0.17930   0.01267  Uiso   1.00
C119   C     0.66680   0.01760   0.17410   0.01267  Uiso   1.00
C120   C     0.64080   0.97660   0.13330   0.01267  Uiso   1.00
C121   C     0.69320   0.96380   0.08530   0.01267  Uiso   1.00
C122   C     0.76960   0.99400   0.08050   0.01267  Uiso   1.00
C123   C     0.79480   0.03540   0.12320   0.01267  Uiso   1.00
C124   C     0.74520   0.04750   0.17050   0.01267  Uiso   1.00
C125   C     0.55650   0.94460   0.13860   0.01267  Uiso   1.00
C126   C     0.66410   0.92100   0.03880   0.01267  Uiso   1.00
C127   C     0.24950   0.35930   0.63900   0.01267  Uiso   1.00
C128   C     0.14070   0.29680   0.75910   0.01267  Uiso   1.00
C129   C     0.04600   0.28530   0.74520   0.01267  Uiso   1.00
C130   C     0.01110   0.35420   0.74200   0.01267  Uiso   1.00
C131   C     0.08700   0.39010   0.72080   0.01267  Uiso   1.00
C132   C     0.08410   0.45080   0.69410   0.01267  Uiso   1.00
C133   C     0.15200   0.48640   0.68410   0.01267  Uiso   1.00
C134   C     0.16210   0.55250   0.65880   0.01267  Uiso   1.00
C135   C     0.24680   0.57410   0.68240   0.01267  Uiso   1.00
C136   C     0.29060   0.51040   0.68710   0.01267  Uiso   1.00
C137   C     0.37510   0.50250   0.67920   0.01267  Uiso   1.00
C138   C     0.41840   0.44660   0.68270   0.01267  Uiso   1.00
C139   C     0.50760   0.43660   0.66480   0.01267  Uiso   1.00
C140   C     0.53120   0.37460   0.69600   0.01267  Uiso   1.00
C141   C     0.44450   0.34380   0.70290   0.01267  Uiso   1.00
C142   C     0.43440   0.28270   0.71740   0.01267  Uiso   1.00
C143   C     0.35050   0.25690   0.72930   0.01267  Uiso   1.00
C144   C     0.32920   0.18720   0.73830   0.01267  Uiso   1.00
C145   C     0.23630   0.19340   0.76100   0.01267  Uiso   1.00
C146   C     0.20720   0.25610   0.73160   0.01267  Uiso   1.00
C147   C     0.15830   0.30150   0.82330   0.01267  Uiso   1.00
C148   C     0.00090   0.24330   0.78910   0.01267  Uiso   1.00
C149   C     0.03830   0.25580   0.68530   0.01267  Uiso   1.00
C150   C     0.95110   0.25240   0.66340   0.01267  Uiso   1.00
C151   C     0.97780   0.38610   0.79520   0.01267  Uiso   1.00
C152   C     0.88420   0.37400   0.80560   0.01267  Uiso   1.00
C153   C     0.85460   0.41080   0.85530   0.01267  Uiso   1.00
C154   C     0.99510   0.47370   0.67580   0.01267  Uiso   1.00
C155   C     0.09340   0.60180   0.67210   0.01267  Uiso   1.00
C156   C     0.17480   0.54520   0.59410   0.01267  Uiso   1.00
C157   C     0.10220   0.51450   0.56180   0.01267  Uiso   1.00
C158   C     0.24080   0.60560   0.74080   0.01267  Uiso   1.00
C159   C     0.32490   0.60690   0.77130   0.01267  Uiso   1.00
C160   C     0.32710   0.63810   0.82900   0.01267  Uiso   1.00
C161   C     0.50650   0.42290   0.60080   0.01267  Uiso   1.00
C162   C     0.56420   0.49500   0.67710   0.01267  Uiso   1.00
C163   C     0.56820   0.38270   0.75490   0.01267  Uiso   1.00
C164   C     0.66140   0.39860   0.75750   0.01267  Uiso   1.00
C165   C     0.71570   0.36490   0.72100   0.01267  Uiso   1.00
C166   C     0.51040   0.23880   0.71820   0.01267  Uiso   1.00
C167   C     0.33220   0.15400   0.68020   0.01267  Uiso   1.00
C168   C     0.38450   0.15100   0.77960   0.01267  Uiso   1.00
C169   C     0.40150   0.18340   0.83700   0.01267  Uiso   1.00
C170   C     0.47630   0.15640   0.86560   0.01267  Uiso   1.00
C171   C     0.18090   0.13370   0.74450   0.01267  Uiso   1.00
C172   C     0.19430   0.08190   0.78540   0.01267  Uiso   1.00
C173   C     0.53740   0.10380   0.94820   0.01267  Uiso   1.00
C174   C     0.57830   0.14840   0.98700   0.01267  Uiso   1.00
C175   C     0.65050   0.11570   0.01900   0.01267  Uiso   1.00
C176   C     0.42400   0.41160   0.91430   0.01267  Uiso   1.00
C177   C     0.39440   0.35510   0.94760   0.01267  Uiso   1.00
C178   C     0.47730   0.32870   0.96660   0.01267  Uiso   1.00
C179   C     0.53370   0.33820   0.91460   0.01267  Uiso   1.00
C180   C     0.62430   0.34850   0.92610   0.01267  Uiso   1.00
C181   C     0.35700   0.39680   0.82070   0.01267  Uiso   1.00
C182   C     0.16680   0.48240   0.82590   0.01267  Uiso   1.00
C183   C     0.14080   0.52340   0.86670   0.01267  Uiso   1.00
C184   C     0.19320   0.53620   0.91470   0.01267  Uiso   1.00
C185   C     0.26960   0.50600   0.91950   0.01267  Uiso   1.00
C186   C     0.29480   0.46460   0.87680   0.01267  Uiso   1.00
C187   C     0.24520   0.45250   0.82950   0.01267  Uiso   1.00
C188   C     0.05650   0.55540   0.86140   0.01267  Uiso   1.00
C189   C     0.16410   0.57900   0.96120   0.01267  Uiso   1.00
C190   C     0.25050   0.64070   0.13900   0.01267  Uiso   1.00
C191   C     0.35930   0.70320   0.25910   0.01267  Uiso   1.00
C192   C     0.45400   0.71470   0.24520   0.01267  Uiso   1.00
C193   C     0.48890   0.64580   0.24200   0.01267  Uiso   1.00
C194   C     0.41300   0.60990   0.22080   0.01267  Uiso   1.00
C195   C     0.41590   0.54920   0.19410   0.01267  Uiso   1.00
C196   C     0.34800   0.51360   0.18410   0.01267  Uiso   1.00
C197   C     0.33790   0.44750   0.15880   0.01267  Uiso   1.00
C198   C     0.25320   0.42590   0.18240   0.01267  Uiso   1.00
C199   C     0.20940   0.48960   0.18710   0.01267  Uiso   1.00
C200   C     0.12490   0.49750   0.17920   0.01267  Uiso   1.00
C201   C     0.08160   0.55340   0.18270   0.01267  Uiso   1.00
C202   C     0.99240   0.56340   0.16480   0.01267  Uiso   1.00
C203   C     0.96880   0.62540   0.19600   0.01267  Uiso   1.00
C204   C     0.05550   0.65620   0.20290   0.01267  Uiso   1.00
C205   C     0.06560   0.71730   0.21740   0.01267  Uiso   1.00
C206   C     0.14950   0.74310   0.22930   0.01267  Uiso   1.00
C207   C     0.17080   0.81280   0.23830   0.01267  Uiso   1.00
C208   C     0.26370   0.80660   0.26100   0.01267  Uiso   1.00
C209   C     0.29280   0.74390   0.23160   0.01267  Uiso   1.00
C210   C     0.34170   0.69850   0.32330   0.01267  Uiso   1.00
C211   C     0.49910   0.75670   0.28910   0.01267  Uiso   1.00
C212   C     0.46170   0.74420   0.18530   0.01267  Uiso   1.00
C213   C     0.54890   0.74760   0.16340   0.01267  Uiso   1.00
C214   C     0.52220   0.61390   0.29520   0.01267  Uiso   1.00
C215   C     0.61580   0.62600   0.30560   0.01267  Uiso   1.00
C216   C     0.64540   0.58920   0.35530   0.01267  Uiso   1.00
C217   C     0.50490   0.52630   0.17580   0.01267  Uiso   1.00
C218   C     0.40660   0.39820   0.17210   0.01267  Uiso   1.00
C219   C     0.32520   0.45480   0.09410   0.01267  Uiso   1.00
C220   C     0.39780   0.48550   0.06180   0.01267  Uiso   1.00
C221   C     0.25920   0.39440   0.24080   0.01267  Uiso   1.00
C222   C     0.17510   0.39310   0.27130   0.01267  Uiso   1.00
C223   C     0.17290   0.36190   0.32900   0.01267  Uiso   1.00
C224   C     0.99350   0.57710   0.10080   0.01267  Uiso   1.00
C225   C     0.93580   0.50500   0.17710   0.01267  Uiso   1.00
C226   C     0.93180   0.61730   0.25490   0.01267  Uiso   1.00
C227   C     0.83860   0.60140   0.25750   0.01267  Uiso   1.00
C228   C     0.78430   0.63510   0.22100   0.01267  Uiso   1.00
C229   C     0.98960   0.76120   0.21820   0.01267  Uiso   1.00
C230   C     0.16780   0.84600   0.18020   0.01267  Uiso   1.00
C231   C     0.11550   0.84900   0.27960   0.01267  Uiso   1.00
C232   C     0.09850   0.81660   0.33700   0.01267  Uiso   1.00
C233   C     0.02370   0.84360   0.36560   0.01267  Uiso   1.00
C234   C     0.31910   0.86630   0.24450   0.01267  Uiso   1.00
C235   C     0.30570   0.91810   0.28540   0.01267  Uiso   1.00
C236   C     0.96260   0.89620   0.44820   0.01267  Uiso   1.00
C237   C     0.92170   0.85160   0.48700   0.01267  Uiso   1.00
C238   C     0.84950   0.88430   0.51900   0.01267  Uiso   1.00
C239   C     0.07600   0.58840   0.41430   0.01267  Uiso   1.00
C240   C     0.10560   0.64490   0.44760   0.01267  Uiso   1.00
C241   C     0.02270   0.67130   0.46660   0.01267  Uiso   1.00
C242   C     0.96630   0.66180   0.41460   0.01267  Uiso   1.00
C243   C     0.87570   0.65150   0.42610   0.01267  Uiso   1.00
C244   C     0.14300   0.60320   0.32070   0.01267  Uiso   1.00
C245   C     0.33320   0.51760   0.32590   0.01267  Uiso   1.00
C246   C     0.35920   0.47660   0.36670   0.01267  Uiso   1.00
C247   C     0.30680   0.46380   0.41470   0.01267  Uiso   1.00
C248   C     0.23040   0.49400   0.41950   0.01267  Uiso   1.00
C249   C     0.20520   0.53540   0.37680   0.01267  Uiso   1.00
C250   C     0.25480   0.54750   0.32950   0.01267  Uiso   1.00
C251   C     0.44350   0.44460   0.36140   0.01267  Uiso   1.00
C252   C     0.33590   0.42100   0.46120   0.01267  Uiso   1.00
N1     N     0.76430   0.84990   0.90700   0.01267  Uiso   1.00
N2     N     0.84330   0.86020   0.76800   0.01267  Uiso   1.00
N3     N     0.76480   0.96440   0.80430   0.01267  Uiso   1.00
N4     N     0.61690   0.89070   0.80070   0.01267  Uiso   1.00
N5     N     0.71490   0.79330   0.77040   0.01267  Uiso   1.00
N6     N     0.05820   0.76210   0.88920   0.01267  Uiso   1.00
N7     N     0.14750   0.88200   0.59560   0.01267  Uiso   1.00
N8     N     0.89260   0.95520   0.94960   0.01267  Uiso   1.00
N9     N     0.73610   0.17400   0.65530   0.01267  Uiso   1.00
N10    N     0.27560   0.80620   0.76980   0.01267  Uiso   1.00
N11    N     0.53350   0.63200   0.58370   0.01267  Uiso   1.00
N12    N     0.80200   0.52450   0.73730   0.01267  Uiso   1.00
N13    N     0.63410   0.92960   0.63020   0.01267  Uiso   1.00
N14    N     0.71070   0.91090   0.70660   0.01267  Uiso   1.00
N15    N     0.73570   0.15010   0.40700   0.01267  Uiso   1.00
N16    N     0.65670   0.13980   0.26800   0.01267  Uiso   1.00
N17    N     0.73520   0.03560   0.30430   0.01267  Uiso   1.00
N18    N     0.88310   0.10930   0.30070   0.01267  Uiso   1.00
N19    N     0.78510   0.20670   0.27040   0.01267  Uiso   1.00
N20    N     0.44180   0.23790   0.38920   0.01267  Uiso   1.00
N21    N     0.35250   0.11800   0.09560   0.01267  Uiso   1.00
N22    N     0.60740   0.04480   0.44960   0.01267  Uiso   1.00
N23    N     0.76390   0.82600   0.15530   0.01267  Uiso   1.00
N24    N     0.22440   0.19380   0.26980   0.01267  Uiso   1.00
N25    N     0.96650   0.36800   0.08370   0.01267  Uiso   1.00
N26    N     0.69800   0.47550   0.23730   0.01267  Uiso   1.00
N27    N     0.86590   0.07040   0.13020   0.01267  Uiso   1.00
N28    N     0.78930   0.08910   0.20660   0.01267  Uiso   1.00
N29    N     0.23570   0.34990   0.59300   0.01267  Uiso   1.00
N30    N     0.15670   0.36020   0.73200   0.01267  Uiso   1.00
N31    N     0.23520   0.46440   0.69570   0.01267  Uiso   1.00
N32    N     0.38310   0.39070   0.69930   0.01267  Uiso   1.00
N33    N     0.28510   0.29330   0.72960   0.01267  Uiso   1.00
N34    N     0.94180   0.26210   0.61080   0.01267  Uiso   1.00
N35    N     0.85250   0.38200   0.90440   0.01267  Uiso   1.00
N36    N     0.10740   0.45520   0.55040   0.01267  Uiso   1.00
N37    N     0.26390   0.67400   0.84470   0.01267  Uiso   1.00
N38    N     0.72440   0.30620   0.73020   0.01267  Uiso   1.00
N39    N     0.46650   0.13200   0.91630   0.01267  Uiso   1.00
N40    N     0.19800   0.02450   0.76270   0.01267  Uiso   1.00
N41    N     0.36590   0.42960   0.86980   0.01267  Uiso   1.00
N42    N     0.28930   0.41090   0.79340   0.01267  Uiso   1.00
N43    N     0.26430   0.65010   0.09300   0.01267  Uiso   1.00
N44    N     0.34330   0.63980   0.23200   0.01267  Uiso   1.00
N45    N     0.26480   0.53560   0.19570   0.01267  Uiso   1.00
N46    N     0.11690   0.60930   0.19930   0.01267  Uiso   1.00
N47    N     0.21490   0.70670   0.22960   0.01267  Uiso   1.00
N48    N     0.55820   0.73790   0.11080   0.01267  Uiso   1.00
N49    N     0.64750   0.61800   0.40440   0.01267  Uiso   1.00
N50    N     0.39260   0.54480   0.05040   0.01267  Uiso   1.00
N51    N     0.23610   0.32600   0.34470   0.01267  Uiso   1.00
N52    N     0.77560   0.69380   0.23020   0.01267  Uiso   1.00
N53    N     0.03350   0.86800   0.41630   0.01267  Uiso   1.00
N54    N     0.30200   0.97550   0.26270   0.01267  Uiso   1.00
N55    N     0.13410   0.57040   0.36980   0.01267  Uiso   1.00
N56    N     0.21070   0.58910   0.29340   0.01267  Uiso   1.00
Cl1    Cl    0.30200   0.08260   0.96750   0.01267  Uiso   1.00
Cl2    Cl    0.19800   0.91740   0.46750   0.01267  Uiso   1.00
Cl3    Cl    0.69800   0.58260   0.53250   0.01267  Uiso   1.00
Cl4    Cl    0.80200   0.41740   0.03250   0.01267  Uiso   1.00
O1     O     0.11250   0.73900   0.81090   0.01267  Uiso   1.00
O2     O     0.16970   0.96740   0.65310   0.01267  Uiso   1.00
O3     O     0.96050   0.04720   0.95070   0.01267  Uiso   1.00
O4     O     0.61080   0.12910   0.64030   0.01267  Uiso   1.00
O5     O     0.24810   0.89880   0.81890   0.01267  Uiso   1.00
O6     O     0.45350   0.65730   0.65780   0.01267  Uiso   1.00
O7     O     0.80090   0.59270   0.66360   0.01267  Uiso   1.00
O8     O     0.52660   0.76380   0.51860   0.01267  Uiso   1.00
O9     O     0.48230   0.66820   0.47110   0.01267  Uiso   1.00
O10    O     0.41820   0.77320   0.44230   0.01267  Uiso   1.00
O11    O     0.56860   0.74140   0.41710   0.01267  Uiso   1.00
O12    O     0.49970   0.89490   0.61190   0.01267  Uiso   1.00
O13    O     0.64660   0.81360   0.58930   0.01267  Uiso   1.00
O14    O     0.36390   0.90150   0.53930   0.01267  Uiso   1.00
O15    O     0.38750   0.26100   0.31090   0.01267  Uiso   1.00
O16    O     0.33030   0.03260   0.15310   0.01267  Uiso   1.00
O17    O     0.53950   0.95280   0.45070   0.01267  Uiso   1.00
O18    O     0.88920   0.87090   0.14030   0.01267  Uiso   1.00
O19    O     0.25190   0.10120   0.31890   0.01267  Uiso   1.00
O20    O     0.04650   0.34270   0.15780   0.01267  Uiso   1.00
O21    O     0.69910   0.40730   0.16360   0.01267  Uiso   1.00
O22    O     0.97340   0.23620   0.01860   0.01267  Uiso   1.00
O23    O     0.01770   0.33180   0.97110   0.01267  Uiso   1.00
O24    O     0.08180   0.22680   0.94230   0.01267  Uiso   1.00
O25    O     0.93140   0.25860   0.91710   0.01267  Uiso   1.00
O26    O     0.00030   0.10510   0.11190   0.01267  Uiso   1.00
O27    O     0.85340   0.18640   0.08930   0.01267  Uiso   1.00
O28    O     0.13610   0.09850   0.03930   0.01267  Uiso   1.00
O29    O     0.88750   0.23900   0.68910   0.01267  Uiso   1.00
O30    O     0.83030   0.46740   0.84690   0.01267  Uiso   1.00
O31    O     0.03950   0.54720   0.54930   0.01267  Uiso   1.00
O32    O     0.38920   0.62910   0.85970   0.01267  Uiso   1.00
O33    O     0.75190   0.39880   0.68110   0.01267  Uiso   1.00
O34    O     0.54650   0.15730   0.84220   0.01267  Uiso   1.00
O35    O     0.19910   0.09270   0.83640   0.01267  Uiso   1.00
O36    O     0.47340   0.26380   0.98140   0.01267  Uiso   1.00
O37    O     0.51770   0.16820   0.02890   0.01267  Uiso   1.00
O38    O     0.58180   0.27320   0.05770   0.01267  Uiso   1.00
O39    O     0.43140   0.24140   0.08290   0.01267  Uiso   1.00
O40    O     0.50030   0.39490   0.88810   0.01267  Uiso   1.00
O41    O     0.35340   0.31360   0.91070   0.01267  Uiso   1.00
O42    O     0.63610   0.40150   0.96070   0.01267  Uiso   1.00
O43    O     0.61250   0.76100   0.18910   0.01267  Uiso   1.00
O44    O     0.66970   0.53260   0.34690   0.01267  Uiso   1.00
O45    O     0.46050   0.45280   0.04930   0.01267  Uiso   1.00
O46    O     0.11080   0.37090   0.35970   0.01267  Uiso   1.00
O47    O     0.74810   0.60120   0.18110   0.01267  Uiso   1.00
O48    O     0.95350   0.84270   0.34220   0.01267  Uiso   1.00
O49    O     0.30090   0.90730   0.33640   0.01267  Uiso   1.00
O50    O     0.02660   0.73620   0.48140   0.01267  Uiso   1.00
O51    O     0.98230   0.83180   0.52890   0.01267  Uiso   1.00
O52    O     0.91820   0.72680   0.55770   0.01267  Uiso   1.00
O53    O     0.06860   0.75860   0.58290   0.01267  Uiso   1.00
O54    O     0.99970   0.60510   0.38810   0.01267  Uiso   1.00
O55    O     0.14660   0.68640   0.41070   0.01267  Uiso   1.00
O56    O     0.86390   0.59850   0.46070   0.01267  Uiso   1.00
