data_image0
_cell_length_a       32.68
_cell_length_b       34.95
_cell_length_c       25.12
_cell_angle_alpha    90
_cell_angle_beta     90
_cell_angle_gamma    90

_symmetry_space_group_name_H-M    "P 1"
_symmetry_int_tables_number       1

loop_
  _symmetry_equiv_pos_as_xyz
  'x, y, z'

loop_
  _atom_site_label
  _atom_site_occupancy
  _atom_site_fract_x
  _atom_site_fract_y
  _atom_site_fract_z
  _atom_site_thermal_displace_type
  _atom_site_B_iso_or_equiv
  _atom_site_type_symbol
  Cd1      1.0000 0.49786  0.14656  0.88496  Biso   1.000  Cd
  Cd2      1.0000 0.56981  0.24939  0.66463  Biso   1.000  Cd
  Cd3      1.0000 0.53199  0.19610  0.77117  Biso   1.000  Cd
  C1       1.0000 0.64540  0.16280  0.78490  Biso   1.000  C
  H1       1.0000 0.62690  0.17720  0.80460  Biso   1.000  H
  C2       1.0000 0.64680  0.16810  0.73550  Biso   1.000  C
  C3       1.0000 0.67530  0.14310  0.69910  Biso   1.000  C
  H2       1.0000 0.67740  0.14690  0.66130  Biso   1.000  H
  C4       1.0000 0.69830  0.11410  0.73080  Biso   1.000  C
  H3       1.0000 0.71400  0.09640  0.71210  Biso   1.000  H
  C5       1.0000 0.69830  0.11180  0.77930  Biso   1.000  C
  C6       1.0000 0.67170  0.13470  0.81380  Biso   1.000  C
  C7       1.0000 0.67120  0.12890  0.86900  Biso   1.000  C
  H4       1.0000 0.64990  0.14070  0.88960  Biso   1.000  H
  C8       1.0000 0.69750  0.10450  0.89180  Biso   1.000  C
  H5       1.0000 0.69720  0.10150  0.92860  Biso   1.000  H
  C9       1.0000 0.72530  0.08350  0.86180  Biso   1.000  C
  C10      1.0000 0.72660  0.08610  0.80780  Biso   1.000  C
  H6       1.0000 0.74540  0.07160  0.78870  Biso   1.000  H
  C11      1.0000 0.61910  0.19360  0.69990  Biso   1.000  C
  C12      1.0000 0.75890  0.05620  0.88500  Biso   1.000  C
  O1       1.0000 0.62630  0.19870  0.65480  Biso   1.000  O
  O2       1.0000 0.59400  0.21150  0.73290  Biso   1.000  O
  O3       1.0000 0.75410  0.05670  0.93760  Biso   1.000  O
  O4       1.0000 0.77780  0.03390  0.86100  Biso   1.000  O
  C13      1.0000 0.65820  0.32510  0.98450  Biso   1.000  C
  H7       1.0000 0.67020  0.34150  0.95990  Biso   1.000  H
  C14      1.0000 0.66530  0.32920  0.03440  Biso   1.000  C
  C15      1.0000 0.65150  0.30000  0.07240  Biso   1.000  C
  H8       1.0000 0.65800  0.30220  0.10950  Biso   1.000  H
  C16      1.0000 0.62680  0.27210  0.05220  Biso   1.000  C
  H9       1.0000 0.61530  0.25460  0.07580  Biso   1.000  H
  C17      1.0000 0.61800  0.26820  0.99970  Biso   1.000  C
  C18      1.0000 0.63150  0.29490  0.96690  Biso   1.000  C
  C19      1.0000 0.62490  0.29390  0.90880  Biso   1.000  C
  H10      1.0000 0.63750  0.31150  0.88640  Biso   1.000  H
  C20      1.0000 0.59760  0.26400  0.88750  Biso   1.000  C
  H11      1.0000 0.58870  0.26360  0.85110  Biso   1.000  H
  C21      1.0000 0.58380  0.23530  0.92670  Biso   1.000  C
  C22      1.0000 0.59250  0.23820  0.97880  Biso   1.000  C
  H12      1.0000 0.58170  0.22020  0.00210  Biso   1.000  H
  C23      1.0000 0.69410  0.36090  0.05370  Biso   1.000  C
  C24      1.0000 0.55780  0.20290  0.90400  Biso   1.000  C
  O5       1.0000 0.70380  0.35620  0.10000  Biso   1.000  O
  O6       1.0000 0.70470  0.38400  0.02140  Biso   1.000  O
  O7       1.0000 0.55730  0.20120  0.85420  Biso   1.000  O
  O8       1.0000 0.53820  0.18460  0.93570  Biso   1.000  O
  C25      1.0000 0.39360  0.04550  0.94580  Biso   1.000  C
  H13      1.0000 0.39080  0.04000  0.90980  Biso   1.000  H
  C26      1.0000 0.41860  0.07180  0.97150  Biso   1.000  C
  C27      1.0000 0.42060  0.07530  0.02610  Biso   1.000  C
  H14      1.0000 0.43780  0.09410  0.03960  Biso   1.000  H
  C28      1.0000 0.39940  0.05370  0.06260  Biso   1.000  C
  H15      1.0000 0.40150  0.05870  0.09890  Biso   1.000  H
  C29      1.0000 0.37550  0.02510  0.04470  Biso   1.000  C
  C30      1.0000 0.37350  0.02960  0.99040  Biso   1.000  C
  C31      1.0000 0.35020  0.00170  0.96830  Biso   1.000  C
  H16      1.0000 0.34740  0.99720  0.93200  Biso   1.000  H
  C32      1.0000 0.33100  0.98050  0.00870  Biso   1.000  C
  H17      1.0000 0.31370  0.96200  0.99450  Biso   1.000  H
  C33      1.0000 0.33060  0.97970  0.06460  Biso   1.000  C
  C34      1.0000 0.35750  0.00570  0.08730  Biso   1.000  C
  H18      1.0000 0.36180  0.00870  0.12490  Biso   1.000  H
  C35      1.0000 0.45060  0.09850  0.93930  Biso   1.000  C
  C36      1.0000 0.30320  0.94920  0.09030  Biso   1.000  C
  O9       1.0000 0.44760  0.09880  0.89110  Biso   1.000  O
  O10      1.0000 0.46970  0.12080  0.96660  Biso   1.000  O
  O11      1.0000 0.30680  0.94700  0.14080  Biso   1.000  O
  O12      1.0000 0.27980  0.93100  0.06190  Biso   1.000  O
  C37      1.0000 0.72810  0.42770  0.57020  Biso   1.000  C
  H19      1.0000 0.74150  0.44370  0.59610  Biso   1.000  H
  C38      1.0000 0.73560  0.43350  0.51640  Biso   1.000  C
  C39      1.0000 0.71400  0.41210  0.47880  Biso   1.000  C
  H20      1.0000 0.71560  0.41850  0.44290  Biso   1.000  H
  C40      1.0000 0.69000  0.38120  0.49490  Biso   1.000  C
  H21      1.0000 0.68240  0.36140  0.47020  Biso   1.000  H
  C41      1.0000 0.68140  0.37670  0.54700  Biso   1.000  C
  C42      1.0000 0.70060  0.39930  0.58660  Biso   1.000  C
  C43      1.0000 0.69310  0.39060  0.63930  Biso   1.000  C
  H22      1.0000 0.70610  0.40450  0.66760  Biso   1.000  H
  C44      1.0000 0.66750  0.36060  0.65350  Biso   1.000  C
  H23      1.0000 0.65770  0.35430  0.68840  Biso   1.000  H
  C45      1.0000 0.64860  0.33890  0.61390  Biso   1.000  C
  C46      1.0000 0.65580  0.34630  0.56100  Biso   1.000  C
  H24      1.0000 0.64140  0.33030  0.53610  Biso   1.000  H
  C47      1.0000 0.76270  0.46500  0.49650  Biso   1.000  C
  C48      1.0000 0.61810  0.30550  0.62340  Biso   1.000  C
  O13      1.0000 0.77040  0.49310  0.52390  Biso   1.000  O
  O14      1.0000 0.77250  0.46190  0.44890  Biso   1.000  O
  O15      1.0000 0.59690  0.28590  0.59510  Biso   1.000  O
  O16      1.0000 0.62010  0.29760  0.67370  Biso   1.000  O
  Cd4      1.0000 0.49786  0.64656  0.38496  Biso   1.000  Cd
  Cd5      1.0000 0.56981  0.74939  0.16463  Biso   1.000  Cd
  Cd6      1.0000 0.53199  0.69610  0.27117  Biso   1.000  Cd
  C49      1.0000 0.64540  0.66280  0.28490  Biso   1.000  C
  H25      1.0000 0.62690  0.67720  0.30460  Biso   1.000  H
  C50      1.0000 0.64680  0.66810  0.23550  Biso   1.000  C
  C51      1.0000 0.67530  0.64310  0.19910  Biso   1.000  C
  H26      1.0000 0.67740  0.64690  0.16130  Biso   1.000  H
  C52      1.0000 0.69830  0.61410  0.23080  Biso   1.000  C
  H27      1.0000 0.71400  0.59640  0.21210  Biso   1.000  H
  C53      1.0000 0.69830  0.61180  0.27930  Biso   1.000  C
  C54      1.0000 0.67170  0.63470  0.31380  Biso   1.000  C
  C55      1.0000 0.67120  0.62890  0.36900  Biso   1.000  C
  H28      1.0000 0.64990  0.64070  0.38960  Biso   1.000  H
  C56      1.0000 0.69750  0.60450  0.39180  Biso   1.000  C
  H29      1.0000 0.69720  0.60150  0.42860  Biso   1.000  H
  C57      1.0000 0.72530  0.58350  0.36180  Biso   1.000  C
  C58      1.0000 0.72660  0.58610  0.30780  Biso   1.000  C
  H30      1.0000 0.74540  0.57160  0.28870  Biso   1.000  H
  C59      1.0000 0.61910  0.69360  0.19990  Biso   1.000  C
  C60      1.0000 0.75890  0.55620  0.38500  Biso   1.000  C
  O17      1.0000 0.62630  0.69870  0.15480  Biso   1.000  O
  O18      1.0000 0.59400  0.71150  0.23290  Biso   1.000  O
  O19      1.0000 0.75410  0.55670  0.43760  Biso   1.000  O
  O20      1.0000 0.77780  0.53390  0.36100  Biso   1.000  O
  C61      1.0000 0.65820  0.82510  0.48450  Biso   1.000  C
  H31      1.0000 0.67020  0.84150  0.45990  Biso   1.000  H
  C62      1.0000 0.66530  0.82920  0.53440  Biso   1.000  C
  C63      1.0000 0.65150  0.80000  0.57240  Biso   1.000  C
  H32      1.0000 0.65800  0.80220  0.60950  Biso   1.000  H
  C64      1.0000 0.62680  0.77210  0.55220  Biso   1.000  C
  H33      1.0000 0.61530  0.75460  0.57580  Biso   1.000  H
  C65      1.0000 0.61800  0.76820  0.49970  Biso   1.000  C
  C66      1.0000 0.63150  0.79490  0.46690  Biso   1.000  C
  C67      1.0000 0.62490  0.79390  0.40880  Biso   1.000  C
  H34      1.0000 0.63750  0.81150  0.38640  Biso   1.000  H
  C68      1.0000 0.59760  0.76400  0.38750  Biso   1.000  C
  H35      1.0000 0.58870  0.76360  0.35110  Biso   1.000  H
  C69      1.0000 0.58380  0.73530  0.42670  Biso   1.000  C
  C70      1.0000 0.59250  0.73820  0.47880  Biso   1.000  C
  H36      1.0000 0.58170  0.72020  0.50210  Biso   1.000  H
  C71      1.0000 0.69410  0.86090  0.55370  Biso   1.000  C
  C72      1.0000 0.55780  0.70290  0.40400  Biso   1.000  C
  O21      1.0000 0.70380  0.85620  0.60000  Biso   1.000  O
  O22      1.0000 0.70470  0.88400  0.52140  Biso   1.000  O
  O23      1.0000 0.55730  0.70120  0.35420  Biso   1.000  O
  O24      1.0000 0.53820  0.68460  0.43570  Biso   1.000  O
  C73      1.0000 0.39360  0.54550  0.44580  Biso   1.000  C
  H37      1.0000 0.39080  0.54000  0.40980  Biso   1.000  H
  C74      1.0000 0.41860  0.57180  0.47150  Biso   1.000  C
  C75      1.0000 0.42060  0.57530  0.52610  Biso   1.000  C
  H38      1.0000 0.43780  0.59410  0.53960  Biso   1.000  H
  C76      1.0000 0.39940  0.55370  0.56260  Biso   1.000  C
  H39      1.0000 0.40150  0.55870  0.59890  Biso   1.000  H
  C77      1.0000 0.37550  0.52510  0.54470  Biso   1.000  C
  C78      1.0000 0.37350  0.52960  0.49040  Biso   1.000  C
  C79      1.0000 0.35020  0.50170  0.46830  Biso   1.000  C
  H40      1.0000 0.34740  0.49720  0.43200  Biso   1.000  H
  C80      1.0000 0.33100  0.48050  0.50870  Biso   1.000  C
  H41      1.0000 0.31370  0.46200  0.49450  Biso   1.000  H
  C81      1.0000 0.33060  0.47970  0.56460  Biso   1.000  C
  C82      1.0000 0.35750  0.50570  0.58730  Biso   1.000  C
  H42      1.0000 0.36180  0.50870  0.62490  Biso   1.000  H
  C83      1.0000 0.45060  0.59850  0.43930  Biso   1.000  C
  C84      1.0000 0.30320  0.44920  0.59030  Biso   1.000  C
  O25      1.0000 0.44760  0.59880  0.39110  Biso   1.000  O
  O26      1.0000 0.46970  0.62080  0.46660  Biso   1.000  O
  O27      1.0000 0.30680  0.44700  0.64080  Biso   1.000  O
  O28      1.0000 0.27980  0.43100  0.56190  Biso   1.000  O
  C85      1.0000 0.72810  0.92770  0.07020  Biso   1.000  C
  H43      1.0000 0.74150  0.94370  0.09610  Biso   1.000  H
  C86      1.0000 0.73560  0.93350  0.01640  Biso   1.000  C
  C87      1.0000 0.71400  0.91210  0.97880  Biso   1.000  C
  H44      1.0000 0.71560  0.91850  0.94290  Biso   1.000  H
  C88      1.0000 0.69000  0.88120  0.99490  Biso   1.000  C
  H45      1.0000 0.68240  0.86140  0.97020  Biso   1.000  H
  C89      1.0000 0.68140  0.87670  0.04700  Biso   1.000  C
  C90      1.0000 0.70060  0.89930  0.08660  Biso   1.000  C
  C91      1.0000 0.69310  0.89060  0.13930  Biso   1.000  C
  H46      1.0000 0.70610  0.90450  0.16760  Biso   1.000  H
  C92      1.0000 0.66750  0.86060  0.15350  Biso   1.000  C
  H47      1.0000 0.65770  0.85430  0.18840  Biso   1.000  H
  C93      1.0000 0.64860  0.83890  0.11390  Biso   1.000  C
  C94      1.0000 0.65580  0.84630  0.06100  Biso   1.000  C
  H48      1.0000 0.64140  0.83030  0.03610  Biso   1.000  H
  C95      1.0000 0.76270  0.96500  0.99650  Biso   1.000  C
  C96      1.0000 0.61810  0.80550  0.12340  Biso   1.000  C
  O29      1.0000 0.77040  0.99310  0.02390  Biso   1.000  O
  O30      1.0000 0.77250  0.96190  0.94890  Biso   1.000  O
  O31      1.0000 0.59690  0.78590  0.09510  Biso   1.000  O
  O32      1.0000 0.62010  0.79760  0.17370  Biso   1.000  O
  Cd7      1.0000 0.99786  0.14656  0.38496  Biso   1.000  Cd
  Cd8      1.0000 0.06981  0.24939  0.16463  Biso   1.000  Cd
  Cd9      1.0000 0.03199  0.19610  0.27117  Biso   1.000  Cd
  C97      1.0000 0.14540  0.16280  0.28490  Biso   1.000  C
  H49      1.0000 0.12690  0.17720  0.30460  Biso   1.000  H
  C98      1.0000 0.14680  0.16810  0.23550  Biso   1.000  C
  C99      1.0000 0.17530  0.14310  0.19910  Biso   1.000  C
  H50      1.0000 0.17740  0.14690  0.16130  Biso   1.000  H
  C100     1.0000 0.19830  0.11410  0.23080  Biso   1.000  C
  H51      1.0000 0.21400  0.09640  0.21210  Biso   1.000  H
  C101     1.0000 0.19830  0.11180  0.27930  Biso   1.000  C
  C102     1.0000 0.17170  0.13470  0.31380  Biso   1.000  C
  C103     1.0000 0.17120  0.12890  0.36900  Biso   1.000  C
  H52      1.0000 0.14990  0.14070  0.38960  Biso   1.000  H
  C104     1.0000 0.19750  0.10450  0.39180  Biso   1.000  C
  H53      1.0000 0.19720  0.10150  0.42860  Biso   1.000  H
  C105     1.0000 0.22530  0.08350  0.36180  Biso   1.000  C
  C106     1.0000 0.22660  0.08610  0.30780  Biso   1.000  C
  H54      1.0000 0.24540  0.07160  0.28870  Biso   1.000  H
  C107     1.0000 0.11910  0.19360  0.19990  Biso   1.000  C
  C108     1.0000 0.25890  0.05620  0.38500  Biso   1.000  C
  O33      1.0000 0.12630  0.19870  0.15480  Biso   1.000  O
  O34      1.0000 0.09400  0.21150  0.23290  Biso   1.000  O
  O35      1.0000 0.25410  0.05670  0.43760  Biso   1.000  O
  O36      1.0000 0.27780  0.03390  0.36100  Biso   1.000  O
  C109     1.0000 0.15820  0.32510  0.48450  Biso   1.000  C
  H55      1.0000 0.17020  0.34150  0.45990  Biso   1.000  H
  C110     1.0000 0.16530  0.32920  0.53440  Biso   1.000  C
  C111     1.0000 0.15150  0.30000  0.57240  Biso   1.000  C
  H56      1.0000 0.15800  0.30220  0.60950  Biso   1.000  H
  C112     1.0000 0.12680  0.27210  0.55220  Biso   1.000  C
  H57      1.0000 0.11530  0.25460  0.57580  Biso   1.000  H
  C113     1.0000 0.11800  0.26820  0.49970  Biso   1.000  C
  C114     1.0000 0.13150  0.29490  0.46690  Biso   1.000  C
  C115     1.0000 0.12490  0.29390  0.40880  Biso   1.000  C
  H58      1.0000 0.13750  0.31150  0.38640  Biso   1.000  H
  C116     1.0000 0.09760  0.26400  0.38750  Biso   1.000  C
  H59      1.0000 0.08870  0.26360  0.35110  Biso   1.000  H
  C117     1.0000 0.08380  0.23530  0.42670  Biso   1.000  C
  C118     1.0000 0.09250  0.23820  0.47880  Biso   1.000  C
  H60      1.0000 0.08170  0.22020  0.50210  Biso   1.000  H
  C119     1.0000 0.19410  0.36090  0.55370  Biso   1.000  C
  C120     1.0000 0.05780  0.20290  0.40400  Biso   1.000  C
  O37      1.0000 0.20380  0.35620  0.60000  Biso   1.000  O
  O38      1.0000 0.20470  0.38400  0.52140  Biso   1.000  O
  O39      1.0000 0.05730  0.20120  0.35420  Biso   1.000  O
  O40      1.0000 0.03820  0.18460  0.43570  Biso   1.000  O
  C121     1.0000 0.89360  0.04550  0.44580  Biso   1.000  C
  H61      1.0000 0.89080  0.04000  0.40980  Biso   1.000  H
  C122     1.0000 0.91860  0.07180  0.47150  Biso   1.000  C
  C123     1.0000 0.92060  0.07530  0.52610  Biso   1.000  C
  H62      1.0000 0.93780  0.09410  0.53960  Biso   1.000  H
  C124     1.0000 0.89940  0.05370  0.56260  Biso   1.000  C
  H63      1.0000 0.90150  0.05870  0.59890  Biso   1.000  H
  C125     1.0000 0.87550  0.02510  0.54470  Biso   1.000  C
  C126     1.0000 0.87350  0.02960  0.49040  Biso   1.000  C
  C127     1.0000 0.85020  0.00170  0.46830  Biso   1.000  C
  H64      1.0000 0.84740  0.99720  0.43200  Biso   1.000  H
  C128     1.0000 0.83100  0.98050  0.50870  Biso   1.000  C
  H65      1.0000 0.81370  0.96200  0.49450  Biso   1.000  H
  C129     1.0000 0.83060  0.97970  0.56460  Biso   1.000  C
  C130     1.0000 0.85750  0.00570  0.58730  Biso   1.000  C
  H66      1.0000 0.86180  0.00870  0.62490  Biso   1.000  H
  C131     1.0000 0.95060  0.09850  0.43930  Biso   1.000  C
  C132     1.0000 0.80320  0.94920  0.59030  Biso   1.000  C
  O41      1.0000 0.94760  0.09880  0.39110  Biso   1.000  O
  O42      1.0000 0.96970  0.12080  0.46660  Biso   1.000  O
  O43      1.0000 0.80680  0.94700  0.64080  Biso   1.000  O
  O44      1.0000 0.77980  0.93100  0.56190  Biso   1.000  O
  C133     1.0000 0.22810  0.42770  0.07020  Biso   1.000  C
  H67      1.0000 0.24150  0.44370  0.09610  Biso   1.000  H
  C134     1.0000 0.23560  0.43350  0.01640  Biso   1.000  C
  C135     1.0000 0.21400  0.41210  0.97880  Biso   1.000  C
  H68      1.0000 0.21560  0.41850  0.94290  Biso   1.000  H
  C136     1.0000 0.19000  0.38120  0.99490  Biso   1.000  C
  H69      1.0000 0.18240  0.36140  0.97020  Biso   1.000  H
  C137     1.0000 0.18140  0.37670  0.04700  Biso   1.000  C
  C138     1.0000 0.20060  0.39930  0.08660  Biso   1.000  C
  C139     1.0000 0.19310  0.39060  0.13930  Biso   1.000  C
  H70      1.0000 0.20610  0.40450  0.16760  Biso   1.000  H
  C140     1.0000 0.16750  0.36060  0.15350  Biso   1.000  C
  H71      1.0000 0.15770  0.35430  0.18840  Biso   1.000  H
  C141     1.0000 0.14860  0.33890  0.11390  Biso   1.000  C
  C142     1.0000 0.15580  0.34630  0.06100  Biso   1.000  C
  H72      1.0000 0.14140  0.33030  0.03610  Biso   1.000  H
  C143     1.0000 0.26270  0.46500  0.99650  Biso   1.000  C
  C144     1.0000 0.11810  0.30550  0.12340  Biso   1.000  C
  O45      1.0000 0.27040  0.49310  0.02390  Biso   1.000  O
  O46      1.0000 0.27250  0.46190  0.94890  Biso   1.000  O
  O47      1.0000 0.09690  0.28590  0.09510  Biso   1.000  O
  O48      1.0000 0.12010  0.29760  0.17370  Biso   1.000  O
  Cd10     1.0000 0.99786  0.64656  0.88496  Biso   1.000  Cd
  Cd11     1.0000 0.06981  0.74939  0.66463  Biso   1.000  Cd
  Cd12     1.0000 0.03199  0.69610  0.77117  Biso   1.000  Cd
  C145     1.0000 0.14540  0.66280  0.78490  Biso   1.000  C
  H73      1.0000 0.12690  0.67720  0.80460  Biso   1.000  H
  C146     1.0000 0.14680  0.66810  0.73550  Biso   1.000  C
  C147     1.0000 0.17530  0.64310  0.69910  Biso   1.000  C
  H74      1.0000 0.17740  0.64690  0.66130  Biso   1.000  H
  C148     1.0000 0.19830  0.61410  0.73080  Biso   1.000  C
  H75      1.0000 0.21400  0.59640  0.71210  Biso   1.000  H
  C149     1.0000 0.19830  0.61180  0.77930  Biso   1.000  C
  C150     1.0000 0.17170  0.63470  0.81380  Biso   1.000  C
  C151     1.0000 0.17120  0.62890  0.86900  Biso   1.000  C
  H76      1.0000 0.14990  0.64070  0.88960  Biso   1.000  H
  C152     1.0000 0.19750  0.60450  0.89180  Biso   1.000  C
  H77      1.0000 0.19720  0.60150  0.92860  Biso   1.000  H
  C153     1.0000 0.22530  0.58350  0.86180  Biso   1.000  C
  C154     1.0000 0.22660  0.58610  0.80780  Biso   1.000  C
  H78      1.0000 0.24540  0.57160  0.78870  Biso   1.000  H
  C155     1.0000 0.11910  0.69360  0.69990  Biso   1.000  C
  C156     1.0000 0.25890  0.55620  0.88500  Biso   1.000  C
  O49      1.0000 0.12630  0.69870  0.65480  Biso   1.000  O
  O50      1.0000 0.09400  0.71150  0.73290  Biso   1.000  O
  O51      1.0000 0.25410  0.55670  0.93760  Biso   1.000  O
  O52      1.0000 0.27780  0.53390  0.86100  Biso   1.000  O
  C157     1.0000 0.15820  0.82510  0.98450  Biso   1.000  C
  H79      1.0000 0.17020  0.84150  0.95990  Biso   1.000  H
  C158     1.0000 0.16530  0.82920  0.03440  Biso   1.000  C
  C159     1.0000 0.15150  0.80000  0.07240  Biso   1.000  C
  H80      1.0000 0.15800  0.80220  0.10950  Biso   1.000  H
  C160     1.0000 0.12680  0.77210  0.05220  Biso   1.000  C
  H81      1.0000 0.11530  0.75460  0.07580  Biso   1.000  H
  C161     1.0000 0.11800  0.76820  0.99970  Biso   1.000  C
  C162     1.0000 0.13150  0.79490  0.96690  Biso   1.000  C
  C163     1.0000 0.12490  0.79390  0.90880  Biso   1.000  C
  H82      1.0000 0.13750  0.81150  0.88640  Biso   1.000  H
  C164     1.0000 0.09760  0.76400  0.88750  Biso   1.000  C
  H83      1.0000 0.08870  0.76360  0.85110  Biso   1.000  H
  C165     1.0000 0.08380  0.73530  0.92670  Biso   1.000  C
  C166     1.0000 0.09250  0.73820  0.97880  Biso   1.000  C
  H84      1.0000 0.08170  0.72020  0.00210  Biso   1.000  H
  C167     1.0000 0.19410  0.86090  0.05370  Biso   1.000  C
  C168     1.0000 0.05780  0.70290  0.90400  Biso   1.000  C
  O53      1.0000 0.20380  0.85620  0.10000  Biso   1.000  O
  O54      1.0000 0.20470  0.88400  0.02140  Biso   1.000  O
  O55      1.0000 0.05730  0.70120  0.85420  Biso   1.000  O
  O56      1.0000 0.03820  0.68460  0.93570  Biso   1.000  O
  C169     1.0000 0.89360  0.54550  0.94580  Biso   1.000  C
  H85      1.0000 0.89080  0.54000  0.90980  Biso   1.000  H
  C170     1.0000 0.91860  0.57180  0.97150  Biso   1.000  C
  C171     1.0000 0.92060  0.57530  0.02610  Biso   1.000  C
  H86      1.0000 0.93780  0.59410  0.03960  Biso   1.000  H
  C172     1.0000 0.89940  0.55370  0.06260  Biso   1.000  C
  H87      1.0000 0.90150  0.55870  0.09890  Biso   1.000  H
  C173     1.0000 0.87550  0.52510  0.04470  Biso   1.000  C
  C174     1.0000 0.87350  0.52960  0.99040  Biso   1.000  C
  C175     1.0000 0.85020  0.50170  0.96830  Biso   1.000  C
  H88      1.0000 0.84740  0.49720  0.93200  Biso   1.000  H
  C176     1.0000 0.83100  0.48050  0.00870  Biso   1.000  C
  H89      1.0000 0.81370  0.46200  0.99450  Biso   1.000  H
  C177     1.0000 0.83060  0.47970  0.06460  Biso   1.000  C
  C178     1.0000 0.85750  0.50570  0.08730  Biso   1.000  C
  H90      1.0000 0.86180  0.50870  0.12490  Biso   1.000  H
  C179     1.0000 0.95060  0.59850  0.93930  Biso   1.000  C
  C180     1.0000 0.80320  0.44920  0.09030  Biso   1.000  C
  O57      1.0000 0.94760  0.59880  0.89110  Biso   1.000  O
  O58      1.0000 0.96970  0.62080  0.96660  Biso   1.000  O
  O59      1.0000 0.80680  0.44700  0.14080  Biso   1.000  O
  O60      1.0000 0.77980  0.43100  0.06190  Biso   1.000  O
  C181     1.0000 0.22810  0.92770  0.57020  Biso   1.000  C
  H91      1.0000 0.24150  0.94370  0.59610  Biso   1.000  H
  C182     1.0000 0.23560  0.93350  0.51640  Biso   1.000  C
  C183     1.0000 0.21400  0.91210  0.47880  Biso   1.000  C
  H92      1.0000 0.21560  0.91850  0.44290  Biso   1.000  H
  C184     1.0000 0.19000  0.88120  0.49490  Biso   1.000  C
  H93      1.0000 0.18240  0.86140  0.47020  Biso   1.000  H
  C185     1.0000 0.18140  0.87670  0.54700  Biso   1.000  C
  C186     1.0000 0.20060  0.89930  0.58660  Biso   1.000  C
  C187     1.0000 0.19310  0.89060  0.63930  Biso   1.000  C
  H94      1.0000 0.20610  0.90450  0.66760  Biso   1.000  H
  C188     1.0000 0.16750  0.86060  0.65350  Biso   1.000  C
  H95      1.0000 0.15770  0.85430  0.68840  Biso   1.000  H
  C189     1.0000 0.14860  0.83890  0.61390  Biso   1.000  C
  C190     1.0000 0.15580  0.84630  0.56100  Biso   1.000  C
  H96      1.0000 0.14140  0.83030  0.53610  Biso   1.000  H
  C191     1.0000 0.26270  0.96500  0.49650  Biso   1.000  C
  C192     1.0000 0.11810  0.80550  0.62340  Biso   1.000  C
  O61      1.0000 0.27040  0.99310  0.52390  Biso   1.000  O
  O62      1.0000 0.27250  0.96190  0.44890  Biso   1.000  O
  O63      1.0000 0.09690  0.78590  0.59510  Biso   1.000  O
  O64      1.0000 0.12010  0.79760  0.67370  Biso   1.000  O
  Cd13     1.0000 0.50214  0.85344  0.88496  Biso   1.000  Cd
  Cd14     1.0000 0.43019  0.75061  0.66463  Biso   1.000  Cd
  Cd15     1.0000 0.46801  0.80390  0.77117  Biso   1.000  Cd
  C193     1.0000 0.35460  0.83720  0.78490  Biso   1.000  C
  H97      1.0000 0.37310  0.82280  0.80460  Biso   1.000  H
  C194     1.0000 0.35320  0.83190  0.73550  Biso   1.000  C
  C195     1.0000 0.32470  0.85690  0.69910  Biso   1.000  C
  H98      1.0000 0.32260  0.85310  0.66130  Biso   1.000  H
  C196     1.0000 0.30170  0.88590  0.73080  Biso   1.000  C
  H99      1.0000 0.28600  0.90360  0.71210  Biso   1.000  H
  C197     1.0000 0.30170  0.88820  0.77930  Biso   1.000  C
  C198     1.0000 0.32830  0.86530  0.81380  Biso   1.000  C
  C199     1.0000 0.32880  0.87110  0.86900  Biso   1.000  C
  H100     1.0000 0.35010  0.85930  0.88960  Biso   1.000  H
  C200     1.0000 0.30250  0.89550  0.89180  Biso   1.000  C
  H101     1.0000 0.30280  0.89850  0.92860  Biso   1.000  H
  C201     1.0000 0.27470  0.91650  0.86180  Biso   1.000  C
  C202     1.0000 0.27340  0.91390  0.80780  Biso   1.000  C
  H102     1.0000 0.25460  0.92840  0.78870  Biso   1.000  H
  C203     1.0000 0.38090  0.80640  0.69990  Biso   1.000  C
  C204     1.0000 0.24110  0.94380  0.88500  Biso   1.000  C
  O65      1.0000 0.37370  0.80130  0.65480  Biso   1.000  O
  O66      1.0000 0.40600  0.78850  0.73290  Biso   1.000  O
  O67      1.0000 0.24590  0.94330  0.93760  Biso   1.000  O
  O68      1.0000 0.22220  0.96610  0.86100  Biso   1.000  O
  C205     1.0000 0.34180  0.67490  0.98450  Biso   1.000  C
  H103     1.0000 0.32980  0.65850  0.95990  Biso   1.000  H
  C206     1.0000 0.33470  0.67080  0.03440  Biso   1.000  C
  C207     1.0000 0.34850  0.70000  0.07240  Biso   1.000  C
  H104     1.0000 0.34200  0.69780  0.10950  Biso   1.000  H
  C208     1.0000 0.37320  0.72790  0.05220  Biso   1.000  C
  H105     1.0000 0.38470  0.74540  0.07580  Biso   1.000  H
  C209     1.0000 0.38200  0.73180  0.99970  Biso   1.000  C
  C210     1.0000 0.36850  0.70510  0.96690  Biso   1.000  C
  C211     1.0000 0.37510  0.70610  0.90880  Biso   1.000  C
  H106     1.0000 0.36250  0.68850  0.88640  Biso   1.000  H
  C212     1.0000 0.40240  0.73600  0.88750  Biso   1.000  C
  H107     1.0000 0.41130  0.73640  0.85110  Biso   1.000  H
  C213     1.0000 0.41620  0.76470  0.92670  Biso   1.000  C
  C214     1.0000 0.40750  0.76180  0.97880  Biso   1.000  C
  H108     1.0000 0.41830  0.77980  0.00210  Biso   1.000  H
  C215     1.0000 0.30590  0.63910  0.05370  Biso   1.000  C
  C216     1.0000 0.44220  0.79710  0.90400  Biso   1.000  C
  O69      1.0000 0.29620  0.64380  0.10000  Biso   1.000  O
  O70      1.0000 0.29530  0.61600  0.02140  Biso   1.000  O
  O71      1.0000 0.44270  0.79880  0.85420  Biso   1.000  O
  O72      1.0000 0.46180  0.81540  0.93570  Biso   1.000  O
  C217     1.0000 0.60640  0.95450  0.94580  Biso   1.000  C
  H109     1.0000 0.60920  0.96000  0.90980  Biso   1.000  H
  C218     1.0000 0.58140  0.92820  0.97150  Biso   1.000  C
  C219     1.0000 0.57940  0.92470  0.02610  Biso   1.000  C
  H110     1.0000 0.56220  0.90590  0.03960  Biso   1.000  H
  C220     1.0000 0.60060  0.94630  0.06260  Biso   1.000  C
  H111     1.0000 0.59850  0.94130  0.09890  Biso   1.000  H
  C221     1.0000 0.62450  0.97490  0.04470  Biso   1.000  C
  C222     1.0000 0.62650  0.97040  0.99040  Biso   1.000  C
  C223     1.0000 0.64980  0.99830  0.96830  Biso   1.000  C
  H112     1.0000 0.65260  0.00280  0.93200  Biso   1.000  H
  C224     1.0000 0.66900  0.01950  0.00870  Biso   1.000  C
  H113     1.0000 0.68630  0.03800  0.99450  Biso   1.000  H
  C225     1.0000 0.66940  0.02030  0.06460  Biso   1.000  C
  C226     1.0000 0.64250  0.99430  0.08730  Biso   1.000  C
  H114     1.0000 0.63820  0.99130  0.12490  Biso   1.000  H
  C227     1.0000 0.54940  0.90150  0.93930  Biso   1.000  C
  C228     1.0000 0.69680  0.05080  0.09030  Biso   1.000  C
  O73      1.0000 0.55240  0.90120  0.89110  Biso   1.000  O
  O74      1.0000 0.53030  0.87920  0.96660  Biso   1.000  O
  O75      1.0000 0.69320  0.05300  0.14080  Biso   1.000  O
  O76      1.0000 0.72020  0.06900  0.06190  Biso   1.000  O
  C229     1.0000 0.27190  0.57230  0.57020  Biso   1.000  C
  H115     1.0000 0.25850  0.55630  0.59610  Biso   1.000  H
  C230     1.0000 0.26440  0.56650  0.51640  Biso   1.000  C
  C231     1.0000 0.28600  0.58790  0.47880  Biso   1.000  C
  H116     1.0000 0.28440  0.58150  0.44290  Biso   1.000  H
  C232     1.0000 0.31000  0.61880  0.49490  Biso   1.000  C
  H117     1.0000 0.31760  0.63860  0.47020  Biso   1.000  H
  C233     1.0000 0.31860  0.62330  0.54700  Biso   1.000  C
  C234     1.0000 0.29940  0.60070  0.58660  Biso   1.000  C
  C235     1.0000 0.30690  0.60940  0.63930  Biso   1.000  C
  H118     1.0000 0.29390  0.59550  0.66760  Biso   1.000  H
  C236     1.0000 0.33250  0.63940  0.65350  Biso   1.000  C
  H119     1.0000 0.34230  0.64570  0.68840  Biso   1.000  H
  C237     1.0000 0.35140  0.66110  0.61390  Biso   1.000  C
  C238     1.0000 0.34420  0.65370  0.56100  Biso   1.000  C
  H120     1.0000 0.35860  0.66970  0.53610  Biso   1.000  H
  C239     1.0000 0.23730  0.53500  0.49650  Biso   1.000  C
  C240     1.0000 0.38190  0.69450  0.62340  Biso   1.000  C
  O77      1.0000 0.22960  0.50690  0.52390  Biso   1.000  O
  O78      1.0000 0.22750  0.53810  0.44890  Biso   1.000  O
  O79      1.0000 0.40310  0.71410  0.59510  Biso   1.000  O
  O80      1.0000 0.37990  0.70240  0.67370  Biso   1.000  O
  Cd16     1.0000 0.50214  0.35344  0.38496  Biso   1.000  Cd
  Cd17     1.0000 0.43019  0.25061  0.16463  Biso   1.000  Cd
  Cd18     1.0000 0.46801  0.30390  0.27117  Biso   1.000  Cd
  C241     1.0000 0.35460  0.33720  0.28490  Biso   1.000  C
  H121     1.0000 0.37310  0.32280  0.30460  Biso   1.000  H
  C242     1.0000 0.35320  0.33190  0.23550  Biso   1.000  C
  C243     1.0000 0.32470  0.35690  0.19910  Biso   1.000  C
  H122     1.0000 0.32260  0.35310  0.16130  Biso   1.000  H
  C244     1.0000 0.30170  0.38590  0.23080  Biso   1.000  C
  H123     1.0000 0.28600  0.40360  0.21210  Biso   1.000  H
  C245     1.0000 0.30170  0.38820  0.27930  Biso   1.000  C
  C246     1.0000 0.32830  0.36530  0.31380  Biso   1.000  C
  C247     1.0000 0.32880  0.37110  0.36900  Biso   1.000  C
  H124     1.0000 0.35010  0.35930  0.38960  Biso   1.000  H
  C248     1.0000 0.30250  0.39550  0.39180  Biso   1.000  C
  H125     1.0000 0.30280  0.39850  0.42860  Biso   1.000  H
  C249     1.0000 0.27470  0.41650  0.36180  Biso   1.000  C
  C250     1.0000 0.27340  0.41390  0.30780  Biso   1.000  C
  H126     1.0000 0.25460  0.42840  0.28870  Biso   1.000  H
  C251     1.0000 0.38090  0.30640  0.19990  Biso   1.000  C
  C252     1.0000 0.24110  0.44380  0.38500  Biso   1.000  C
  O81      1.0000 0.37370  0.30130  0.15480  Biso   1.000  O
  O82      1.0000 0.40600  0.28850  0.23290  Biso   1.000  O
  O83      1.0000 0.24590  0.44330  0.43760  Biso   1.000  O
  O84      1.0000 0.22220  0.46610  0.36100  Biso   1.000  O
  C253     1.0000 0.34180  0.17490  0.48450  Biso   1.000  C
  H127     1.0000 0.32980  0.15850  0.45990  Biso   1.000  H
  C254     1.0000 0.33470  0.17080  0.53440  Biso   1.000  C
  C255     1.0000 0.34850  0.20000  0.57240  Biso   1.000  C
  H128     1.0000 0.34200  0.19780  0.60950  Biso   1.000  H
  C256     1.0000 0.37320  0.22790  0.55220  Biso   1.000  C
  H129     1.0000 0.38470  0.24540  0.57580  Biso   1.000  H
  C257     1.0000 0.38200  0.23180  0.49970  Biso   1.000  C
  C258     1.0000 0.36850  0.20510  0.46690  Biso   1.000  C
  C259     1.0000 0.37510  0.20610  0.40880  Biso   1.000  C
  H130     1.0000 0.36250  0.18850  0.38640  Biso   1.000  H
  C260     1.0000 0.40240  0.23600  0.38750  Biso   1.000  C
  H131     1.0000 0.41130  0.23640  0.35110  Biso   1.000  H
  C261     1.0000 0.41620  0.26470  0.42670  Biso   1.000  C
  C262     1.0000 0.40750  0.26180  0.47880  Biso   1.000  C
  H132     1.0000 0.41830  0.27980  0.50210  Biso   1.000  H
  C263     1.0000 0.30590  0.13910  0.55370  Biso   1.000  C
  C264     1.0000 0.44220  0.29710  0.40400  Biso   1.000  C
  O85      1.0000 0.29620  0.14380  0.60000  Biso   1.000  O
  O86      1.0000 0.29530  0.11600  0.52140  Biso   1.000  O
  O87      1.0000 0.44270  0.29880  0.35420  Biso   1.000  O
  O88      1.0000 0.46180  0.31540  0.43570  Biso   1.000  O
  C265     1.0000 0.60640  0.45450  0.44580  Biso   1.000  C
  H133     1.0000 0.60920  0.46000  0.40980  Biso   1.000  H
  C266     1.0000 0.58140  0.42820  0.47150  Biso   1.000  C
  C267     1.0000 0.57940  0.42470  0.52610  Biso   1.000  C
  H134     1.0000 0.56220  0.40590  0.53960  Biso   1.000  H
  C268     1.0000 0.60060  0.44630  0.56260  Biso   1.000  C
  H135     1.0000 0.59850  0.44130  0.59890  Biso   1.000  H
  C269     1.0000 0.62450  0.47490  0.54470  Biso   1.000  C
  C270     1.0000 0.62650  0.47040  0.49040  Biso   1.000  C
  C271     1.0000 0.64980  0.49830  0.46830  Biso   1.000  C
  H136     1.0000 0.65260  0.50280  0.43200  Biso   1.000  H
  C272     1.0000 0.66900  0.51950  0.50870  Biso   1.000  C
  H137     1.0000 0.68630  0.53800  0.49450  Biso   1.000  H
  C273     1.0000 0.66940  0.52030  0.56460  Biso   1.000  C
  C274     1.0000 0.64250  0.49430  0.58730  Biso   1.000  C
  H138     1.0000 0.63820  0.49130  0.62490  Biso   1.000  H
  C275     1.0000 0.54940  0.40150  0.43930  Biso   1.000  C
  C276     1.0000 0.69680  0.55080  0.59030  Biso   1.000  C
  O89      1.0000 0.55240  0.40120  0.39110  Biso   1.000  O
  O90      1.0000 0.53030  0.37920  0.46660  Biso   1.000  O
  O91      1.0000 0.69320  0.55300  0.64080  Biso   1.000  O
  O92      1.0000 0.72020  0.56900  0.56190  Biso   1.000  O
  C277     1.0000 0.27190  0.07230  0.07020  Biso   1.000  C
  H139     1.0000 0.25850  0.05630  0.09610  Biso   1.000  H
  C278     1.0000 0.26440  0.06650  0.01640  Biso   1.000  C
  C279     1.0000 0.28600  0.08790  0.97880  Biso   1.000  C
  H140     1.0000 0.28440  0.08150  0.94290  Biso   1.000  H
  C280     1.0000 0.31000  0.11880  0.99490  Biso   1.000  C
  H141     1.0000 0.31760  0.13860  0.97020  Biso   1.000  H
  C281     1.0000 0.31860  0.12330  0.04700  Biso   1.000  C
  C282     1.0000 0.29940  0.10070  0.08660  Biso   1.000  C
  C283     1.0000 0.30690  0.10940  0.13930  Biso   1.000  C
  H142     1.0000 0.29390  0.09550  0.16760  Biso   1.000  H
  C284     1.0000 0.33250  0.13940  0.15350  Biso   1.000  C
  H143     1.0000 0.34230  0.14570  0.18840  Biso   1.000  H
  C285     1.0000 0.35140  0.16110  0.11390  Biso   1.000  C
  C286     1.0000 0.34420  0.15370  0.06100  Biso   1.000  C
  H144     1.0000 0.35860  0.16970  0.03610  Biso   1.000  H
  C287     1.0000 0.23730  0.03500  0.99650  Biso   1.000  C
  C288     1.0000 0.38190  0.19450  0.12340  Biso   1.000  C
  O93      1.0000 0.22960  0.00690  0.02390  Biso   1.000  O
  O94      1.0000 0.22750  0.03810  0.94890  Biso   1.000  O
  O95      1.0000 0.40310  0.21410  0.09510  Biso   1.000  O
  O96      1.0000 0.37990  0.20240  0.17370  Biso   1.000  O
  Cd19     1.0000 0.00214  0.85344  0.38496  Biso   1.000  Cd
  Cd20     1.0000 0.93019  0.75061  0.16463  Biso   1.000  Cd
  Cd21     1.0000 0.96801  0.80390  0.27117  Biso   1.000  Cd
  C289     1.0000 0.85460  0.83720  0.28490  Biso   1.000  C
  H145     1.0000 0.87310  0.82280  0.30460  Biso   1.000  H
  C290     1.0000 0.85320  0.83190  0.23550  Biso   1.000  C
  C291     1.0000 0.82470  0.85690  0.19910  Biso   1.000  C
  H146     1.0000 0.82260  0.85310  0.16130  Biso   1.000  H
  C292     1.0000 0.80170  0.88590  0.23080  Biso   1.000  C
  H147     1.0000 0.78600  0.90360  0.21210  Biso   1.000  H
  C293     1.0000 0.80170  0.88820  0.27930  Biso   1.000  C
  C294     1.0000 0.82830  0.86530  0.31380  Biso   1.000  C
  C295     1.0000 0.82880  0.87110  0.36900  Biso   1.000  C
  H148     1.0000 0.85010  0.85930  0.38960  Biso   1.000  H
  C296     1.0000 0.80250  0.89550  0.39180  Biso   1.000  C
  H149     1.0000 0.80280  0.89850  0.42860  Biso   1.000  H
  C297     1.0000 0.77470  0.91650  0.36180  Biso   1.000  C
  C298     1.0000 0.77340  0.91390  0.30780  Biso   1.000  C
  H150     1.0000 0.75460  0.92840  0.28870  Biso   1.000  H
  C299     1.0000 0.88090  0.80640  0.19990  Biso   1.000  C
  C300     1.0000 0.74110  0.94380  0.38500  Biso   1.000  C
  O97      1.0000 0.87370  0.80130  0.15480  Biso   1.000  O
  O98      1.0000 0.90600  0.78850  0.23290  Biso   1.000  O
  O99      1.0000 0.74590  0.94330  0.43760  Biso   1.000  O
  O100     1.0000 0.72220  0.96610  0.36100  Biso   1.000  O
  C301     1.0000 0.84180  0.67490  0.48450  Biso   1.000  C
  H151     1.0000 0.82980  0.65850  0.45990  Biso   1.000  H
  C302     1.0000 0.83470  0.67080  0.53440  Biso   1.000  C
  C303     1.0000 0.84850  0.70000  0.57240  Biso   1.000  C
  H152     1.0000 0.84200  0.69780  0.60950  Biso   1.000  H
  C304     1.0000 0.87320  0.72790  0.55220  Biso   1.000  C
  H153     1.0000 0.88470  0.74540  0.57580  Biso   1.000  H
  C305     1.0000 0.88200  0.73180  0.49970  Biso   1.000  C
  C306     1.0000 0.86850  0.70510  0.46690  Biso   1.000  C
  C307     1.0000 0.87510  0.70610  0.40880  Biso   1.000  C
  H154     1.0000 0.86250  0.68850  0.38640  Biso   1.000  H
  C308     1.0000 0.90240  0.73600  0.38750  Biso   1.000  C
  H155     1.0000 0.91130  0.73640  0.35110  Biso   1.000  H
  C309     1.0000 0.91620  0.76470  0.42670  Biso   1.000  C
  C310     1.0000 0.90750  0.76180  0.47880  Biso   1.000  C
  H156     1.0000 0.91830  0.77980  0.50210  Biso   1.000  H
  C311     1.0000 0.80590  0.63910  0.55370  Biso   1.000  C
  C312     1.0000 0.94220  0.79710  0.40400  Biso   1.000  C
  O101     1.0000 0.79620  0.64380  0.60000  Biso   1.000  O
  O102     1.0000 0.79530  0.61600  0.52140  Biso   1.000  O
  O103     1.0000 0.94270  0.79880  0.35420  Biso   1.000  O
  O104     1.0000 0.96180  0.81540  0.43570  Biso   1.000  O
  C313     1.0000 0.10640  0.95450  0.44580  Biso   1.000  C
  H157     1.0000 0.10920  0.96000  0.40980  Biso   1.000  H
  C314     1.0000 0.08140  0.92820  0.47150  Biso   1.000  C
  C315     1.0000 0.07940  0.92470  0.52610  Biso   1.000  C
  H158     1.0000 0.06220  0.90590  0.53960  Biso   1.000  H
  C316     1.0000 0.10060  0.94630  0.56260  Biso   1.000  C
  H159     1.0000 0.09850  0.94130  0.59890  Biso   1.000  H
  C317     1.0000 0.12450  0.97490  0.54470  Biso   1.000  C
  C318     1.0000 0.12650  0.97040  0.49040  Biso   1.000  C
  C319     1.0000 0.14980  0.99830  0.46830  Biso   1.000  C
  H160     1.0000 0.15260  0.00280  0.43200  Biso   1.000  H
  C320     1.0000 0.16900  0.01950  0.50870  Biso   1.000  C
  H161     1.0000 0.18630  0.03800  0.49450  Biso   1.000  H
  C321     1.0000 0.16940  0.02030  0.56460  Biso   1.000  C
  C322     1.0000 0.14250  0.99430  0.58730  Biso   1.000  C
  H162     1.0000 0.13820  0.99130  0.62490  Biso   1.000  H
  C323     1.0000 0.04940  0.90150  0.43930  Biso   1.000  C
  C324     1.0000 0.19680  0.05080  0.59030  Biso   1.000  C
  O105     1.0000 0.05240  0.90120  0.39110  Biso   1.000  O
  O106     1.0000 0.03030  0.87920  0.46660  Biso   1.000  O
  O107     1.0000 0.19320  0.05300  0.64080  Biso   1.000  O
  O108     1.0000 0.22020  0.06900  0.56190  Biso   1.000  O
  C325     1.0000 0.77190  0.57230  0.07020  Biso   1.000  C
  H163     1.0000 0.75850  0.55630  0.09610  Biso   1.000  H
  C326     1.0000 0.76440  0.56650  0.01640  Biso   1.000  C
  C327     1.0000 0.78600  0.58790  0.97880  Biso   1.000  C
  H164     1.0000 0.78440  0.58150  0.94290  Biso   1.000  H
  C328     1.0000 0.81000  0.61880  0.99490  Biso   1.000  C
  H165     1.0000 0.81760  0.63860  0.97020  Biso   1.000  H
  C329     1.0000 0.81860  0.62330  0.04700  Biso   1.000  C
  C330     1.0000 0.79940  0.60070  0.08660  Biso   1.000  C
  C331     1.0000 0.80690  0.60940  0.13930  Biso   1.000  C
  H166     1.0000 0.79390  0.59550  0.16760  Biso   1.000  H
  C332     1.0000 0.83250  0.63940  0.15350  Biso   1.000  C
  H167     1.0000 0.84230  0.64570  0.18840  Biso   1.000  H
  C333     1.0000 0.85140  0.66110  0.11390  Biso   1.000  C
  C334     1.0000 0.84420  0.65370  0.06100  Biso   1.000  C
  H168     1.0000 0.85860  0.66970  0.03610  Biso   1.000  H
  C335     1.0000 0.73730  0.53500  0.99650  Biso   1.000  C
  C336     1.0000 0.88190  0.69450  0.12340  Biso   1.000  C
  O109     1.0000 0.72960  0.50690  0.02390  Biso   1.000  O
  O110     1.0000 0.72750  0.53810  0.94890  Biso   1.000  O
  O111     1.0000 0.90310  0.71410  0.09510  Biso   1.000  O
  O112     1.0000 0.87990  0.70240  0.17370  Biso   1.000  O
  Cd22     1.0000 0.00214  0.35344  0.88496  Biso   1.000  Cd
  Cd23     1.0000 0.93019  0.25061  0.66463  Biso   1.000  Cd
  Cd24     1.0000 0.96801  0.30390  0.77117  Biso   1.000  Cd
  C337     1.0000 0.85460  0.33720  0.78490  Biso   1.000  C
  H169     1.0000 0.87310  0.32280  0.80460  Biso   1.000  H
  C338     1.0000 0.85320  0.33190  0.73550  Biso   1.000  C
  C339     1.0000 0.82470  0.35690  0.69910  Biso   1.000  C
  H170     1.0000 0.82260  0.35310  0.66130  Biso   1.000  H
  C340     1.0000 0.80170  0.38590  0.73080  Biso   1.000  C
  H171     1.0000 0.78600  0.40360  0.71210  Biso   1.000  H
  C341     1.0000 0.80170  0.38820  0.77930  Biso   1.000  C
  C342     1.0000 0.82830  0.36530  0.81380  Biso   1.000  C
  C343     1.0000 0.82880  0.37110  0.86900  Biso   1.000  C
  H172     1.0000 0.85010  0.35930  0.88960  Biso   1.000  H
  C344     1.0000 0.80250  0.39550  0.89180  Biso   1.000  C
  H173     1.0000 0.80280  0.39850  0.92860  Biso   1.000  H
  C345     1.0000 0.77470  0.41650  0.86180  Biso   1.000  C
  C346     1.0000 0.77340  0.41390  0.80780  Biso   1.000  C
  H174     1.0000 0.75460  0.42840  0.78870  Biso   1.000  H
  C347     1.0000 0.88090  0.30640  0.69990  Biso   1.000  C
  C348     1.0000 0.74110  0.44380  0.88500  Biso   1.000  C
  O113     1.0000 0.87370  0.30130  0.65480  Biso   1.000  O
  O114     1.0000 0.90600  0.28850  0.73290  Biso   1.000  O
  O115     1.0000 0.74590  0.44330  0.93760  Biso   1.000  O
  O116     1.0000 0.72220  0.46610  0.86100  Biso   1.000  O
  C349     1.0000 0.84180  0.17490  0.98450  Biso   1.000  C
  H175     1.0000 0.82980  0.15850  0.95990  Biso   1.000  H
  C350     1.0000 0.83470  0.17080  0.03440  Biso   1.000  C
  C351     1.0000 0.84850  0.20000  0.07240  Biso   1.000  C
  H176     1.0000 0.84200  0.19780  0.10950  Biso   1.000  H
  C352     1.0000 0.87320  0.22790  0.05220  Biso   1.000  C
  H177     1.0000 0.88470  0.24540  0.07580  Biso   1.000  H
  C353     1.0000 0.88200  0.23180  0.99970  Biso   1.000  C
  C354     1.0000 0.86850  0.20510  0.96690  Biso   1.000  C
  C355     1.0000 0.87510  0.20610  0.90880  Biso   1.000  C
  H178     1.0000 0.86250  0.18850  0.88640  Biso   1.000  H
  C356     1.0000 0.90240  0.23600  0.88750  Biso   1.000  C
  H179     1.0000 0.91130  0.23640  0.85110  Biso   1.000  H
  C357     1.0000 0.91620  0.26470  0.92670  Biso   1.000  C
  C358     1.0000 0.90750  0.26180  0.97880  Biso   1.000  C
  H180     1.0000 0.91830  0.27980  0.00210  Biso   1.000  H
  C359     1.0000 0.80590  0.13910  0.05370  Biso   1.000  C
  C360     1.0000 0.94220  0.29710  0.90400  Biso   1.000  C
  O117     1.0000 0.79620  0.14380  0.10000  Biso   1.000  O
  O118     1.0000 0.79530  0.11600  0.02140  Biso   1.000  O
  O119     1.0000 0.94270  0.29880  0.85420  Biso   1.000  O
  O120     1.0000 0.96180  0.31540  0.93570  Biso   1.000  O
  C361     1.0000 0.10640  0.45450  0.94580  Biso   1.000  C
  H181     1.0000 0.10920  0.46000  0.90980  Biso   1.000  H
  C362     1.0000 0.08140  0.42820  0.97150  Biso   1.000  C
  C363     1.0000 0.07940  0.42470  0.02610  Biso   1.000  C
  H182     1.0000 0.06220  0.40590  0.03960  Biso   1.000  H
  C364     1.0000 0.10060  0.44630  0.06260  Biso   1.000  C
  H183     1.0000 0.09850  0.44130  0.09890  Biso   1.000  H
  C365     1.0000 0.12450  0.47490  0.04470  Biso   1.000  C
  C366     1.0000 0.12650  0.47040  0.99040  Biso   1.000  C
  C367     1.0000 0.14980  0.49830  0.96830  Biso   1.000  C
  H184     1.0000 0.15260  0.50280  0.93200  Biso   1.000  H
  C368     1.0000 0.16900  0.51950  0.00870  Biso   1.000  C
  H185     1.0000 0.18630  0.53800  0.99450  Biso   1.000  H
  C369     1.0000 0.16940  0.52030  0.06460  Biso   1.000  C
  C370     1.0000 0.14250  0.49430  0.08730  Biso   1.000  C
  H186     1.0000 0.13820  0.49130  0.12490  Biso   1.000  H
  C371     1.0000 0.04940  0.40150  0.93930  Biso   1.000  C
  C372     1.0000 0.19680  0.55080  0.09030  Biso   1.000  C
  O121     1.0000 0.05240  0.40120  0.89110  Biso   1.000  O
  O122     1.0000 0.03030  0.37920  0.96660  Biso   1.000  O
  O123     1.0000 0.19320  0.55300  0.14080  Biso   1.000  O
  O124     1.0000 0.22020  0.56900  0.06190  Biso   1.000  O
  C373     1.0000 0.77190  0.07230  0.57020  Biso   1.000  C
  H187     1.0000 0.75850  0.05630  0.59610  Biso   1.000  H
  C374     1.0000 0.76440  0.06650  0.51640  Biso   1.000  C
  C375     1.0000 0.78600  0.08790  0.47880  Biso   1.000  C
  H188     1.0000 0.78440  0.08150  0.44290  Biso   1.000  H
  C376     1.0000 0.81000  0.11880  0.49490  Biso   1.000  C
  H189     1.0000 0.81760  0.13860  0.47020  Biso   1.000  H
  C377     1.0000 0.81860  0.12330  0.54700  Biso   1.000  C
  C378     1.0000 0.79940  0.10070  0.58660  Biso   1.000  C
  C379     1.0000 0.80690  0.10940  0.63930  Biso   1.000  C
  H190     1.0000 0.79390  0.09550  0.66760  Biso   1.000  H
  C380     1.0000 0.83250  0.13940  0.65350  Biso   1.000  C
  H191     1.0000 0.84230  0.14570  0.68840  Biso   1.000  H
  C381     1.0000 0.85140  0.16110  0.61390  Biso   1.000  C
  C382     1.0000 0.84420  0.15370  0.56100  Biso   1.000  C
  H192     1.0000 0.85860  0.16970  0.53610  Biso   1.000  H
  C383     1.0000 0.73730  0.03500  0.49650  Biso   1.000  C
  C384     1.0000 0.88190  0.19450  0.62340  Biso   1.000  C
  O125     1.0000 0.72960  0.00690  0.52390  Biso   1.000  O
  O126     1.0000 0.72750  0.03810  0.44890  Biso   1.000  O
  O127     1.0000 0.90310  0.21410  0.59510  Biso   1.000  O
  O128     1.0000 0.87990  0.20240  0.67370  Biso   1.000  O
  Cd25     1.0000 0.74786  0.10344  0.13496  Biso   1.000  Cd
  Cd26     1.0000 0.81981  0.00061  0.91463  Biso   1.000  Cd
  Cd27     1.0000 0.78199  0.05390  0.02117  Biso   1.000  Cd
  C385     1.0000 0.89540  0.08720  0.03490  Biso   1.000  C
  H193     1.0000 0.87690  0.07280  0.05460  Biso   1.000  H
  C386     1.0000 0.89680  0.08190  0.98550  Biso   1.000  C
  C387     1.0000 0.92530  0.10690  0.94910  Biso   1.000  C
  H194     1.0000 0.92740  0.10310  0.91130  Biso   1.000  H
  C388     1.0000 0.94830  0.13590  0.98080  Biso   1.000  C
  H195     1.0000 0.96400  0.15360  0.96210  Biso   1.000  H
  C389     1.0000 0.94830  0.13820  0.02930  Biso   1.000  C
  C390     1.0000 0.92170  0.11530  0.06380  Biso   1.000  C
  C391     1.0000 0.92120  0.12110  0.11900  Biso   1.000  C
  H196     1.0000 0.89990  0.10930  0.13960  Biso   1.000  H
  C392     1.0000 0.94750  0.14550  0.14180  Biso   1.000  C
  H197     1.0000 0.94720  0.14850  0.17860  Biso   1.000  H
  C393     1.0000 0.97530  0.16650  0.11180  Biso   1.000  C
  C394     1.0000 0.97660  0.16390  0.05780  Biso   1.000  C
  H198     1.0000 0.99540  0.17840  0.03870  Biso   1.000  H
  C395     1.0000 0.86910  0.05640  0.94990  Biso   1.000  C
  C396     1.0000 0.00890  0.19380  0.13500  Biso   1.000  C
  O129     1.0000 0.87630  0.05130  0.90480  Biso   1.000  O
  O130     1.0000 0.84400  0.03850  0.98290  Biso   1.000  O
  O131     1.0000 0.00410  0.19330  0.18760  Biso   1.000  O
  O132     1.0000 0.02780  0.21610  0.11100  Biso   1.000  O
  C397     1.0000 0.90820  0.92490  0.23450  Biso   1.000  C
  H199     1.0000 0.92020  0.90850  0.20990  Biso   1.000  H
  C398     1.0000 0.91530  0.92080  0.28440  Biso   1.000  C
  C399     1.0000 0.90150  0.95000  0.32240  Biso   1.000  C
  H200     1.0000 0.90800  0.94780  0.35950  Biso   1.000  H
  C400     1.0000 0.87680  0.97790  0.30220  Biso   1.000  C
  H201     1.0000 0.86530  0.99540  0.32580  Biso   1.000  H
  C401     1.0000 0.86800  0.98180  0.24970  Biso   1.000  C
  C402     1.0000 0.88150  0.95510  0.21690  Biso   1.000  C
  C403     1.0000 0.87490  0.95610  0.15880  Biso   1.000  C
  H202     1.0000 0.88750  0.93850  0.13640  Biso   1.000  H
  C404     1.0000 0.84760  0.98600  0.13750  Biso   1.000  C
  H203     1.0000 0.83870  0.98640  0.10110  Biso   1.000  H
  C405     1.0000 0.83380  0.01470  0.17670  Biso   1.000  C
  C406     1.0000 0.84250  0.01180  0.22880  Biso   1.000  C
  H204     1.0000 0.83170  0.02980  0.25210  Biso   1.000  H
  C407     1.0000 0.94410  0.88910  0.30370  Biso   1.000  C
  C408     1.0000 0.80780  0.04710  0.15400  Biso   1.000  C
  O133     1.0000 0.95380  0.89380  0.35000  Biso   1.000  O
  O134     1.0000 0.95470  0.86600  0.27140  Biso   1.000  O
  O135     1.0000 0.80730  0.04880  0.10420  Biso   1.000  O
  O136     1.0000 0.78820  0.06540  0.18570  Biso   1.000  O
  C409     1.0000 0.64360  0.20450  0.19580  Biso   1.000  C
  H205     1.0000 0.64080  0.21000  0.15980  Biso   1.000  H
  C410     1.0000 0.66860  0.17820  0.22150  Biso   1.000  C
  C411     1.0000 0.67060  0.17470  0.27610  Biso   1.000  C
  H206     1.0000 0.68780  0.15590  0.28960  Biso   1.000  H
  C412     1.0000 0.64940  0.19630  0.31260  Biso   1.000  C
  H207     1.0000 0.65150  0.19130  0.34890  Biso   1.000  H
  C413     1.0000 0.62550  0.22490  0.29470  Biso   1.000  C
  C414     1.0000 0.62350  0.22040  0.24040  Biso   1.000  C
  C415     1.0000 0.60020  0.24830  0.21830  Biso   1.000  C
  H208     1.0000 0.59740  0.25280  0.18200  Biso   1.000  H
  C416     1.0000 0.58100  0.26950  0.25870  Biso   1.000  C
  H209     1.0000 0.56370  0.28800  0.24450  Biso   1.000  H
  C417     1.0000 0.58060  0.27030  0.31460  Biso   1.000  C
  C418     1.0000 0.60750  0.24430  0.33730  Biso   1.000  C
  H210     1.0000 0.61180  0.24130  0.37490  Biso   1.000  H
  C419     1.0000 0.70060  0.15150  0.18930  Biso   1.000  C
  C420     1.0000 0.55320  0.30080  0.34030  Biso   1.000  C
  O137     1.0000 0.69760  0.15120  0.14110  Biso   1.000  O
  O138     1.0000 0.71970  0.12920  0.21660  Biso   1.000  O
  O139     1.0000 0.55680  0.30300  0.39080  Biso   1.000  O
  O140     1.0000 0.52980  0.31900  0.31190  Biso   1.000  O
  C421     1.0000 0.97810  0.82230  0.82020  Biso   1.000  C
  H211     1.0000 0.99150  0.80630  0.84610  Biso   1.000  H
  C422     1.0000 0.98560  0.81650  0.76640  Biso   1.000  C
  C423     1.0000 0.96400  0.83790  0.72880  Biso   1.000  C
  H212     1.0000 0.96560  0.83150  0.69290  Biso   1.000  H
  C424     1.0000 0.94000  0.86880  0.74490  Biso   1.000  C
  H213     1.0000 0.93240  0.88860  0.72020  Biso   1.000  H
  C425     1.0000 0.93140  0.87330  0.79700  Biso   1.000  C
  C426     1.0000 0.95060  0.85070  0.83660  Biso   1.000  C
  C427     1.0000 0.94310  0.85940  0.88930  Biso   1.000  C
  H214     1.0000 0.95610  0.84550  0.91760  Biso   1.000  H
  C428     1.0000 0.91750  0.88940  0.90350  Biso   1.000  C
  H215     1.0000 0.90770  0.89570  0.93840  Biso   1.000  H
  C429     1.0000 0.89860  0.91110  0.86390  Biso   1.000  C
  C430     1.0000 0.90580  0.90370  0.81100  Biso   1.000  C
  H216     1.0000 0.89140  0.91970  0.78610  Biso   1.000  H
  C431     1.0000 0.01270  0.78500  0.74650  Biso   1.000  C
  C432     1.0000 0.86810  0.94450  0.87340  Biso   1.000  C
  O141     1.0000 0.02040  0.75690  0.77390  Biso   1.000  O
  O142     1.0000 0.02250  0.78810  0.69890  Biso   1.000  O
  O143     1.0000 0.84690  0.96410  0.84510  Biso   1.000  O
  O144     1.0000 0.87010  0.95240  0.92370  Biso   1.000  O
  Cd28     1.0000 0.74786  0.60344  0.63496  Biso   1.000  Cd
  Cd29     1.0000 0.81981  0.50061  0.41463  Biso   1.000  Cd
  Cd30     1.0000 0.78199  0.55390  0.52117  Biso   1.000  Cd
  C433     1.0000 0.89540  0.58720  0.53490  Biso   1.000  C
  H217     1.0000 0.87690  0.57280  0.55460  Biso   1.000  H
  C434     1.0000 0.89680  0.58190  0.48550  Biso   1.000  C
  C435     1.0000 0.92530  0.60690  0.44910  Biso   1.000  C
  H218     1.0000 0.92740  0.60310  0.41130  Biso   1.000  H
  C436     1.0000 0.94830  0.63590  0.48080  Biso   1.000  C
  H219     1.0000 0.96400  0.65360  0.46210  Biso   1.000  H
  C437     1.0000 0.94830  0.63820  0.52930  Biso   1.000  C
  C438     1.0000 0.92170  0.61530  0.56380  Biso   1.000  C
  C439     1.0000 0.92120  0.62110  0.61900  Biso   1.000  C
  H220     1.0000 0.89990  0.60930  0.63960  Biso   1.000  H
  C440     1.0000 0.94750  0.64550  0.64180  Biso   1.000  C
  H221     1.0000 0.94720  0.64850  0.67860  Biso   1.000  H
  C441     1.0000 0.97530  0.66650  0.61180  Biso   1.000  C
  C442     1.0000 0.97660  0.66390  0.55780  Biso   1.000  C
  H222     1.0000 0.99540  0.67840  0.53870  Biso   1.000  H
  C443     1.0000 0.86910  0.55640  0.44990  Biso   1.000  C
  C444     1.0000 0.00890  0.69380  0.63500  Biso   1.000  C
  O145     1.0000 0.87630  0.55130  0.40480  Biso   1.000  O
  O146     1.0000 0.84400  0.53850  0.48290  Biso   1.000  O
  O147     1.0000 0.00410  0.69330  0.68760  Biso   1.000  O
  O148     1.0000 0.02780  0.71610  0.61100  Biso   1.000  O
  C445     1.0000 0.90820  0.42490  0.73450  Biso   1.000  C
  H223     1.0000 0.92020  0.40850  0.70990  Biso   1.000  H
  C446     1.0000 0.91530  0.42080  0.78440  Biso   1.000  C
  C447     1.0000 0.90150  0.45000  0.82240  Biso   1.000  C
  H224     1.0000 0.90800  0.44780  0.85950  Biso   1.000  H
  C448     1.0000 0.87680  0.47790  0.80220  Biso   1.000  C
  H225     1.0000 0.86530  0.49540  0.82580  Biso   1.000  H
  C449     1.0000 0.86800  0.48180  0.74970  Biso   1.000  C
  C450     1.0000 0.88150  0.45510  0.71690  Biso   1.000  C
  C451     1.0000 0.87490  0.45610  0.65880  Biso   1.000  C
  H226     1.0000 0.88750  0.43850  0.63640  Biso   1.000  H
  C452     1.0000 0.84760  0.48600  0.63750  Biso   1.000  C
  H227     1.0000 0.83870  0.48640  0.60110  Biso   1.000  H
  C453     1.0000 0.83380  0.51470  0.67670  Biso   1.000  C
  C454     1.0000 0.84250  0.51180  0.72880  Biso   1.000  C
  H228     1.0000 0.83170  0.52980  0.75210  Biso   1.000  H
  C455     1.0000 0.94410  0.38910  0.80370  Biso   1.000  C
  C456     1.0000 0.80780  0.54710  0.65400  Biso   1.000  C
  O149     1.0000 0.95380  0.39380  0.85000  Biso   1.000  O
  O150     1.0000 0.95470  0.36600  0.77140  Biso   1.000  O
  O151     1.0000 0.80730  0.54880  0.60420  Biso   1.000  O
  O152     1.0000 0.78820  0.56540  0.68570  Biso   1.000  O
  C457     1.0000 0.64360  0.70450  0.69580  Biso   1.000  C
  H229     1.0000 0.64080  0.71000  0.65980  Biso   1.000  H
  C458     1.0000 0.66860  0.67820  0.72150  Biso   1.000  C
  C459     1.0000 0.67060  0.67470  0.77610  Biso   1.000  C
  H230     1.0000 0.68780  0.65590  0.78960  Biso   1.000  H
  C460     1.0000 0.64940  0.69630  0.81260  Biso   1.000  C
  H231     1.0000 0.65150  0.69130  0.84890  Biso   1.000  H
  C461     1.0000 0.62550  0.72490  0.79470  Biso   1.000  C
  C462     1.0000 0.62350  0.72040  0.74040  Biso   1.000  C
  C463     1.0000 0.60020  0.74830  0.71830  Biso   1.000  C
  H232     1.0000 0.59740  0.75280  0.68200  Biso   1.000  H
  C464     1.0000 0.58100  0.76950  0.75870  Biso   1.000  C
  H233     1.0000 0.56370  0.78800  0.74450  Biso   1.000  H
  C465     1.0000 0.58060  0.77030  0.81460  Biso   1.000  C
  C466     1.0000 0.60750  0.74430  0.83730  Biso   1.000  C
  H234     1.0000 0.61180  0.74130  0.87490  Biso   1.000  H
  C467     1.0000 0.70060  0.65150  0.68930  Biso   1.000  C
  C468     1.0000 0.55320  0.80080  0.84030  Biso   1.000  C
  O153     1.0000 0.69760  0.65120  0.64110  Biso   1.000  O
  O154     1.0000 0.71970  0.62920  0.71660  Biso   1.000  O
  O155     1.0000 0.55680  0.80300  0.89080  Biso   1.000  O
  O156     1.0000 0.52980  0.81900  0.81190  Biso   1.000  O
  C469     1.0000 0.97810  0.32230  0.32020  Biso   1.000  C
  H235     1.0000 0.99150  0.30630  0.34610  Biso   1.000  H
  C470     1.0000 0.98560  0.31650  0.26640  Biso   1.000  C
  C471     1.0000 0.96400  0.33790  0.22880  Biso   1.000  C
  H236     1.0000 0.96560  0.33150  0.19290  Biso   1.000  H
  C472     1.0000 0.94000  0.36880  0.24490  Biso   1.000  C
  H237     1.0000 0.93240  0.38860  0.22020  Biso   1.000  H
  C473     1.0000 0.93140  0.37330  0.29700  Biso   1.000  C
  C474     1.0000 0.95060  0.35070  0.33660  Biso   1.000  C
  C475     1.0000 0.94310  0.35940  0.38930  Biso   1.000  C
  H238     1.0000 0.95610  0.34550  0.41760  Biso   1.000  H
  C476     1.0000 0.91750  0.38940  0.40350  Biso   1.000  C
  H239     1.0000 0.90770  0.39570  0.43840  Biso   1.000  H
  C477     1.0000 0.89860  0.41110  0.36390  Biso   1.000  C
  C478     1.0000 0.90580  0.40370  0.31100  Biso   1.000  C
  H240     1.0000 0.89140  0.41970  0.28610  Biso   1.000  H
  C479     1.0000 0.01270  0.28500  0.24650  Biso   1.000  C
  C480     1.0000 0.86810  0.44450  0.37340  Biso   1.000  C
  O157     1.0000 0.02040  0.25690  0.27390  Biso   1.000  O
  O158     1.0000 0.02250  0.28810  0.19890  Biso   1.000  O
  O159     1.0000 0.84690  0.46410  0.34510  Biso   1.000  O
  O160     1.0000 0.87010  0.45240  0.42370  Biso   1.000  O
  Cd31     1.0000 0.24786  0.10344  0.63496  Biso   1.000  Cd
  Cd32     1.0000 0.31981  0.00061  0.41463  Biso   1.000  Cd
  Cd33     1.0000 0.28199  0.05390  0.52117  Biso   1.000  Cd
  C481     1.0000 0.39540  0.08720  0.53490  Biso   1.000  C
  H241     1.0000 0.37690  0.07280  0.55460  Biso   1.000  H
  C482     1.0000 0.39680  0.08190  0.48550  Biso   1.000  C
  C483     1.0000 0.42530  0.10690  0.44910  Biso   1.000  C
  H242     1.0000 0.42740  0.10310  0.41130  Biso   1.000  H
  C484     1.0000 0.44830  0.13590  0.48080  Biso   1.000  C
  H243     1.0000 0.46400  0.15360  0.46210  Biso   1.000  H
  C485     1.0000 0.44830  0.13820  0.52930  Biso   1.000  C
  C486     1.0000 0.42170  0.11530  0.56380  Biso   1.000  C
  C487     1.0000 0.42120  0.12110  0.61900  Biso   1.000  C
  H244     1.0000 0.39990  0.10930  0.63960  Biso   1.000  H
  C488     1.0000 0.44750  0.14550  0.64180  Biso   1.000  C
  H245     1.0000 0.44720  0.14850  0.67860  Biso   1.000  H
  C489     1.0000 0.47530  0.16650  0.61180  Biso   1.000  C
  C490     1.0000 0.47660  0.16390  0.55780  Biso   1.000  C
  H246     1.0000 0.49540  0.17840  0.53870  Biso   1.000  H
  C491     1.0000 0.36910  0.05640  0.44990  Biso   1.000  C
  C492     1.0000 0.50890  0.19380  0.63500  Biso   1.000  C
  O161     1.0000 0.37630  0.05130  0.40480  Biso   1.000  O
  O162     1.0000 0.34400  0.03850  0.48290  Biso   1.000  O
  O163     1.0000 0.50410  0.19330  0.68760  Biso   1.000  O
  O164     1.0000 0.52780  0.21610  0.61100  Biso   1.000  O
  C493     1.0000 0.40820  0.92490  0.73450  Biso   1.000  C
  H247     1.0000 0.42020  0.90850  0.70990  Biso   1.000  H
  C494     1.0000 0.41530  0.92080  0.78440  Biso   1.000  C
  C495     1.0000 0.40150  0.95000  0.82240  Biso   1.000  C
  H248     1.0000 0.40800  0.94780  0.85950  Biso   1.000  H
  C496     1.0000 0.37680  0.97790  0.80220  Biso   1.000  C
  H249     1.0000 0.36530  0.99540  0.82580  Biso   1.000  H
  C497     1.0000 0.36800  0.98180  0.74970  Biso   1.000  C
  C498     1.0000 0.38150  0.95510  0.71690  Biso   1.000  C
  C499     1.0000 0.37490  0.95610  0.65880  Biso   1.000  C
  H250     1.0000 0.38750  0.93850  0.63640  Biso   1.000  H
  C500     1.0000 0.34760  0.98600  0.63750  Biso   1.000  C
  H251     1.0000 0.33870  0.98640  0.60110  Biso   1.000  H
  C501     1.0000 0.33380  0.01470  0.67670  Biso   1.000  C
  C502     1.0000 0.34250  0.01180  0.72880  Biso   1.000  C
  H252     1.0000 0.33170  0.02980  0.75210  Biso   1.000  H
  C503     1.0000 0.44410  0.88910  0.80370  Biso   1.000  C
  C504     1.0000 0.30780  0.04710  0.65400  Biso   1.000  C
  O165     1.0000 0.45380  0.89380  0.85000  Biso   1.000  O
  O166     1.0000 0.45470  0.86600  0.77140  Biso   1.000  O
  O167     1.0000 0.30730  0.04880  0.60420  Biso   1.000  O
  O168     1.0000 0.28820  0.06540  0.68570  Biso   1.000  O
  C505     1.0000 0.14360  0.20450  0.69580  Biso   1.000  C
  H253     1.0000 0.14080  0.21000  0.65980  Biso   1.000  H
  C506     1.0000 0.16860  0.17820  0.72150  Biso   1.000  C
  C507     1.0000 0.17060  0.17470  0.77610  Biso   1.000  C
  H254     1.0000 0.18780  0.15590  0.78960  Biso   1.000  H
  C508     1.0000 0.14940  0.19630  0.81260  Biso   1.000  C
  H255     1.0000 0.15150  0.19130  0.84890  Biso   1.000  H
  C509     1.0000 0.12550  0.22490  0.79470  Biso   1.000  C
  C510     1.0000 0.12350  0.22040  0.74040  Biso   1.000  C
  C511     1.0000 0.10020  0.24830  0.71830  Biso   1.000  C
  H256     1.0000 0.09740  0.25280  0.68200  Biso   1.000  H
  C512     1.0000 0.08100  0.26950  0.75870  Biso   1.000  C
  H257     1.0000 0.06370  0.28800  0.74450  Biso   1.000  H
  C513     1.0000 0.08060  0.27030  0.81460  Biso   1.000  C
  C514     1.0000 0.10750  0.24430  0.83730  Biso   1.000  C
  H258     1.0000 0.11180  0.24130  0.87490  Biso   1.000  H
  C515     1.0000 0.20060  0.15150  0.68930  Biso   1.000  C
  C516     1.0000 0.05320  0.30080  0.84030  Biso   1.000  C
  O169     1.0000 0.19760  0.15120  0.64110  Biso   1.000  O
  O170     1.0000 0.21970  0.12920  0.71660  Biso   1.000  O
  O171     1.0000 0.05680  0.30300  0.89080  Biso   1.000  O
  O172     1.0000 0.02980  0.31900  0.81190  Biso   1.000  O
  C517     1.0000 0.47810  0.82230  0.32020  Biso   1.000  C
  H259     1.0000 0.49150  0.80630  0.34610  Biso   1.000  H
  C518     1.0000 0.48560  0.81650  0.26640  Biso   1.000  C
  C519     1.0000 0.46400  0.83790  0.22880  Biso   1.000  C
  H260     1.0000 0.46560  0.83150  0.19290  Biso   1.000  H
  C520     1.0000 0.44000  0.86880  0.24490  Biso   1.000  C
  H261     1.0000 0.43240  0.88860  0.22020  Biso   1.000  H
  C521     1.0000 0.43140  0.87330  0.29700  Biso   1.000  C
  C522     1.0000 0.45060  0.85070  0.33660  Biso   1.000  C
  C523     1.0000 0.44310  0.85940  0.38930  Biso   1.000  C
  H262     1.0000 0.45610  0.84550  0.41760  Biso   1.000  H
  C524     1.0000 0.41750  0.88940  0.40350  Biso   1.000  C
  H263     1.0000 0.40770  0.89570  0.43840  Biso   1.000  H
  C525     1.0000 0.39860  0.91110  0.36390  Biso   1.000  C
  C526     1.0000 0.40580  0.90370  0.31100  Biso   1.000  C
  H264     1.0000 0.39140  0.91970  0.28610  Biso   1.000  H
  C527     1.0000 0.51270  0.78500  0.24650  Biso   1.000  C
  C528     1.0000 0.36810  0.94450  0.37340  Biso   1.000  C
  O173     1.0000 0.52040  0.75690  0.27390  Biso   1.000  O
  O174     1.0000 0.52250  0.78810  0.19890  Biso   1.000  O
  O175     1.0000 0.34690  0.96410  0.34510  Biso   1.000  O
  O176     1.0000 0.37010  0.95240  0.42370  Biso   1.000  O
  Cd34     1.0000 0.24786  0.60344  0.13496  Biso   1.000  Cd
  Cd35     1.0000 0.31981  0.50061  0.91463  Biso   1.000  Cd
  Cd36     1.0000 0.28199  0.55390  0.02117  Biso   1.000  Cd
  C529     1.0000 0.39540  0.58720  0.03490  Biso   1.000  C
  H265     1.0000 0.37690  0.57280  0.05460  Biso   1.000  H
  C530     1.0000 0.39680  0.58190  0.98550  Biso   1.000  C
  C531     1.0000 0.42530  0.60690  0.94910  Biso   1.000  C
  H266     1.0000 0.42740  0.60310  0.91130  Biso   1.000  H
  C532     1.0000 0.44830  0.63590  0.98080  Biso   1.000  C
  H267     1.0000 0.46400  0.65360  0.96210  Biso   1.000  H
  C533     1.0000 0.44830  0.63820  0.02930  Biso   1.000  C
  C534     1.0000 0.42170  0.61530  0.06380  Biso   1.000  C
  C535     1.0000 0.42120  0.62110  0.11900  Biso   1.000  C
  H268     1.0000 0.39990  0.60930  0.13960  Biso   1.000  H
  C536     1.0000 0.44750  0.64550  0.14180  Biso   1.000  C
  H269     1.0000 0.44720  0.64850  0.17860  Biso   1.000  H
  C537     1.0000 0.47530  0.66650  0.11180  Biso   1.000  C
  C538     1.0000 0.47660  0.66390  0.05780  Biso   1.000  C
  H270     1.0000 0.49540  0.67840  0.03870  Biso   1.000  H
  C539     1.0000 0.36910  0.55640  0.94990  Biso   1.000  C
  C540     1.0000 0.50890  0.69380  0.13500  Biso   1.000  C
  O177     1.0000 0.37630  0.55130  0.90480  Biso   1.000  O
  O178     1.0000 0.34400  0.53850  0.98290  Biso   1.000  O
  O179     1.0000 0.50410  0.69330  0.18760  Biso   1.000  O
  O180     1.0000 0.52780  0.71610  0.11100  Biso   1.000  O
  C541     1.0000 0.40820  0.42490  0.23450  Biso   1.000  C
  H271     1.0000 0.42020  0.40850  0.20990  Biso   1.000  H
  C542     1.0000 0.41530  0.42080  0.28440  Biso   1.000  C
  C543     1.0000 0.40150  0.45000  0.32240  Biso   1.000  C
  H272     1.0000 0.40800  0.44780  0.35950  Biso   1.000  H
  C544     1.0000 0.37680  0.47790  0.30220  Biso   1.000  C
  H273     1.0000 0.36530  0.49540  0.32580  Biso   1.000  H
  C545     1.0000 0.36800  0.48180  0.24970  Biso   1.000  C
  C546     1.0000 0.38150  0.45510  0.21690  Biso   1.000  C
  C547     1.0000 0.37490  0.45610  0.15880  Biso   1.000  C
  H274     1.0000 0.38750  0.43850  0.13640  Biso   1.000  H
  C548     1.0000 0.34760  0.48600  0.13750  Biso   1.000  C
  H275     1.0000 0.33870  0.48640  0.10110  Biso   1.000  H
  C549     1.0000 0.33380  0.51470  0.17670  Biso   1.000  C
  C550     1.0000 0.34250  0.51180  0.22880  Biso   1.000  C
  H276     1.0000 0.33170  0.52980  0.25210  Biso   1.000  H
  C551     1.0000 0.44410  0.38910  0.30370  Biso   1.000  C
  C552     1.0000 0.30780  0.54710  0.15400  Biso   1.000  C
  O181     1.0000 0.45380  0.39380  0.35000  Biso   1.000  O
  O182     1.0000 0.45470  0.36600  0.27140  Biso   1.000  O
  O183     1.0000 0.30730  0.54880  0.10420  Biso   1.000  O
  O184     1.0000 0.28820  0.56540  0.18570  Biso   1.000  O
  C553     1.0000 0.14360  0.70450  0.19580  Biso   1.000  C
  H277     1.0000 0.14080  0.71000  0.15980  Biso   1.000  H
  C554     1.0000 0.16860  0.67820  0.22150  Biso   1.000  C
  C555     1.0000 0.17060  0.67470  0.27610  Biso   1.000  C
  H278     1.0000 0.18780  0.65590  0.28960  Biso   1.000  H
  C556     1.0000 0.14940  0.69630  0.31260  Biso   1.000  C
  H279     1.0000 0.15150  0.69130  0.34890  Biso   1.000  H
  C557     1.0000 0.12550  0.72490  0.29470  Biso   1.000  C
  C558     1.0000 0.12350  0.72040  0.24040  Biso   1.000  C
  C559     1.0000 0.10020  0.74830  0.21830  Biso   1.000  C
  H280     1.0000 0.09740  0.75280  0.18200  Biso   1.000  H
  C560     1.0000 0.08100  0.76950  0.25870  Biso   1.000  C
  H281     1.0000 0.06370  0.78800  0.24450  Biso   1.000  H
  C561     1.0000 0.08060  0.77030  0.31460  Biso   1.000  C
  C562     1.0000 0.10750  0.74430  0.33730  Biso   1.000  C
  H282     1.0000 0.11180  0.74130  0.37490  Biso   1.000  H
  C563     1.0000 0.20060  0.65150  0.18930  Biso   1.000  C
  C564     1.0000 0.05320  0.80080  0.34030  Biso   1.000  C
  O185     1.0000 0.19760  0.65120  0.14110  Biso   1.000  O
  O186     1.0000 0.21970  0.62920  0.21660  Biso   1.000  O
  O187     1.0000 0.05680  0.80300  0.39080  Biso   1.000  O
  O188     1.0000 0.02980  0.81900  0.31190  Biso   1.000  O
  C565     1.0000 0.47810  0.32230  0.82020  Biso   1.000  C
  H283     1.0000 0.49150  0.30630  0.84610  Biso   1.000  H
  C566     1.0000 0.48560  0.31650  0.76640  Biso   1.000  C
  C567     1.0000 0.46400  0.33790  0.72880  Biso   1.000  C
  H284     1.0000 0.46560  0.33150  0.69290  Biso   1.000  H
  C568     1.0000 0.44000  0.36880  0.74490  Biso   1.000  C
  H285     1.0000 0.43240  0.38860  0.72020  Biso   1.000  H
  C569     1.0000 0.43140  0.37330  0.79700  Biso   1.000  C
  C570     1.0000 0.45060  0.35070  0.83660  Biso   1.000  C
  C571     1.0000 0.44310  0.35940  0.88930  Biso   1.000  C
  H286     1.0000 0.45610  0.34550  0.91760  Biso   1.000  H
  C572     1.0000 0.41750  0.38940  0.90350  Biso   1.000  C
  H287     1.0000 0.40770  0.39570  0.93840  Biso   1.000  H
  C573     1.0000 0.39860  0.41110  0.86390  Biso   1.000  C
  C574     1.0000 0.40580  0.40370  0.81100  Biso   1.000  C
  H288     1.0000 0.39140  0.41970  0.78610  Biso   1.000  H
  C575     1.0000 0.51270  0.28500  0.74650  Biso   1.000  C
  C576     1.0000 0.36810  0.44450  0.87340  Biso   1.000  C
  O189     1.0000 0.52040  0.25690  0.77390  Biso   1.000  O
  O190     1.0000 0.52250  0.28810  0.69890  Biso   1.000  O
  O191     1.0000 0.34690  0.46410  0.84510  Biso   1.000  O
  O192     1.0000 0.37010  0.45240  0.92370  Biso   1.000  O
  Cd37     1.0000 0.75214  0.39656  0.13496  Biso   1.000  Cd
  Cd38     1.0000 0.68019  0.49939  0.91463  Biso   1.000  Cd
  Cd39     1.0000 0.71801  0.44610  0.02117  Biso   1.000  Cd
  C577     1.0000 0.60460  0.41280  0.03490  Biso   1.000  C
  H289     1.0000 0.62310  0.42720  0.05460  Biso   1.000  H
  C578     1.0000 0.60320  0.41810  0.98550  Biso   1.000  C
  C579     1.0000 0.57470  0.39310  0.94910  Biso   1.000  C
  H290     1.0000 0.57260  0.39690  0.91130  Biso   1.000  H
  C580     1.0000 0.55170  0.36410  0.98080  Biso   1.000  C
  H291     1.0000 0.53600  0.34640  0.96210  Biso   1.000  H
  C581     1.0000 0.55170  0.36180  0.02930  Biso   1.000  C
  C582     1.0000 0.57830  0.38470  0.06380  Biso   1.000  C
  C583     1.0000 0.57880  0.37890  0.11900  Biso   1.000  C
  H292     1.0000 0.60010  0.39070  0.13960  Biso   1.000  H
  C584     1.0000 0.55250  0.35450  0.14180  Biso   1.000  C
  H293     1.0000 0.55280  0.35150  0.17860  Biso   1.000  H
  C585     1.0000 0.52470  0.33350  0.11180  Biso   1.000  C
  C586     1.0000 0.52340  0.33610  0.05780  Biso   1.000  C
  H294     1.0000 0.50460  0.32160  0.03870  Biso   1.000  H
  C587     1.0000 0.63090  0.44360  0.94990  Biso   1.000  C
  C588     1.0000 0.49110  0.30620  0.13500  Biso   1.000  C
  O193     1.0000 0.62370  0.44870  0.90480  Biso   1.000  O
  O194     1.0000 0.65600  0.46150  0.98290  Biso   1.000  O
  O195     1.0000 0.49590  0.30670  0.18760  Biso   1.000  O
  O196     1.0000 0.47220  0.28390  0.11100  Biso   1.000  O
  C589     1.0000 0.59180  0.57510  0.23450  Biso   1.000  C
  H295     1.0000 0.57980  0.59150  0.20990  Biso   1.000  H
  C590     1.0000 0.58470  0.57920  0.28440  Biso   1.000  C
  C591     1.0000 0.59850  0.55000  0.32240  Biso   1.000  C
  H296     1.0000 0.59200  0.55220  0.35950  Biso   1.000  H
  C592     1.0000 0.62320  0.52210  0.30220  Biso   1.000  C
  H297     1.0000 0.63470  0.50460  0.32580  Biso   1.000  H
  C593     1.0000 0.63200  0.51820  0.24970  Biso   1.000  C
  C594     1.0000 0.61850  0.54490  0.21690  Biso   1.000  C
  C595     1.0000 0.62510  0.54390  0.15880  Biso   1.000  C
  H298     1.0000 0.61250  0.56150  0.13640  Biso   1.000  H
  C596     1.0000 0.65240  0.51400  0.13750  Biso   1.000  C
  H299     1.0000 0.66130  0.51360  0.10110  Biso   1.000  H
  C597     1.0000 0.66620  0.48530  0.17670  Biso   1.000  C
  C598     1.0000 0.65750  0.48820  0.22880  Biso   1.000  C
  H300     1.0000 0.66830  0.47020  0.25210  Biso   1.000  H
  C599     1.0000 0.55590  0.61090  0.30370  Biso   1.000  C
  C600     1.0000 0.69220  0.45290  0.15400  Biso   1.000  C
  O197     1.0000 0.54620  0.60620  0.35000  Biso   1.000  O
  O198     1.0000 0.54530  0.63400  0.27140  Biso   1.000  O
  O199     1.0000 0.69270  0.45120  0.10420  Biso   1.000  O
  O200     1.0000 0.71180  0.43460  0.18570  Biso   1.000  O
  C601     1.0000 0.85640  0.29550  0.19580  Biso   1.000  C
  H301     1.0000 0.85920  0.29000  0.15980  Biso   1.000  H
  C602     1.0000 0.83140  0.32180  0.22150  Biso   1.000  C
  C603     1.0000 0.82940  0.32530  0.27610  Biso   1.000  C
  H302     1.0000 0.81220  0.34410  0.28960  Biso   1.000  H
  C604     1.0000 0.85060  0.30370  0.31260  Biso   1.000  C
  H303     1.0000 0.84850  0.30870  0.34890  Biso   1.000  H
  C605     1.0000 0.87450  0.27510  0.29470  Biso   1.000  C
  C606     1.0000 0.87650  0.27960  0.24040  Biso   1.000  C
  C607     1.0000 0.89980  0.25170  0.21830  Biso   1.000  C
  H304     1.0000 0.90260  0.24720  0.18200  Biso   1.000  H
  C608     1.0000 0.91900  0.23050  0.25870  Biso   1.000  C
  H305     1.0000 0.93630  0.21200  0.24450  Biso   1.000  H
  C609     1.0000 0.91940  0.22970  0.31460  Biso   1.000  C
  C610     1.0000 0.89250  0.25570  0.33730  Biso   1.000  C
  H306     1.0000 0.88820  0.25870  0.37490  Biso   1.000  H
  C611     1.0000 0.79940  0.34850  0.18930  Biso   1.000  C
  C612     1.0000 0.94680  0.19920  0.34030  Biso   1.000  C
  O201     1.0000 0.80240  0.34880  0.14110  Biso   1.000  O
  O202     1.0000 0.78030  0.37080  0.21660  Biso   1.000  O
  O203     1.0000 0.94320  0.19700  0.39080  Biso   1.000  O
  O204     1.0000 0.97020  0.18100  0.31190  Biso   1.000  O
  C613     1.0000 0.52190  0.67770  0.82020  Biso   1.000  C
  H307     1.0000 0.50850  0.69370  0.84610  Biso   1.000  H
  C614     1.0000 0.51440  0.68350  0.76640  Biso   1.000  C
  C615     1.0000 0.53600  0.66210  0.72880  Biso   1.000  C
  H308     1.0000 0.53440  0.66850  0.69290  Biso   1.000  H
  C616     1.0000 0.56000  0.63120  0.74490  Biso   1.000  C
  H309     1.0000 0.56760  0.61140  0.72020  Biso   1.000  H
  C617     1.0000 0.56860  0.62670  0.79700  Biso   1.000  C
  C618     1.0000 0.54940  0.64930  0.83660  Biso   1.000  C
  C619     1.0000 0.55690  0.64060  0.88930  Biso   1.000  C
  H310     1.0000 0.54390  0.65450  0.91760  Biso   1.000  H
  C620     1.0000 0.58250  0.61060  0.90350  Biso   1.000  C
  H311     1.0000 0.59230  0.60430  0.93840  Biso   1.000  H
  C621     1.0000 0.60140  0.58890  0.86390  Biso   1.000  C
  C622     1.0000 0.59420  0.59630  0.81100  Biso   1.000  C
  H312     1.0000 0.60860  0.58030  0.78610  Biso   1.000  H
  C623     1.0000 0.48730  0.71500  0.74650  Biso   1.000  C
  C624     1.0000 0.63190  0.55550  0.87340  Biso   1.000  C
  O205     1.0000 0.47960  0.74310  0.77390  Biso   1.000  O
  O206     1.0000 0.47750  0.71190  0.69890  Biso   1.000  O
  O207     1.0000 0.65310  0.53590  0.84510  Biso   1.000  O
  O208     1.0000 0.62990  0.54760  0.92370  Biso   1.000  O
  Cd40     1.0000 0.75214  0.89656  0.63496  Biso   1.000  Cd
  Cd41     1.0000 0.68019  0.99939  0.41463  Biso   1.000  Cd
  Cd42     1.0000 0.71801  0.94610  0.52117  Biso   1.000  Cd
  C625     1.0000 0.60460  0.91280  0.53490  Biso   1.000  C
  H313     1.0000 0.62310  0.92720  0.55460  Biso   1.000  H
  C626     1.0000 0.60320  0.91810  0.48550  Biso   1.000  C
  C627     1.0000 0.57470  0.89310  0.44910  Biso   1.000  C
  H314     1.0000 0.57260  0.89690  0.41130  Biso   1.000  H
  C628     1.0000 0.55170  0.86410  0.48080  Biso   1.000  C
  H315     1.0000 0.53600  0.84640  0.46210  Biso   1.000  H
  C629     1.0000 0.55170  0.86180  0.52930  Biso   1.000  C
  C630     1.0000 0.57830  0.88470  0.56380  Biso   1.000  C
  C631     1.0000 0.57880  0.87890  0.61900  Biso   1.000  C
  H316     1.0000 0.60010  0.89070  0.63960  Biso   1.000  H
  C632     1.0000 0.55250  0.85450  0.64180  Biso   1.000  C
  H317     1.0000 0.55280  0.85150  0.67860  Biso   1.000  H
  C633     1.0000 0.52470  0.83350  0.61180  Biso   1.000  C
  C634     1.0000 0.52340  0.83610  0.55780  Biso   1.000  C
  H318     1.0000 0.50460  0.82160  0.53870  Biso   1.000  H
  C635     1.0000 0.63090  0.94360  0.44990  Biso   1.000  C
  C636     1.0000 0.49110  0.80620  0.63500  Biso   1.000  C
  O209     1.0000 0.62370  0.94870  0.40480  Biso   1.000  O
  O210     1.0000 0.65600  0.96150  0.48290  Biso   1.000  O
  O211     1.0000 0.49590  0.80670  0.68760  Biso   1.000  O
  O212     1.0000 0.47220  0.78390  0.61100  Biso   1.000  O
  C637     1.0000 0.59180  0.07510  0.73450  Biso   1.000  C
  H319     1.0000 0.57980  0.09150  0.70990  Biso   1.000  H
  C638     1.0000 0.58470  0.07920  0.78440  Biso   1.000  C
  C639     1.0000 0.59850  0.05000  0.82240  Biso   1.000  C
  H320     1.0000 0.59200  0.05220  0.85950  Biso   1.000  H
  C640     1.0000 0.62320  0.02210  0.80220  Biso   1.000  C
  H321     1.0000 0.63470  0.00460  0.82580  Biso   1.000  H
  C641     1.0000 0.63200  0.01820  0.74970  Biso   1.000  C
  C642     1.0000 0.61850  0.04490  0.71690  Biso   1.000  C
  C643     1.0000 0.62510  0.04390  0.65880  Biso   1.000  C
  H322     1.0000 0.61250  0.06150  0.63640  Biso   1.000  H
  C644     1.0000 0.65240  0.01400  0.63750  Biso   1.000  C
  H323     1.0000 0.66130  0.01360  0.60110  Biso   1.000  H
  C645     1.0000 0.66620  0.98530  0.67670  Biso   1.000  C
  C646     1.0000 0.65750  0.98820  0.72880  Biso   1.000  C
  H324     1.0000 0.66830  0.97020  0.75210  Biso   1.000  H
  C647     1.0000 0.55590  0.11090  0.80370  Biso   1.000  C
  C648     1.0000 0.69220  0.95290  0.65400  Biso   1.000  C
  O213     1.0000 0.54620  0.10620  0.85000  Biso   1.000  O
  O214     1.0000 0.54530  0.13400  0.77140  Biso   1.000  O
  O215     1.0000 0.69270  0.95120  0.60420  Biso   1.000  O
  O216     1.0000 0.71180  0.93460  0.68570  Biso   1.000  O
  C649     1.0000 0.85640  0.79550  0.69580  Biso   1.000  C
  H325     1.0000 0.85920  0.79000  0.65980  Biso   1.000  H
  C650     1.0000 0.83140  0.82180  0.72150  Biso   1.000  C
  C651     1.0000 0.82940  0.82530  0.77610  Biso   1.000  C
  H326     1.0000 0.81220  0.84410  0.78960  Biso   1.000  H
  C652     1.0000 0.85060  0.80370  0.81260  Biso   1.000  C
  H327     1.0000 0.84850  0.80870  0.84890  Biso   1.000  H
  C653     1.0000 0.87450  0.77510  0.79470  Biso   1.000  C
  C654     1.0000 0.87650  0.77960  0.74040  Biso   1.000  C
  C655     1.0000 0.89980  0.75170  0.71830  Biso   1.000  C
  H328     1.0000 0.90260  0.74720  0.68200  Biso   1.000  H
  C656     1.0000 0.91900  0.73050  0.75870  Biso   1.000  C
  H329     1.0000 0.93630  0.71200  0.74450  Biso   1.000  H
  C657     1.0000 0.91940  0.72970  0.81460  Biso   1.000  C
  C658     1.0000 0.89250  0.75570  0.83730  Biso   1.000  C
  H330     1.0000 0.88820  0.75870  0.87490  Biso   1.000  H
  C659     1.0000 0.79940  0.84850  0.68930  Biso   1.000  C
  C660     1.0000 0.94680  0.69920  0.84030  Biso   1.000  C
  O217     1.0000 0.80240  0.84880  0.64110  Biso   1.000  O
  O218     1.0000 0.78030  0.87080  0.71660  Biso   1.000  O
  O219     1.0000 0.94320  0.69700  0.89080  Biso   1.000  O
  O220     1.0000 0.97020  0.68100  0.81190  Biso   1.000  O
  C661     1.0000 0.52190  0.17770  0.32020  Biso   1.000  C
  H331     1.0000 0.50850  0.19370  0.34610  Biso   1.000  H
  C662     1.0000 0.51440  0.18350  0.26640  Biso   1.000  C
  C663     1.0000 0.53600  0.16210  0.22880  Biso   1.000  C
  H332     1.0000 0.53440  0.16850  0.19290  Biso   1.000  H
  C664     1.0000 0.56000  0.13120  0.24490  Biso   1.000  C
  H333     1.0000 0.56760  0.11140  0.22020  Biso   1.000  H
  C665     1.0000 0.56860  0.12670  0.29700  Biso   1.000  C
  C666     1.0000 0.54940  0.14930  0.33660  Biso   1.000  C
  C667     1.0000 0.55690  0.14060  0.38930  Biso   1.000  C
  H334     1.0000 0.54390  0.15450  0.41760  Biso   1.000  H
  C668     1.0000 0.58250  0.11060  0.40350  Biso   1.000  C
  H335     1.0000 0.59230  0.10430  0.43840  Biso   1.000  H
  C669     1.0000 0.60140  0.08890  0.36390  Biso   1.000  C
  C670     1.0000 0.59420  0.09630  0.31100  Biso   1.000  C
  H336     1.0000 0.60860  0.08030  0.28610  Biso   1.000  H
  C671     1.0000 0.48730  0.21500  0.24650  Biso   1.000  C
  C672     1.0000 0.63190  0.05550  0.37340  Biso   1.000  C
  O221     1.0000 0.47960  0.24310  0.27390  Biso   1.000  O
  O222     1.0000 0.47750  0.21190  0.19890  Biso   1.000  O
  O223     1.0000 0.65310  0.03590  0.34510  Biso   1.000  O
  O224     1.0000 0.62990  0.04760  0.42370  Biso   1.000  O
  Cd43     1.0000 0.25214  0.39656  0.63496  Biso   1.000  Cd
  Cd44     1.0000 0.18019  0.49939  0.41463  Biso   1.000  Cd
  Cd45     1.0000 0.21801  0.44610  0.52117  Biso   1.000  Cd
  C673     1.0000 0.10460  0.41280  0.53490  Biso   1.000  C
  H337     1.0000 0.12310  0.42720  0.55460  Biso   1.000  H
  C674     1.0000 0.10320  0.41810  0.48550  Biso   1.000  C
  C675     1.0000 0.07470  0.39310  0.44910  Biso   1.000  C
  H338     1.0000 0.07260  0.39690  0.41130  Biso   1.000  H
  C676     1.0000 0.05170  0.36410  0.48080  Biso   1.000  C
  H339     1.0000 0.03600  0.34640  0.46210  Biso   1.000  H
  C677     1.0000 0.05170  0.36180  0.52930  Biso   1.000  C
  C678     1.0000 0.07830  0.38470  0.56380  Biso   1.000  C
  C679     1.0000 0.07880  0.37890  0.61900  Biso   1.000  C
  H340     1.0000 0.10010  0.39070  0.63960  Biso   1.000  H
  C680     1.0000 0.05250  0.35450  0.64180  Biso   1.000  C
  H341     1.0000 0.05280  0.35150  0.67860  Biso   1.000  H
  C681     1.0000 0.02470  0.33350  0.61180  Biso   1.000  C
  C682     1.0000 0.02340  0.33610  0.55780  Biso   1.000  C
  H342     1.0000 0.00460  0.32160  0.53870  Biso   1.000  H
  C683     1.0000 0.13090  0.44360  0.44990  Biso   1.000  C
  C684     1.0000 0.99110  0.30620  0.63500  Biso   1.000  C
  O225     1.0000 0.12370  0.44870  0.40480  Biso   1.000  O
  O226     1.0000 0.15600  0.46150  0.48290  Biso   1.000  O
  O227     1.0000 0.99590  0.30670  0.68760  Biso   1.000  O
  O228     1.0000 0.97220  0.28390  0.61100  Biso   1.000  O
  C685     1.0000 0.09180  0.57510  0.73450  Biso   1.000  C
  H343     1.0000 0.07980  0.59150  0.70990  Biso   1.000  H
  C686     1.0000 0.08470  0.57920  0.78440  Biso   1.000  C
  C687     1.0000 0.09850  0.55000  0.82240  Biso   1.000  C
  H344     1.0000 0.09200  0.55220  0.85950  Biso   1.000  H
  C688     1.0000 0.12320  0.52210  0.80220  Biso   1.000  C
  H345     1.0000 0.13470  0.50460  0.82580  Biso   1.000  H
  C689     1.0000 0.13200  0.51820  0.74970  Biso   1.000  C
  C690     1.0000 0.11850  0.54490  0.71690  Biso   1.000  C
  C691     1.0000 0.12510  0.54390  0.65880  Biso   1.000  C
  H346     1.0000 0.11250  0.56150  0.63640  Biso   1.000  H
  C692     1.0000 0.15240  0.51400  0.63750  Biso   1.000  C
  H347     1.0000 0.16130  0.51360  0.60110  Biso   1.000  H
  C693     1.0000 0.16620  0.48530  0.67670  Biso   1.000  C
  C694     1.0000 0.15750  0.48820  0.72880  Biso   1.000  C
  H348     1.0000 0.16830  0.47020  0.75210  Biso   1.000  H
  C695     1.0000 0.05590  0.61090  0.80370  Biso   1.000  C
  C696     1.0000 0.19220  0.45290  0.65400  Biso   1.000  C
  O229     1.0000 0.04620  0.60620  0.85000  Biso   1.000  O
  O230     1.0000 0.04530  0.63400  0.77140  Biso   1.000  O
  O231     1.0000 0.19270  0.45120  0.60420  Biso   1.000  O
  O232     1.0000 0.21180  0.43460  0.68570  Biso   1.000  O
  C697     1.0000 0.35640  0.29550  0.69580  Biso   1.000  C
  H349     1.0000 0.35920  0.29000  0.65980  Biso   1.000  H
  C698     1.0000 0.33140  0.32180  0.72150  Biso   1.000  C
  C699     1.0000 0.32940  0.32530  0.77610  Biso   1.000  C
  H350     1.0000 0.31220  0.34410  0.78960  Biso   1.000  H
  C700     1.0000 0.35060  0.30370  0.81260  Biso   1.000  C
  H351     1.0000 0.34850  0.30870  0.84890  Biso   1.000  H
  C701     1.0000 0.37450  0.27510  0.79470  Biso   1.000  C
  C702     1.0000 0.37650  0.27960  0.74040  Biso   1.000  C
  C703     1.0000 0.39980  0.25170  0.71830  Biso   1.000  C
  H352     1.0000 0.40260  0.24720  0.68200  Biso   1.000  H
  C704     1.0000 0.41900  0.23050  0.75870  Biso   1.000  C
  H353     1.0000 0.43630  0.21200  0.74450  Biso   1.000  H
  C705     1.0000 0.41940  0.22970  0.81460  Biso   1.000  C
  C706     1.0000 0.39250  0.25570  0.83730  Biso   1.000  C
  H354     1.0000 0.38820  0.25870  0.87490  Biso   1.000  H
  C707     1.0000 0.29940  0.34850  0.68930  Biso   1.000  C
  C708     1.0000 0.44680  0.19920  0.84030  Biso   1.000  C
  O233     1.0000 0.30240  0.34880  0.64110  Biso   1.000  O
  O234     1.0000 0.28030  0.37080  0.71660  Biso   1.000  O
  O235     1.0000 0.44320  0.19700  0.89080  Biso   1.000  O
  O236     1.0000 0.47020  0.18100  0.81190  Biso   1.000  O
  C709     1.0000 0.02190  0.67770  0.32020  Biso   1.000  C
  H355     1.0000 0.00850  0.69370  0.34610  Biso   1.000  H
  C710     1.0000 0.01440  0.68350  0.26640  Biso   1.000  C
  C711     1.0000 0.03600  0.66210  0.22880  Biso   1.000  C
  H356     1.0000 0.03440  0.66850  0.19290  Biso   1.000  H
  C712     1.0000 0.06000  0.63120  0.24490  Biso   1.000  C
  H357     1.0000 0.06760  0.61140  0.22020  Biso   1.000  H
  C713     1.0000 0.06860  0.62670  0.29700  Biso   1.000  C
  C714     1.0000 0.04940  0.64930  0.33660  Biso   1.000  C
  C715     1.0000 0.05690  0.64060  0.38930  Biso   1.000  C
  H358     1.0000 0.04390  0.65450  0.41760  Biso   1.000  H
  C716     1.0000 0.08250  0.61060  0.40350  Biso   1.000  C
  H359     1.0000 0.09230  0.60430  0.43840  Biso   1.000  H
  C717     1.0000 0.10140  0.58890  0.36390  Biso   1.000  C
  C718     1.0000 0.09420  0.59630  0.31100  Biso   1.000  C
  H360     1.0000 0.10860  0.58030  0.28610  Biso   1.000  H
  C719     1.0000 0.98730  0.71500  0.24650  Biso   1.000  C
  C720     1.0000 0.13190  0.55550  0.37340  Biso   1.000  C
  O237     1.0000 0.97960  0.74310  0.27390  Biso   1.000  O
  O238     1.0000 0.97750  0.71190  0.19890  Biso   1.000  O
  O239     1.0000 0.15310  0.53590  0.34510  Biso   1.000  O
  O240     1.0000 0.12990  0.54760  0.42370  Biso   1.000  O
  Cd46     1.0000 0.25214  0.89656  0.13496  Biso   1.000  Cd
  Cd47     1.0000 0.18019  0.99939  0.91463  Biso   1.000  Cd
  Cd48     1.0000 0.21801  0.94610  0.02117  Biso   1.000  Cd
  C721     1.0000 0.10460  0.91280  0.03490  Biso   1.000  C
  H361     1.0000 0.12310  0.92720  0.05460  Biso   1.000  H
  C722     1.0000 0.10320  0.91810  0.98550  Biso   1.000  C
  C723     1.0000 0.07470  0.89310  0.94910  Biso   1.000  C
  H362     1.0000 0.07260  0.89690  0.91130  Biso   1.000  H
  C724     1.0000 0.05170  0.86410  0.98080  Biso   1.000  C
  H363     1.0000 0.03600  0.84640  0.96210  Biso   1.000  H
  C725     1.0000 0.05170  0.86180  0.02930  Biso   1.000  C
  C726     1.0000 0.07830  0.88470  0.06380  Biso   1.000  C
  C727     1.0000 0.07880  0.87890  0.11900  Biso   1.000  C
  H364     1.0000 0.10010  0.89070  0.13960  Biso   1.000  H
  C728     1.0000 0.05250  0.85450  0.14180  Biso   1.000  C
  H365     1.0000 0.05280  0.85150  0.17860  Biso   1.000  H
  C729     1.0000 0.02470  0.83350  0.11180  Biso   1.000  C
  C730     1.0000 0.02340  0.83610  0.05780  Biso   1.000  C
  H366     1.0000 0.00460  0.82160  0.03870  Biso   1.000  H
  C731     1.0000 0.13090  0.94360  0.94990  Biso   1.000  C
  C732     1.0000 0.99110  0.80620  0.13500  Biso   1.000  C
  O241     1.0000 0.12370  0.94870  0.90480  Biso   1.000  O
  O242     1.0000 0.15600  0.96150  0.98290  Biso   1.000  O
  O243     1.0000 0.99590  0.80670  0.18760  Biso   1.000  O
  O244     1.0000 0.97220  0.78390  0.11100  Biso   1.000  O
  C733     1.0000 0.09180  0.07510  0.23450  Biso   1.000  C
  H367     1.0000 0.07980  0.09150  0.20990  Biso   1.000  H
  C734     1.0000 0.08470  0.07920  0.28440  Biso   1.000  C
  C735     1.0000 0.09850  0.05000  0.32240  Biso   1.000  C
  H368     1.0000 0.09200  0.05220  0.35950  Biso   1.000  H
  C736     1.0000 0.12320  0.02210  0.30220  Biso   1.000  C
  H369     1.0000 0.13470  0.00460  0.32580  Biso   1.000  H
  C737     1.0000 0.13200  0.01820  0.24970  Biso   1.000  C
  C738     1.0000 0.11850  0.04490  0.21690  Biso   1.000  C
  C739     1.0000 0.12510  0.04390  0.15880  Biso   1.000  C
  H370     1.0000 0.11250  0.06150  0.13640  Biso   1.000  H
  C740     1.0000 0.15240  0.01400  0.13750  Biso   1.000  C
  H371     1.0000 0.16130  0.01360  0.10110  Biso   1.000  H
  C741     1.0000 0.16620  0.98530  0.17670  Biso   1.000  C
  C742     1.0000 0.15750  0.98820  0.22880  Biso   1.000  C
  H372     1.0000 0.16830  0.97020  0.25210  Biso   1.000  H
  C743     1.0000 0.05590  0.11090  0.30370  Biso   1.000  C
  C744     1.0000 0.19220  0.95290  0.15400  Biso   1.000  C
  O245     1.0000 0.04620  0.10620  0.35000  Biso   1.000  O
  O246     1.0000 0.04530  0.13400  0.27140  Biso   1.000  O
  O247     1.0000 0.19270  0.95120  0.10420  Biso   1.000  O
  O248     1.0000 0.21180  0.93460  0.18570  Biso   1.000  O
  C745     1.0000 0.35640  0.79550  0.19580  Biso   1.000  C
  H373     1.0000 0.35920  0.79000  0.15980  Biso   1.000  H
  C746     1.0000 0.33140  0.82180  0.22150  Biso   1.000  C
  C747     1.0000 0.32940  0.82530  0.27610  Biso   1.000  C
  H374     1.0000 0.31220  0.84410  0.28960  Biso   1.000  H
  C748     1.0000 0.35060  0.80370  0.31260  Biso   1.000  C
  H375     1.0000 0.34850  0.80870  0.34890  Biso   1.000  H
  C749     1.0000 0.37450  0.77510  0.29470  Biso   1.000  C
  C750     1.0000 0.37650  0.77960  0.24040  Biso   1.000  C
  C751     1.0000 0.39980  0.75170  0.21830  Biso   1.000  C
  H376     1.0000 0.40260  0.74720  0.18200  Biso   1.000  H
  C752     1.0000 0.41900  0.73050  0.25870  Biso   1.000  C
  H377     1.0000 0.43630  0.71200  0.24450  Biso   1.000  H
  C753     1.0000 0.41940  0.72970  0.31460  Biso   1.000  C
  C754     1.0000 0.39250  0.75570  0.33730  Biso   1.000  C
  H378     1.0000 0.38820  0.75870  0.37490  Biso   1.000  H
  C755     1.0000 0.29940  0.84850  0.18930  Biso   1.000  C
  C756     1.0000 0.44680  0.69920  0.34030  Biso   1.000  C
  O249     1.0000 0.30240  0.84880  0.14110  Biso   1.000  O
  O250     1.0000 0.28030  0.87080  0.21660  Biso   1.000  O
  O251     1.0000 0.44320  0.69700  0.39080  Biso   1.000  O
  O252     1.0000 0.47020  0.68100  0.31190  Biso   1.000  O
  C757     1.0000 0.02190  0.17770  0.82020  Biso   1.000  C
  H379     1.0000 0.00850  0.19370  0.84610  Biso   1.000  H
  C758     1.0000 0.01440  0.18350  0.76640  Biso   1.000  C
  C759     1.0000 0.03600  0.16210  0.72880  Biso   1.000  C
  H380     1.0000 0.03440  0.16850  0.69290  Biso   1.000  H
  C760     1.0000 0.06000  0.13120  0.74490  Biso   1.000  C
  H381     1.0000 0.06760  0.11140  0.72020  Biso   1.000  H
  C761     1.0000 0.06860  0.12670  0.79700  Biso   1.000  C
  C762     1.0000 0.04940  0.14930  0.83660  Biso   1.000  C
  C763     1.0000 0.05690  0.14060  0.88930  Biso   1.000  C
  H382     1.0000 0.04390  0.15450  0.91760  Biso   1.000  H
  C764     1.0000 0.08250  0.11060  0.90350  Biso   1.000  C
  H383     1.0000 0.09230  0.10430  0.93840  Biso   1.000  H
  C765     1.0000 0.10140  0.08890  0.86390  Biso   1.000  C
  C766     1.0000 0.09420  0.09630  0.81100  Biso   1.000  C
  H384     1.0000 0.10860  0.08030  0.78610  Biso   1.000  H
  C767     1.0000 0.98730  0.21500  0.74650  Biso   1.000  C
  C768     1.0000 0.13190  0.05550  0.87340  Biso   1.000  C
  O253     1.0000 0.97960  0.24310  0.77390  Biso   1.000  O
  O254     1.0000 0.97750  0.21190  0.69890  Biso   1.000  O
  O255     1.0000 0.15310  0.03590  0.84510  Biso   1.000  O
  O256     1.0000 0.12990  0.04760  0.92370  Biso   1.000  O
