data_image0
_cell_length_a       33.48
_cell_length_b       33.48
_cell_length_c       105.59
_cell_angle_alpha    90
_cell_angle_beta     90
_cell_angle_gamma    120

_symmetry_space_group_name_H-M    "P 1"
_symmetry_int_tables_number       1

loop_
  _symmetry_equiv_pos_as_xyz
  'x, y, z'

loop_
  _atom_site_label
  _atom_site_occupancy
  _atom_site_fract_x
  _atom_site_fract_y
  _atom_site_fract_z
  _atom_site_thermal_displace_type
  _atom_site_B_iso_or_equiv
  _atom_site_type_symbol
  Zn1      1.0000 0.77898  0.40121  0.03962  Biso   1.000  Zn
  O1       1.0000 0.72220  0.38170  0.03097  Biso   1.000  O
  O2       1.0000 0.82570  0.41850  0.02634  Biso   1.000  O
  O3       1.0000 0.79640  0.45510  0.04914  Biso   1.000  O
  O4       1.0000 0.78400  0.35940  0.05005  Biso   1.000  O
  Zn2      1.0000 0.73910  0.44170  0.02340  Biso   1.000  Zn
  C1       1.0000 0.82230  0.44130  0.01729  Biso   1.000  C
  C2       1.0000 0.78570  0.48650  0.04567  Biso   1.000  C
  O5       1.0000 0.79580  0.45590  0.01466  Biso   1.000  O
  O6       1.0000 0.75970  0.48550  0.03682  Biso   1.000  O
  O7       1.0000 0.70890  0.46090  0.01148  Biso   1.000  O
  O8       1.0000 0.67930  0.38790  0.05389  Biso   1.000  O
  C3       1.0000 0.85940  0.45080  0.00707  Biso   1.000  C
  C4       1.0000 0.80470  0.52810  0.05462  Biso   1.000  C
  C5       1.0000 0.86180  0.47490  0.99556  Biso   1.000  C
  C6       1.0000 0.89150  0.43820  0.00822  Biso   1.000  C
  C7       1.0000 0.83300  0.53360  0.06569  Biso   1.000  C
  C8       1.0000 0.80120  0.56570  0.05127  Biso   1.000  C
  C9       1.0000 0.89420  0.48360  0.98717  Biso   1.000  C
  H1       1.0000 0.84000  0.48450  0.99400  Biso   1.000  H
  H2       1.0000 0.89080  0.42190  0.01570  Biso   1.000  H
  C10      1.0000 0.92560  0.44700  0.99940  Biso   1.000  C
  C11      1.0000 0.85180  0.57310  0.07317  Biso   1.000  C
  H3       1.0000 0.83880  0.50940  0.06790  Biso   1.000  H
  H4       1.0000 0.78720  0.56600  0.04350  Biso   1.000  H
  C12      1.0000 0.81880  0.60500  0.05963  Biso   1.000  C
  C13      1.0000 0.92680  0.46910  0.98817  Biso   1.000  C
  H5       1.0000 0.89570  0.50110  0.97990  Biso   1.000  H
  H6       1.0000 0.94790  0.43800  0.00100  Biso   1.000  H
  C14      1.0000 0.84350  0.60790  0.07022  Biso   1.000  C
  H7       1.0000 0.87030  0.57580  0.08030  Biso   1.000  H
  H8       1.0000 0.81310  0.62940  0.05770  Biso   1.000  H
  C15      1.0000 0.96030  0.47510  0.97818  Biso   1.000  C
  C16      1.0000 0.85880  0.64980  0.07836  Biso   1.000  C
  H9       1.0000 0.99210  0.49410  0.98140  Biso   1.000  H
  H10      1.0000 0.95590  0.44460  0.97570  Biso   1.000  H
  O9       1.0000 0.95390  0.49650  0.96774  Biso   1.000  O
  H11      1.0000 0.87570  0.67810  0.07320  Biso   1.000  H
  H12      1.0000 0.83170  0.64960  0.08220  Biso   1.000  H
  O10      1.0000 0.88750  0.64890  0.08787  Biso   1.000  O
  C17      1.0000 0.99030  0.51770  0.95921  Biso   1.000  C
  C18      1.0000 0.90770  0.68550  0.09548  Biso   1.000  C
  C19      1.0000 0.02450  0.50550  0.95893  Biso   1.000  C
  C20      1.0000 0.98180  0.53810  0.94822  Biso   1.000  C
  C21      1.0000 0.89680  0.71960  0.09558  Biso   1.000  C
  C22      1.0000 0.93120  0.68000  0.10635  Biso   1.000  C
  H13      1.0000 0.02350  0.48290  0.96460  Biso   1.000  H
  C23      1.0000 0.06030  0.52720  0.95016  Biso   1.000  C
  C24      1.0000 0.01690  0.55820  0.93991  Biso   1.000  C
  C25      1.0000 0.94380  0.54690  0.94580  Biso   1.000  C
  C26      1.0000 0.91840  0.75540  0.10500  Biso   1.000  C
  H14      1.0000 0.87570  0.71980  0.08960  Biso   1.000  H
  C27      1.0000 0.95260  0.71410  0.11521  Biso   1.000  C
  C28      1.0000 0.94340  0.64360  0.10815  Biso   1.000  C
  H15      1.0000 0.08790  0.52590  0.95110  Biso   1.000  H
  C29      1.0000 0.05440  0.55150  0.93969  Biso   1.000  C
  C30      1.0000 0.00860  0.58800  0.93026  Biso   1.000  C
  H16      1.0000 0.91820  0.53130  0.95210  Biso   1.000  H
  C31      1.0000 0.92900  0.53380  0.93350  Biso   1.000  C
  C32      1.0000 0.96650  0.59760  0.94650  Biso   1.000  C
  C33      1.0000 0.94550  0.74980  0.11540  Biso   1.000  C
  H17      1.0000 0.91540  0.78210  0.10460  Biso   1.000  H
  C34      1.0000 0.98260  0.71120  0.12437  Biso   1.000  C
  H18      1.0000 0.92870  0.61840  0.10170  Biso   1.000  H
  C35      1.0000 0.99210  0.66390  0.10855  Biso   1.000  C
  C36      1.0000 0.92510  0.62680  0.12191  Biso   1.000  C
  O11      1.0000 0.08660  0.57250  0.93094  Biso   1.000  O
  H19      1.0000 0.03380  0.60350  0.92380  Biso   1.000  H
  C37      1.0000 0.96180  0.55320  0.92450  Biso   1.000  C
  C38      1.0000 0.00020  0.62010  0.93760  Biso   1.000  C
  C39      1.0000 0.88460  0.50370  0.92940  Biso   1.000  C
  C40      1.0000 0.95420  0.62330  0.95450  Biso   1.000  C
  O12      1.0000 0.96260  0.78690  0.12418  Biso   1.000  O
  H20      1.0000 0.99880  0.73880  0.13000  Biso   1.000  H
  C41      1.0000 0.01370  0.69990  0.11726  Biso   1.000  C
  C42      1.0000 0.94770  0.66600  0.13138  Biso   1.000  C
  C43      1.0000 0.02010  0.65220  0.10137  Biso   1.000  C
  C44      1.0000 0.89520  0.58230  0.12564  Biso   1.000  C
  C45      1.0000 0.12000  0.56450  0.93005  Biso   1.000  C
  C46      1.0000 0.94930  0.54070  0.91050  Biso   1.000  C
  C47      1.0000 0.02370  0.66290  0.93583  Biso   1.000  C
  C48      1.0000 0.87770  0.49170  0.91400  Biso   1.000  C
  H21      1.0000 0.85930  0.49060  0.93510  Biso   1.000  H
  C49      1.0000 0.97820  0.66860  0.95360  Biso   1.000  C
  H22      1.0000 0.92950  0.60850  0.96040  Biso   1.000  H
  C50      1.0000 0.94450  0.81570  0.12557  Biso   1.000  C
  C51      1.0000 0.05860  0.72170  0.11860  Biso   1.000  C
  C52      1.0000 0.93680  0.65550  0.14378  Biso   1.000  C
  H23      1.0000 0.00550  0.62650  0.09580  Biso   1.000  H
  C53      1.0000 0.06670  0.67530  0.10190  Biso   1.000  C
  H24      1.0000 0.88120  0.55790  0.11970  Biso   1.000  H
  C54      1.0000 0.88610  0.57440  0.13864  Biso   1.000  C
  H25      1.0000 0.10690  0.53090  0.92890  Biso   1.000  H
  H26      1.0000 0.13680  0.57290  0.93820  Biso   1.000  H
  C55      1.0000 0.15430  0.58900  0.91969  Biso   1.000  C
  H27      1.0000 0.97250  0.55500  0.90420  Biso   1.000  H
  C56      1.0000 0.90580  0.50960  0.90700  Biso   1.000  C
  H28      1.0000 0.04780  0.67500  0.92970  Biso   1.000  H
  C57      1.0000 0.01390  0.69370  0.94300  Biso   1.000  C
  H29      1.0000 0.84830  0.46850  0.91110  Biso   1.000  H
  H30      1.0000 0.97330  0.68650  0.95970  Biso   1.000  H
  H31      1.0000 0.91040  0.79740  0.12600  Biso   1.000  H
  H32      1.0000 0.95320  0.83700  0.11830  Biso   1.000  H
  C58      1.0000 0.96340  0.84180  0.13730  Biso   1.000  C
  C59      1.0000 0.08440  0.70810  0.11120  Biso   1.000  C
  H33      1.0000 0.07340  0.74650  0.12440  Biso   1.000  H
  C60      1.0000 0.90570  0.61320  0.14751  Biso   1.000  C
  H34      1.0000 0.95180  0.67900  0.15000  Biso   1.000  H
  H35      1.0000 0.08540  0.66940  0.09630  Biso   1.000  H
  H36      1.0000 0.86730  0.54390  0.14170  Biso   1.000  H
  C61      1.0000 0.14280  0.61030  0.91042  Biso   1.000  C
  C62      1.0000 0.19790  0.59220  0.91853  Biso   1.000  C
  H37      1.0000 0.89920  0.50290  0.89830  Biso   1.000  H
  H38      1.0000 0.02800  0.72590  0.94140  Biso   1.000  H
  C63      1.0000 0.95270  0.87700  0.14120  Biso   1.000  C
  C64      1.0000 0.98520  0.83140  0.14580  Biso   1.000  C
  H39      1.0000 0.11660  0.72260  0.11280  Biso   1.000  H
  H40      1.0000 0.89600  0.60810  0.15610  Biso   1.000  H
  H41      1.0000 0.11400  0.60920  0.91100  Biso   1.000  H
  C65      1.0000 0.17140  0.63350  0.90009  Biso   1.000  C
  C66      1.0000 0.22480  0.61460  0.90838  Biso   1.000  C
  H42      1.0000 0.20830  0.57900  0.92480  Biso   1.000  H
  H43      1.0000 0.93580  0.88650  0.13600  Biso   1.000  H
  C67      1.0000 0.96900  0.89600  0.15328  Biso   1.000  C
  C68      1.0000 0.00730  0.85840  0.15779  Biso   1.000  C
  H44      1.0000 0.98740  0.80450  0.14440  Biso   1.000  H
  H45      1.0000 0.16180  0.64670  0.89370  Biso   1.000  H
  C69      1.0000 0.21530  0.63660  0.89959  Biso   1.000  C
  H46      1.0000 0.25290  0.61430  0.90750  Biso   1.000  H
  H47      1.0000 0.95980  0.91720  0.15600  Biso   1.000  H
  C70      1.0000 0.99420  0.88970  0.16117  Biso   1.000  C
  H48      1.0000 0.02870  0.85400  0.16260  Biso   1.000  H
  C71      1.0000 0.24730  0.66350  0.88920  Biso   1.000  C
  C72      1.0000 0.01540  0.91840  0.17190  Biso   1.000  C
  O13      1.0000 0.99340  0.93650  0.17579  Biso   1.000  O
  Zn3      1.0000 0.44565  0.73454  0.37295  Biso   1.000  Zn
  O14      1.0000 0.38887  0.71503  0.36430  Biso   1.000  O
  O15      1.0000 0.49237  0.75183  0.35967  Biso   1.000  O
  O16      1.0000 0.46307  0.78843  0.38247  Biso   1.000  O
  O17      1.0000 0.45067  0.69273  0.38338  Biso   1.000  O
  Zn4      1.0000 0.40577  0.77503  0.35673  Biso   1.000  Zn
  C73      1.0000 0.48897  0.77463  0.35062  Biso   1.000  C
  C74      1.0000 0.45237  0.81983  0.37900  Biso   1.000  C
  O18      1.0000 0.46247  0.78923  0.34799  Biso   1.000  O
  O19      1.0000 0.42637  0.81883  0.37015  Biso   1.000  O
  O20      1.0000 0.37557  0.79423  0.34481  Biso   1.000  O
  O21      1.0000 0.34597  0.72123  0.38722  Biso   1.000  O
  C75      1.0000 0.52607  0.78413  0.34040  Biso   1.000  C
  C76      1.0000 0.47137  0.86143  0.38795  Biso   1.000  C
  C77      1.0000 0.52847  0.80823  0.32889  Biso   1.000  C
  C78      1.0000 0.55817  0.77153  0.34155  Biso   1.000  C
  C79      1.0000 0.49967  0.86693  0.39902  Biso   1.000  C
  C80      1.0000 0.46787  0.89903  0.38460  Biso   1.000  C
  C81      1.0000 0.56087  0.81693  0.32050  Biso   1.000  C
  H49      1.0000 0.50667  0.81783  0.32733  Biso   1.000  H
  H50      1.0000 0.55747  0.75523  0.34903  Biso   1.000  H
  C82      1.0000 0.59227  0.78033  0.33273  Biso   1.000  C
  C83      1.0000 0.51847  0.90643  0.40650  Biso   1.000  C
  H51      1.0000 0.50547  0.84273  0.40123  Biso   1.000  H
  H52      1.0000 0.45387  0.89933  0.37683  Biso   1.000  H
  C84      1.0000 0.48547  0.93833  0.39296  Biso   1.000  C
  C85      1.0000 0.59347  0.80243  0.32150  Biso   1.000  C
  H53      1.0000 0.56237  0.83443  0.31323  Biso   1.000  H
  H54      1.0000 0.61457  0.77133  0.33433  Biso   1.000  H
  C86      1.0000 0.51017  0.94123  0.40355  Biso   1.000  C
  H55      1.0000 0.53697  0.90913  0.41363  Biso   1.000  H
  H56      1.0000 0.47977  0.96273  0.39103  Biso   1.000  H
  C87      1.0000 0.62697  0.80843  0.31151  Biso   1.000  C
  C88      1.0000 0.52547  0.98313  0.41169  Biso   1.000  C
  H57      1.0000 0.65877  0.82743  0.31473  Biso   1.000  H
  H58      1.0000 0.62257  0.77793  0.30903  Biso   1.000  H
  O22      1.0000 0.62057  0.82983  0.30107  Biso   1.000  O
  H59      1.0000 0.54237  0.01143  0.40653  Biso   1.000  H
  H60      1.0000 0.49837  0.98293  0.41553  Biso   1.000  H
  O23      1.0000 0.55417  0.98223  0.42120  Biso   1.000  O
  C89      1.0000 0.65697  0.85103  0.29254  Biso   1.000  C
  C90      1.0000 0.57437  0.01883  0.42881  Biso   1.000  C
  C91      1.0000 0.69117  0.83883  0.29226  Biso   1.000  C
  C92      1.0000 0.64847  0.87143  0.28155  Biso   1.000  C
  C93      1.0000 0.56347  0.05293  0.42891  Biso   1.000  C
  C94      1.0000 0.59787  0.01333  0.43968  Biso   1.000  C
  H61      1.0000 0.69017  0.81623  0.29793  Biso   1.000  H
  C95      1.0000 0.72697  0.86053  0.28349  Biso   1.000  C
  C96      1.0000 0.68357  0.89153  0.27324  Biso   1.000  C
  C97      1.0000 0.61047  0.88023  0.27913  Biso   1.000  C
  C98      1.0000 0.58507  0.08873  0.43833  Biso   1.000  C
  H62      1.0000 0.54237  0.05313  0.42293  Biso   1.000  H
  C99      1.0000 0.61927  0.04743  0.44854  Biso   1.000  C
  C100     1.0000 0.61007  0.97693  0.44148  Biso   1.000  C
  H63      1.0000 0.75457  0.85923  0.28443  Biso   1.000  H
  C101     1.0000 0.72107  0.88483  0.27302  Biso   1.000  C
  C102     1.0000 0.67527  0.92133  0.26359  Biso   1.000  C
  H64      1.0000 0.58487  0.86463  0.28543  Biso   1.000  H
  C103     1.0000 0.59567  0.86713  0.26683  Biso   1.000  C
  C104     1.0000 0.63317  0.93093  0.27983  Biso   1.000  C
  C105     1.0000 0.61217  0.08313  0.44873  Biso   1.000  C
  H65      1.0000 0.58207  0.11543  0.43793  Biso   1.000  H
  C106     1.0000 0.64927  0.04453  0.45770  Biso   1.000  C
  H66      1.0000 0.59537  0.95173  0.43503  Biso   1.000  H
  C107     1.0000 0.65877  0.99723  0.44188  Biso   1.000  C
  C108     1.0000 0.59177  0.96013  0.45524  Biso   1.000  C
  O24      1.0000 0.75327  0.90583  0.26427  Biso   1.000  O
  H67      1.0000 0.70047  0.93683  0.25713  Biso   1.000  H
  C109     1.0000 0.62847  0.88653  0.25783  Biso   1.000  C
  C110     1.0000 0.66687  0.95343  0.27093  Biso   1.000  C
  C111     1.0000 0.55127  0.83703  0.26273  Biso   1.000  C
  C112     1.0000 0.62087  0.95663  0.28783  Biso   1.000  C
  O25      1.0000 0.62927  0.12023  0.45751  Biso   1.000  O
  H68      1.0000 0.66547  0.07213  0.46333  Biso   1.000  H
  C113     1.0000 0.68037  0.03323  0.45059  Biso   1.000  C
  C114     1.0000 0.61437  0.99933  0.46471  Biso   1.000  C
  C115     1.0000 0.68677  0.98553  0.43470  Biso   1.000  C
  C116     1.0000 0.56187  0.91563  0.45897  Biso   1.000  C
  C117     1.0000 0.78667  0.89783  0.26338  Biso   1.000  C
  C118     1.0000 0.61597  0.87403  0.24383  Biso   1.000  C
  C119     1.0000 0.69037  0.99623  0.26916  Biso   1.000  C
  C120     1.0000 0.54437  0.82503  0.24733  Biso   1.000  C
  H69      1.0000 0.52597  0.82393  0.26843  Biso   1.000  H
  C121     1.0000 0.64487  0.00193  0.28693  Biso   1.000  C
  H70      1.0000 0.59617  0.94183  0.29373  Biso   1.000  H
  C122     1.0000 0.61117  0.14903  0.45890  Biso   1.000  C
  C123     1.0000 0.72527  0.05503  0.45193  Biso   1.000  C
  C124     1.0000 0.60347  0.98883  0.47711  Biso   1.000  C
  H71      1.0000 0.67217  0.95983  0.42913  Biso   1.000  H
  C125     1.0000 0.73337  0.00863  0.43523  Biso   1.000  C
  H72      1.0000 0.54787  0.89123  0.45303  Biso   1.000  H
  C126     1.0000 0.55277  0.90773  0.47197  Biso   1.000  C
  H73      1.0000 0.77357  0.86423  0.26223  Biso   1.000  H
  H74      1.0000 0.80347  0.90623  0.27153  Biso   1.000  H
  C127     1.0000 0.82097  0.92233  0.25302  Biso   1.000  C
  H75      1.0000 0.63917  0.88833  0.23753  Biso   1.000  H
  C128     1.0000 0.57247  0.84293  0.24033  Biso   1.000  C
  H76      1.0000 0.71447  0.00833  0.26303  Biso   1.000  H
  C129     1.0000 0.68057  0.02703  0.27633  Biso   1.000  C
  H77      1.0000 0.51497  0.80183  0.24443  Biso   1.000  H
  H78      1.0000 0.63997  0.01983  0.29303  Biso   1.000  H
  H79      1.0000 0.57707  0.13073  0.45933  Biso   1.000  H
  H80      1.0000 0.61987  0.17033  0.45163  Biso   1.000  H
  C130     1.0000 0.63007  0.17513  0.47063  Biso   1.000  C
  C131     1.0000 0.75107  0.04143  0.44453  Biso   1.000  C
  H81      1.0000 0.74007  0.07983  0.45773  Biso   1.000  H
  C132     1.0000 0.57237  0.94653  0.48084  Biso   1.000  C
  H82      1.0000 0.61847  0.01233  0.48333  Biso   1.000  H
  H83      1.0000 0.75207  0.00273  0.42963  Biso   1.000  H
  H84      1.0000 0.53397  0.87723  0.47503  Biso   1.000  H
  C133     1.0000 0.80947  0.94363  0.24375  Biso   1.000  C
  C134     1.0000 0.86457  0.92553  0.25186  Biso   1.000  C
  H85      1.0000 0.56587  0.83623  0.23163  Biso   1.000  H
  H86      1.0000 0.69467  0.05923  0.27473  Biso   1.000  H
  C135     1.0000 0.61937  0.21033  0.47453  Biso   1.000  C
  C136     1.0000 0.65187  0.16473  0.47913  Biso   1.000  C
  H87      1.0000 0.78327  0.05593  0.44613  Biso   1.000  H
  H88      1.0000 0.56267  0.94143  0.48943  Biso   1.000  H
  H89      1.0000 0.78067  0.94253  0.24433  Biso   1.000  H
  C137     1.0000 0.83807  0.96683  0.23342  Biso   1.000  C
  C138     1.0000 0.89147  0.94793  0.24171  Biso   1.000  C
  H90      1.0000 0.87497  0.91233  0.25813  Biso   1.000  H
  H91      1.0000 0.60247  0.21983  0.46933  Biso   1.000  H
  C139     1.0000 0.63567  0.22933  0.48661  Biso   1.000  C
  C140     1.0000 0.67397  0.19173  0.49112  Biso   1.000  C
  H92      1.0000 0.65407  0.13783  0.47773  Biso   1.000  H
  H93      1.0000 0.82847  0.98003  0.22703  Biso   1.000  H
  C141     1.0000 0.88197  0.96993  0.23292  Biso   1.000  C
  H94      1.0000 0.91957  0.94763  0.24083  Biso   1.000  H
  H95      1.0000 0.62647  0.25053  0.48933  Biso   1.000  H
  C142     1.0000 0.66087  0.22303  0.49450  Biso   1.000  C
  H96      1.0000 0.69537  0.18733  0.49593  Biso   1.000  H
  C143     1.0000 0.91397  0.99683  0.22253  Biso   1.000  C
  C144     1.0000 0.68207  0.25173  0.50523  Biso   1.000  C
  O26      1.0000 0.66007  0.26983  0.50912  Biso   1.000  O
  Zn5      1.0000 0.11231  0.06788  0.70629  Biso   1.000  Zn
  O27      1.0000 0.05553  0.04837  0.69764  Biso   1.000  O
  O28      1.0000 0.15903  0.08517  0.69301  Biso   1.000  O
  O29      1.0000 0.12973  0.12177  0.71581  Biso   1.000  O
  O30      1.0000 0.11733  0.02607  0.71672  Biso   1.000  O
  Zn6      1.0000 0.07243  0.10837  0.69007  Biso   1.000  Zn
  C145     1.0000 0.15563  0.10797  0.68396  Biso   1.000  C
  C146     1.0000 0.11903  0.15317  0.71234  Biso   1.000  C
  O31      1.0000 0.12913  0.12257  0.68133  Biso   1.000  O
  O32      1.0000 0.09303  0.15217  0.70349  Biso   1.000  O
  O33      1.0000 0.04223  0.12757  0.67815  Biso   1.000  O
  O34      1.0000 0.01263  0.05457  0.72056  Biso   1.000  O
  C147     1.0000 0.19273  0.11747  0.67374  Biso   1.000  C
  C148     1.0000 0.13803  0.19477  0.72129  Biso   1.000  C
  C149     1.0000 0.19513  0.14157  0.66223  Biso   1.000  C
  C150     1.0000 0.22483  0.10487  0.67489  Biso   1.000  C
  C151     1.0000 0.16633  0.20027  0.73236  Biso   1.000  C
  C152     1.0000 0.13453  0.23237  0.71794  Biso   1.000  C
  C153     1.0000 0.22753  0.15027  0.65384  Biso   1.000  C
  H97      1.0000 0.17333  0.15117  0.66067  Biso   1.000  H
  H98      1.0000 0.22413  0.08857  0.68237  Biso   1.000  H
  C154     1.0000 0.25893  0.11367  0.66607  Biso   1.000  C
  C155     1.0000 0.18513  0.23977  0.73984  Biso   1.000  C
  H99      1.0000 0.17213  0.17607  0.73457  Biso   1.000  H
  H100     1.0000 0.12053  0.23267  0.71017  Biso   1.000  H
  C156     1.0000 0.15213  0.27167  0.72630  Biso   1.000  C
  C157     1.0000 0.26013  0.13577  0.65484  Biso   1.000  C
  H101     1.0000 0.22903  0.16777  0.64657  Biso   1.000  H
  H102     1.0000 0.28123  0.10467  0.66767  Biso   1.000  H
  C158     1.0000 0.17683  0.27457  0.73689  Biso   1.000  C
  H103     1.0000 0.20363  0.24247  0.74697  Biso   1.000  H
  H104     1.0000 0.14643  0.29607  0.72437  Biso   1.000  H
  C159     1.0000 0.29363  0.14177  0.64485  Biso   1.000  C
  C160     1.0000 0.19213  0.31647  0.74503  Biso   1.000  C
  H105     1.0000 0.32543  0.16077  0.64807  Biso   1.000  H
  H106     1.0000 0.28923  0.11127  0.64237  Biso   1.000  H
  O35      1.0000 0.28723  0.16317  0.63441  Biso   1.000  O
  H107     1.0000 0.20903  0.34477  0.73987  Biso   1.000  H
  H108     1.0000 0.16503  0.31627  0.74887  Biso   1.000  H
  O36      1.0000 0.22083  0.31557  0.75454  Biso   1.000  O
  C161     1.0000 0.32363  0.18437  0.62588  Biso   1.000  C
  C162     1.0000 0.24103  0.35217  0.76215  Biso   1.000  C
  C163     1.0000 0.35783  0.17217  0.62560  Biso   1.000  C
  C164     1.0000 0.31513  0.20477  0.61489  Biso   1.000  C
  C165     1.0000 0.23013  0.38627  0.76225  Biso   1.000  C
  C166     1.0000 0.26453  0.34667  0.77302  Biso   1.000  C
  H109     1.0000 0.35683  0.14957  0.63127  Biso   1.000  H
  C167     1.0000 0.39363  0.19387  0.61683  Biso   1.000  C
  C168     1.0000 0.35023  0.22487  0.60658  Biso   1.000  C
  C169     1.0000 0.27713  0.21357  0.61247  Biso   1.000  C
  C170     1.0000 0.25173  0.42207  0.77167  Biso   1.000  C
  H110     1.0000 0.20903  0.38647  0.75627  Biso   1.000  H
  C171     1.0000 0.28593  0.38077  0.78188  Biso   1.000  C
  C172     1.0000 0.27673  0.31027  0.77482  Biso   1.000  C
  H111     1.0000 0.42123  0.19257  0.61777  Biso   1.000  H
  C173     1.0000 0.38773  0.21817  0.60636  Biso   1.000  C
  C174     1.0000 0.34193  0.25467  0.59693  Biso   1.000  C
  H112     1.0000 0.25153  0.19797  0.61877  Biso   1.000  H
  C175     1.0000 0.26233  0.20047  0.60017  Biso   1.000  C
  C176     1.0000 0.29983  0.26427  0.61317  Biso   1.000  C
  C177     1.0000 0.27883  0.41647  0.78207  Biso   1.000  C
  H113     1.0000 0.24873  0.44877  0.77127  Biso   1.000  H
  C178     1.0000 0.31593  0.37787  0.79104  Biso   1.000  C
  H114     1.0000 0.26203  0.28507  0.76837  Biso   1.000  H
  C179     1.0000 0.32543  0.33057  0.77522  Biso   1.000  C
  C180     1.0000 0.25843  0.29347  0.78858  Biso   1.000  C
  O37      1.0000 0.41993  0.23917  0.59761  Biso   1.000  O
  H115     1.0000 0.36713  0.27017  0.59047  Biso   1.000  H
  C181     1.0000 0.29513  0.21987  0.59117  Biso   1.000  C
  C182     1.0000 0.33353  0.28677  0.60427  Biso   1.000  C
  C183     1.0000 0.21793  0.17037  0.59607  Biso   1.000  C
  C184     1.0000 0.28753  0.28997  0.62117  Biso   1.000  C
  O38      1.0000 0.29593  0.45357  0.79085  Biso   1.000  O
  H116     1.0000 0.33213  0.40547  0.79667  Biso   1.000  H
  C185     1.0000 0.34703  0.36657  0.78393  Biso   1.000  C
  C186     1.0000 0.28103  0.33267  0.79805  Biso   1.000  C
  C187     1.0000 0.35343  0.31887  0.76804  Biso   1.000  C
  C188     1.0000 0.22853  0.24897  0.79231  Biso   1.000  C
  C189     1.0000 0.45333  0.23117  0.59672  Biso   1.000  C
  C190     1.0000 0.28263  0.20737  0.57717  Biso   1.000  C
  C191     1.0000 0.35703  0.32957  0.60250  Biso   1.000  C
  C192     1.0000 0.21103  0.15837  0.58067  Biso   1.000  C
  H117     1.0000 0.19263  0.15727  0.60177  Biso   1.000  H
  C193     1.0000 0.31153  0.33527  0.62027  Biso   1.000  C
  H118     1.0000 0.26283  0.27517  0.62707  Biso   1.000  H
  C194     1.0000 0.27783  0.48237  0.79224  Biso   1.000  C
  C195     1.0000 0.39193  0.38837  0.78527  Biso   1.000  C
  C196     1.0000 0.27013  0.32217  0.81045  Biso   1.000  C
  H119     1.0000 0.33883  0.29317  0.76247  Biso   1.000  H
  C197     1.0000 0.40003  0.34197  0.76857  Biso   1.000  C
  H120     1.0000 0.21453  0.22457  0.78637  Biso   1.000  H
  C198     1.0000 0.21943  0.24107  0.80531  Biso   1.000  C
  H121     1.0000 0.44023  0.19757  0.59557  Biso   1.000  H
  H122     1.0000 0.47013  0.23957  0.60487  Biso   1.000  H
  C199     1.0000 0.48763  0.25567  0.58636  Biso   1.000  C
  H123     1.0000 0.30583  0.22167  0.57087  Biso   1.000  H
  C200     1.0000 0.23913  0.17627  0.57367  Biso   1.000  C
  H124     1.0000 0.38113  0.34167  0.59637  Biso   1.000  H
  C201     1.0000 0.34723  0.36037  0.60967  Biso   1.000  C
  H125     1.0000 0.18163  0.13517  0.57777  Biso   1.000  H
  H126     1.0000 0.30663  0.35317  0.62637  Biso   1.000  H
  H127     1.0000 0.24373  0.46407  0.79267  Biso   1.000  H
  H128     1.0000 0.28653  0.50367  0.78497  Biso   1.000  H
  C202     1.0000 0.29673  0.50847  0.80397  Biso   1.000  C
  C203     1.0000 0.41773  0.37477  0.77787  Biso   1.000  C
  H129     1.0000 0.40673  0.41317  0.79107  Biso   1.000  H
  C204     1.0000 0.23903  0.27987  0.81418  Biso   1.000  C
  H130     1.0000 0.28513  0.34567  0.81667  Biso   1.000  H
  H131     1.0000 0.41873  0.33607  0.76297  Biso   1.000  H
  H132     1.0000 0.20063  0.21057  0.80837  Biso   1.000  H
  C205     1.0000 0.47613  0.27697  0.57709  Biso   1.000  C
  C206     1.0000 0.53123  0.25887  0.58520  Biso   1.000  C
  H133     1.0000 0.23253  0.16957  0.56497  Biso   1.000  H
  H134     1.0000 0.36133  0.39257  0.60807  Biso   1.000  H
  C207     1.0000 0.28603  0.54367  0.80787  Biso   1.000  C
  C208     1.0000 0.31853  0.49807  0.81247  Biso   1.000  C
  H135     1.0000 0.44993  0.38927  0.77947  Biso   1.000  H
  H136     1.0000 0.22933  0.27477  0.82277  Biso   1.000  H
  H137     1.0000 0.44733  0.27587  0.57767  Biso   1.000  H
  C209     1.0000 0.50473  0.30017  0.56676  Biso   1.000  C
  C210     1.0000 0.55813  0.28127  0.57505  Biso   1.000  C
  H138     1.0000 0.54163  0.24567  0.59147  Biso   1.000  H
  H139     1.0000 0.26913  0.55317  0.80267  Biso   1.000  H
  C211     1.0000 0.30233  0.56267  0.81995  Biso   1.000  C
  C212     1.0000 0.34063  0.52507  0.82446  Biso   1.000  C
  H140     1.0000 0.32073  0.47117  0.81107  Biso   1.000  H
  H141     1.0000 0.49513  0.31337  0.56037  Biso   1.000  H
  C213     1.0000 0.54863  0.30327  0.56626  Biso   1.000  C
  H142     1.0000 0.58623  0.28097  0.57417  Biso   1.000  H
  H143     1.0000 0.29313  0.58387  0.82267  Biso   1.000  H
  C214     1.0000 0.32753  0.55637  0.82784  Biso   1.000  C
  H144     1.0000 0.36203  0.52067  0.82927  Biso   1.000  H
  C215     1.0000 0.58063  0.33017  0.55587  Biso   1.000  C
  C216     1.0000 0.34873  0.58507  0.83857  Biso   1.000  C
  O39      1.0000 0.32673  0.60317  0.84246  Biso   1.000  O
  Zn7      1.0000 0.59879  0.37777  0.03962  Biso   1.000  Zn
  O40      1.0000 0.61830  0.34050  0.03097  Biso   1.000  O
  O41      1.0000 0.58150  0.40720  0.02634  Biso   1.000  O
  O42      1.0000 0.54490  0.34130  0.04914  Biso   1.000  O
  O43      1.0000 0.64060  0.42460  0.05005  Biso   1.000  O
  Zn8      1.0000 0.55830  0.29740  0.02340  Biso   1.000  Zn
  C217     1.0000 0.55870  0.38100  0.01729  Biso   1.000  C
  C218     1.0000 0.51350  0.29920  0.04567  Biso   1.000  C
  O44      1.0000 0.54410  0.33990  0.01466  Biso   1.000  O
  O45      1.0000 0.51450  0.27420  0.03682  Biso   1.000  O
  O46      1.0000 0.53910  0.24800  0.01148  Biso   1.000  O
  O47      1.0000 0.61210  0.29140  0.05389  Biso   1.000  O
  C219     1.0000 0.54920  0.40860  0.00707  Biso   1.000  C
  C220     1.0000 0.47190  0.27660  0.05462  Biso   1.000  C
  C221     1.0000 0.52510  0.38690  0.99556  Biso   1.000  C
  C222     1.0000 0.56180  0.45330  0.00822  Biso   1.000  C
  C223     1.0000 0.46640  0.29940  0.06569  Biso   1.000  C
  C224     1.0000 0.43430  0.23550  0.05127  Biso   1.000  C
  C225     1.0000 0.51640  0.41060  0.98717  Biso   1.000  C
  H145     1.0000 0.51550  0.35550  0.99400  Biso   1.000  H
  H146     1.0000 0.57810  0.46890  0.01570  Biso   1.000  H
  C226     1.0000 0.55300  0.47860  0.99940  Biso   1.000  C
  C227     1.0000 0.42690  0.27870  0.07317  Biso   1.000  C
  H147     1.0000 0.49060  0.32940  0.06790  Biso   1.000  H
  H148     1.0000 0.43400  0.22120  0.04350  Biso   1.000  H
  C228     1.0000 0.39500  0.21380  0.05963  Biso   1.000  C
  C229     1.0000 0.53090  0.45770  0.98817  Biso   1.000  C
  H149     1.0000 0.49890  0.39460  0.97990  Biso   1.000  H
  H150     1.0000 0.56200  0.50990  0.00100  Biso   1.000  H
  C230     1.0000 0.39210  0.23560  0.07022  Biso   1.000  C
  H151     1.0000 0.42420  0.29450  0.08030  Biso   1.000  H
  H152     1.0000 0.37060  0.18370  0.05770  Biso   1.000  H
  C231     1.0000 0.52490  0.48520  0.97818  Biso   1.000  C
  C232     1.0000 0.35020  0.20900  0.07836  Biso   1.000  C
  H153     1.0000 0.50590  0.49800  0.98140  Biso   1.000  H
  H154     1.0000 0.55540  0.51130  0.97570  Biso   1.000  H
  O48      1.0000 0.50350  0.45740  0.96774  Biso   1.000  O
  H155     1.0000 0.32190  0.19760  0.07320  Biso   1.000  H
  H156     1.0000 0.35040  0.18210  0.08220  Biso   1.000  H
  O49      1.0000 0.35110  0.23860  0.08787  Biso   1.000  O
  C233     1.0000 0.48230  0.47260  0.95921  Biso   1.000  C
  C234     1.0000 0.31450  0.22220  0.09548  Biso   1.000  C
  C235     1.0000 0.49450  0.51900  0.95893  Biso   1.000  C
  C236     1.0000 0.46190  0.44370  0.94822  Biso   1.000  C
  C237     1.0000 0.28040  0.17720  0.09558  Biso   1.000  C
  C238     1.0000 0.32000  0.25120  0.10635  Biso   1.000  C
  H157     1.0000 0.51710  0.54060  0.96460  Biso   1.000  H
  C239     1.0000 0.47280  0.53310  0.95016  Biso   1.000  C
  C240     1.0000 0.44180  0.45870  0.93991  Biso   1.000  C
  C241     1.0000 0.45310  0.39690  0.94580  Biso   1.000  C
  C242     1.0000 0.24460  0.16300  0.10500  Biso   1.000  C
  H158     1.0000 0.28020  0.15590  0.08960  Biso   1.000  H
  C243     1.0000 0.28590  0.23850  0.11521  Biso   1.000  C
  C244     1.0000 0.35640  0.29980  0.10815  Biso   1.000  C
  H159     1.0000 0.47410  0.56200  0.95110  Biso   1.000  H
  C245     1.0000 0.44850  0.50290  0.93969  Biso   1.000  C
  C246     1.0000 0.41200  0.42060  0.93026  Biso   1.000  C
  H160     1.0000 0.46870  0.38690  0.95210  Biso   1.000  H
  C247     1.0000 0.46620  0.39520  0.93350  Biso   1.000  C
  C248     1.0000 0.40240  0.36890  0.94650  Biso   1.000  C
  C249     1.0000 0.25020  0.19570  0.11540  Biso   1.000  C
  H161     1.0000 0.21790  0.13330  0.10460  Biso   1.000  H
  C250     1.0000 0.28880  0.27140  0.12437  Biso   1.000  C
  H162     1.0000 0.38160  0.31030  0.10170  Biso   1.000  H
  C251     1.0000 0.33610  0.32820  0.10855  Biso   1.000  C
  C252     1.0000 0.37320  0.29830  0.12191  Biso   1.000  C
  O50      1.0000 0.42750  0.51410  0.93094  Biso   1.000  O
  H163     1.0000 0.39650  0.43030  0.92380  Biso   1.000  H
  C253     1.0000 0.44680  0.40860  0.92450  Biso   1.000  C
  C254     1.0000 0.37990  0.38010  0.93760  Biso   1.000  C
  C255     1.0000 0.49630  0.38090  0.92940  Biso   1.000  C
  C256     1.0000 0.37670  0.33090  0.95450  Biso   1.000  C
  O51      1.0000 0.21310  0.17570  0.12418  Biso   1.000  O
  H164     1.0000 0.26120  0.26000  0.13000  Biso   1.000  H
  C257     1.0000 0.30010  0.31380  0.11726  Biso   1.000  C
  C258     1.0000 0.33400  0.28170  0.13138  Biso   1.000  C
  C259     1.0000 0.34780  0.36790  0.10137  Biso   1.000  C
  C260     1.0000 0.41770  0.31290  0.12564  Biso   1.000  C
  C261     1.0000 0.43550  0.55550  0.93005  Biso   1.000  C
  C262     1.0000 0.45930  0.40860  0.91050  Biso   1.000  C
  C263     1.0000 0.33710  0.36080  0.93583  Biso   1.000  C
  C264     1.0000 0.50830  0.38600  0.91400  Biso   1.000  C
  H165     1.0000 0.50940  0.36870  0.93510  Biso   1.000  H
  C265     1.0000 0.33140  0.30960  0.95360  Biso   1.000  C
  H166     1.0000 0.39150  0.32100  0.96040  Biso   1.000  H
  C266     1.0000 0.18430  0.12880  0.12557  Biso   1.000  C
  C267     1.0000 0.27830  0.33690  0.11860  Biso   1.000  C
  C268     1.0000 0.34450  0.28130  0.14378  Biso   1.000  C
  H167     1.0000 0.37350  0.37900  0.09580  Biso   1.000  H
  C269     1.0000 0.32470  0.39140  0.10190  Biso   1.000  C
  H168     1.0000 0.44210  0.32330  0.11970  Biso   1.000  H
  C270     1.0000 0.42560  0.31170  0.13864  Biso   1.000  C
  H169     1.0000 0.46910  0.57600  0.92890  Biso   1.000  H
  H170     1.0000 0.42710  0.56390  0.93820  Biso   1.000  H
  C271     1.0000 0.41100  0.56530  0.91969  Biso   1.000  C
  H171     1.0000 0.44500  0.41750  0.90420  Biso   1.000  H
  C272     1.0000 0.49040  0.39620  0.90700  Biso   1.000  C
  H172     1.0000 0.32500  0.37280  0.92970  Biso   1.000  H
  C273     1.0000 0.30630  0.32020  0.94300  Biso   1.000  C
  H173     1.0000 0.53150  0.37980  0.91110  Biso   1.000  H
  H174     1.0000 0.31350  0.28680  0.95970  Biso   1.000  H
  H175     1.0000 0.20260  0.11300  0.12600  Biso   1.000  H
  H176     1.0000 0.16300  0.11620  0.11830  Biso   1.000  H
  C274     1.0000 0.15820  0.12160  0.13730  Biso   1.000  C
  C275     1.0000 0.29190  0.37630  0.11120  Biso   1.000  C
  H177     1.0000 0.25350  0.32690  0.12440  Biso   1.000  H
  C276     1.0000 0.38680  0.29250  0.14751  Biso   1.000  C
  H178     1.0000 0.32100  0.27280  0.15000  Biso   1.000  H
  H179     1.0000 0.33060  0.41600  0.09630  Biso   1.000  H
  H180     1.0000 0.45610  0.32340  0.14170  Biso   1.000  H
  C277     1.0000 0.38970  0.53250  0.91042  Biso   1.000  C
  C278     1.0000 0.40780  0.60570  0.91853  Biso   1.000  C
  H181     1.0000 0.49710  0.39630  0.89830  Biso   1.000  H
  H182     1.0000 0.27410  0.30210  0.94140  Biso   1.000  H
  C279     1.0000 0.12300  0.07570  0.14120  Biso   1.000  C
  C280     1.0000 0.16860  0.15380  0.14580  Biso   1.000  C
  H183     1.0000 0.27740  0.39400  0.11280  Biso   1.000  H
  H184     1.0000 0.39190  0.28790  0.15610  Biso   1.000  H
  H185     1.0000 0.39080  0.50480  0.91100  Biso   1.000  H
  C281     1.0000 0.36650  0.53790  0.90009  Biso   1.000  C
  C282     1.0000 0.38540  0.61020  0.90838  Biso   1.000  C
  H186     1.0000 0.42100  0.62930  0.92480  Biso   1.000  H
  H187     1.0000 0.11350  0.04930  0.13600  Biso   1.000  H
  C283     1.0000 0.10400  0.07300  0.15328  Biso   1.000  C
  C284     1.0000 0.14160  0.14890  0.15779  Biso   1.000  C
  H188     1.0000 0.19550  0.18290  0.14440  Biso   1.000  H
  H189     1.0000 0.35330  0.51510  0.89370  Biso   1.000  H
  C285     1.0000 0.36340  0.57870  0.89959  Biso   1.000  C
  H190     1.0000 0.38570  0.63860  0.90750  Biso   1.000  H
  H191     1.0000 0.08280  0.04260  0.15600  Biso   1.000  H
  C286     1.0000 0.11030  0.10450  0.16117  Biso   1.000  C
  H192     1.0000 0.14600  0.17470  0.16260  Biso   1.000  H
  C287     1.0000 0.33650  0.58380  0.88920  Biso   1.000  C
  C288     1.0000 0.08160  0.09700  0.17190  Biso   1.000  C
  O52      1.0000 0.06350  0.05690  0.17579  Biso   1.000  O
  Zn9      1.0000 0.26546  0.71110  0.37295  Biso   1.000  Zn
  O53      1.0000 0.28497  0.67383  0.36430  Biso   1.000  O
  O54      1.0000 0.24817  0.74053  0.35967  Biso   1.000  O
  O55      1.0000 0.21157  0.67463  0.38247  Biso   1.000  O
  O56      1.0000 0.30727  0.75793  0.38338  Biso   1.000  O
  Zn10     1.0000 0.22497  0.63073  0.35673  Biso   1.000  Zn
  C289     1.0000 0.22537  0.71433  0.35062  Biso   1.000  C
  C290     1.0000 0.18017  0.63253  0.37900  Biso   1.000  C
  O57      1.0000 0.21077  0.67323  0.34799  Biso   1.000  O
  O58      1.0000 0.18117  0.60753  0.37015  Biso   1.000  O
  O59      1.0000 0.20577  0.58133  0.34481  Biso   1.000  O
  O60      1.0000 0.27877  0.62473  0.38722  Biso   1.000  O
  C291     1.0000 0.21587  0.74193  0.34040  Biso   1.000  C
  C292     1.0000 0.13857  0.60993  0.38795  Biso   1.000  C
  C293     1.0000 0.19177  0.72023  0.32889  Biso   1.000  C
  C294     1.0000 0.22847  0.78663  0.34155  Biso   1.000  C
  C295     1.0000 0.13307  0.63273  0.39902  Biso   1.000  C
  C296     1.0000 0.10097  0.56883  0.38460  Biso   1.000  C
  C297     1.0000 0.18307  0.74393  0.32050  Biso   1.000  C
  H193     1.0000 0.18217  0.68883  0.32733  Biso   1.000  H
  H194     1.0000 0.24477  0.80223  0.34903  Biso   1.000  H
  C298     1.0000 0.21967  0.81193  0.33273  Biso   1.000  C
  C299     1.0000 0.09357  0.61203  0.40650  Biso   1.000  C
  H195     1.0000 0.15727  0.66273  0.40123  Biso   1.000  H
  H196     1.0000 0.10067  0.55453  0.37683  Biso   1.000  H
  C300     1.0000 0.06167  0.54713  0.39296  Biso   1.000  C
  C301     1.0000 0.19757  0.79103  0.32150  Biso   1.000  C
  H197     1.0000 0.16557  0.72793  0.31323  Biso   1.000  H
  H198     1.0000 0.22867  0.84323  0.33433  Biso   1.000  H
  C302     1.0000 0.05877  0.56893  0.40355  Biso   1.000  C
  H199     1.0000 0.09087  0.62783  0.41363  Biso   1.000  H
  H200     1.0000 0.03727  0.51703  0.39103  Biso   1.000  H
  C303     1.0000 0.19157  0.81853  0.31151  Biso   1.000  C
  C304     1.0000 0.01687  0.54233  0.41169  Biso   1.000  C
  H201     1.0000 0.17257  0.83133  0.31473  Biso   1.000  H
  H202     1.0000 0.22207  0.84463  0.30903  Biso   1.000  H
  O61      1.0000 0.17017  0.79073  0.30107  Biso   1.000  O
  H203     1.0000 0.98857  0.53093  0.40653  Biso   1.000  H
  H204     1.0000 0.01707  0.51543  0.41553  Biso   1.000  H
  O62      1.0000 0.01777  0.57193  0.42120  Biso   1.000  O
  C305     1.0000 0.14897  0.80593  0.29254  Biso   1.000  C
  C306     1.0000 0.98117  0.55553  0.42881  Biso   1.000  C
  C307     1.0000 0.16117  0.85233  0.29226  Biso   1.000  C
  C308     1.0000 0.12857  0.77703  0.28155  Biso   1.000  C
  C309     1.0000 0.94707  0.51053  0.42891  Biso   1.000  C
  C310     1.0000 0.98667  0.58453  0.43968  Biso   1.000  C
  H205     1.0000 0.18377  0.87393  0.29793  Biso   1.000  H
  C311     1.0000 0.13947  0.86643  0.28349  Biso   1.000  C
  C312     1.0000 0.10847  0.79203  0.27324  Biso   1.000  C
  C313     1.0000 0.11977  0.73023  0.27913  Biso   1.000  C
  C314     1.0000 0.91127  0.49633  0.43833  Biso   1.000  C
  H206     1.0000 0.94687  0.48923  0.42293  Biso   1.000  H
  C315     1.0000 0.95257  0.57183  0.44854  Biso   1.000  C
  C316     1.0000 0.02307  0.63313  0.44148  Biso   1.000  C
  H207     1.0000 0.14077  0.89533  0.28443  Biso   1.000  H
  C317     1.0000 0.11517  0.83623  0.27302  Biso   1.000  C
  C318     1.0000 0.07867  0.75393  0.26359  Biso   1.000  C
  H208     1.0000 0.13537  0.72023  0.28543  Biso   1.000  H
  C319     1.0000 0.13287  0.72853  0.26683  Biso   1.000  C
  C320     1.0000 0.06907  0.70223  0.27983  Biso   1.000  C
  C321     1.0000 0.91687  0.52903  0.44873  Biso   1.000  C
  H209     1.0000 0.88457  0.46663  0.43793  Biso   1.000  H
  C322     1.0000 0.95547  0.60473  0.45770  Biso   1.000  C
  H210     1.0000 0.04827  0.64363  0.43503  Biso   1.000  H
  C323     1.0000 0.00277  0.66153  0.44188  Biso   1.000  C
  C324     1.0000 0.03987  0.63163  0.45524  Biso   1.000  C
  O63      1.0000 0.09417  0.84743  0.26427  Biso   1.000  O
  H211     1.0000 0.06317  0.76363  0.25713  Biso   1.000  H
  C325     1.0000 0.11347  0.74193  0.25783  Biso   1.000  C
  C326     1.0000 0.04657  0.71343  0.27093  Biso   1.000  C
  C327     1.0000 0.16297  0.71423  0.26273  Biso   1.000  C
  C328     1.0000 0.04337  0.66423  0.28783  Biso   1.000  C
  O64      1.0000 0.87977  0.50903  0.45751  Biso   1.000  O
  H212     1.0000 0.92787  0.59333  0.46333  Biso   1.000  H
  C329     1.0000 0.96677  0.64713  0.45059  Biso   1.000  C
  C330     1.0000 0.00067  0.61503  0.46471  Biso   1.000  C
  C331     1.0000 0.01447  0.70123  0.43470  Biso   1.000  C
  C332     1.0000 0.08437  0.64623  0.45897  Biso   1.000  C
  C333     1.0000 0.10217  0.88883  0.26338  Biso   1.000  C
  C334     1.0000 0.12597  0.74193  0.24383  Biso   1.000  C
  C335     1.0000 0.00377  0.69413  0.26916  Biso   1.000  C
  C336     1.0000 0.17497  0.71933  0.24733  Biso   1.000  C
  H213     1.0000 0.17607  0.70203  0.26843  Biso   1.000  H
  C337     1.0000 0.99807  0.64293  0.28693  Biso   1.000  C
  H214     1.0000 0.05817  0.65433  0.29373  Biso   1.000  H
  C338     1.0000 0.85097  0.46213  0.45890  Biso   1.000  C
  C339     1.0000 0.94497  0.67023  0.45193  Biso   1.000  C
  C340     1.0000 0.01117  0.61463  0.47711  Biso   1.000  C
  H215     1.0000 0.04017  0.71233  0.42913  Biso   1.000  H
  C341     1.0000 0.99137  0.72473  0.43523  Biso   1.000  C
  H216     1.0000 0.10877  0.65663  0.45303  Biso   1.000  H
  C342     1.0000 0.09227  0.64503  0.47197  Biso   1.000  C
  H217     1.0000 0.13577  0.90933  0.26223  Biso   1.000  H
  H218     1.0000 0.09377  0.89723  0.27153  Biso   1.000  H
  C343     1.0000 0.07767  0.89863  0.25302  Biso   1.000  C
  H219     1.0000 0.11167  0.75083  0.23753  Biso   1.000  H
  C344     1.0000 0.15707  0.72953  0.24033  Biso   1.000  C
  H220     1.0000 0.99167  0.70613  0.26303  Biso   1.000  H
  C345     1.0000 0.97297  0.65353  0.27633  Biso   1.000  C
  H221     1.0000 0.19817  0.71313  0.24443  Biso   1.000  H
  H222     1.0000 0.98017  0.62013  0.29303  Biso   1.000  H
  H223     1.0000 0.86927  0.44633  0.45933  Biso   1.000  H
  H224     1.0000 0.82967  0.44953  0.45163  Biso   1.000  H
  C346     1.0000 0.82487  0.45493  0.47063  Biso   1.000  C
  C347     1.0000 0.95857  0.70963  0.44453  Biso   1.000  C
  H225     1.0000 0.92017  0.66023  0.45773  Biso   1.000  H
  C348     1.0000 0.05347  0.62583  0.48084  Biso   1.000  C
  H226     1.0000 0.98767  0.60613  0.48333  Biso   1.000  H
  H227     1.0000 0.99727  0.74933  0.42963  Biso   1.000  H
  H228     1.0000 0.12277  0.65673  0.47503  Biso   1.000  H
  C349     1.0000 0.05637  0.86583  0.24375  Biso   1.000  C
  C350     1.0000 0.07447  0.93903  0.25186  Biso   1.000  C
  H229     1.0000 0.16377  0.72963  0.23163  Biso   1.000  H
  H230     1.0000 0.94077  0.63543  0.27473  Biso   1.000  H
  C351     1.0000 0.78967  0.40903  0.47453  Biso   1.000  C
  C352     1.0000 0.83527  0.48713  0.47913  Biso   1.000  C
  H231     1.0000 0.94407  0.72733  0.44613  Biso   1.000  H
  H232     1.0000 0.05857  0.62123  0.48943  Biso   1.000  H
  H233     1.0000 0.05747  0.83813  0.24433  Biso   1.000  H
  C353     1.0000 0.03317  0.87123  0.23342  Biso   1.000  C
  C354     1.0000 0.05207  0.94353  0.24171  Biso   1.000  C
  H234     1.0000 0.08767  0.96263  0.25813  Biso   1.000  H
  H235     1.0000 0.78017  0.38263  0.46933  Biso   1.000  H
  C355     1.0000 0.77067  0.40633  0.48661  Biso   1.000  C
  C356     1.0000 0.80827  0.48223  0.49112  Biso   1.000  C
  H236     1.0000 0.86217  0.51623  0.47773  Biso   1.000  H
  H237     1.0000 0.01997  0.84843  0.22703  Biso   1.000  H
  C357     1.0000 0.03007  0.91203  0.23292  Biso   1.000  C
  H238     1.0000 0.05237  0.97193  0.24083  Biso   1.000  H
  H239     1.0000 0.74947  0.37593  0.48933  Biso   1.000  H
  C358     1.0000 0.77697  0.43783  0.49450  Biso   1.000  C
  H240     1.0000 0.81267  0.50803  0.49593  Biso   1.000  H
  C359     1.0000 0.00317  0.91713  0.22253  Biso   1.000  C
  C360     1.0000 0.74827  0.43033  0.50523  Biso   1.000  C
  O65      1.0000 0.73017  0.39023  0.50912  Biso   1.000  O
  Zn11     1.0000 0.93212  0.04444  0.70629  Biso   1.000  Zn
  O66      1.0000 0.95163  0.00717  0.69764  Biso   1.000  O
  O67      1.0000 0.91483  0.07387  0.69301  Biso   1.000  O
  O68      1.0000 0.87823  0.00797  0.71581  Biso   1.000  O
  O69      1.0000 0.97393  0.09127  0.71672  Biso   1.000  O
  Zn12     1.0000 0.89163  0.96407  0.69007  Biso   1.000  Zn
  C361     1.0000 0.89203  0.04767  0.68396  Biso   1.000  C
  C362     1.0000 0.84683  0.96587  0.71234  Biso   1.000  C
  O70      1.0000 0.87743  0.00657  0.68133  Biso   1.000  O
  O71      1.0000 0.84783  0.94087  0.70349  Biso   1.000  O
  O72      1.0000 0.87243  0.91467  0.67815  Biso   1.000  O
  O73      1.0000 0.94543  0.95807  0.72056  Biso   1.000  O
  C363     1.0000 0.88253  0.07527  0.67374  Biso   1.000  C
  C364     1.0000 0.80523  0.94327  0.72129  Biso   1.000  C
  C365     1.0000 0.85843  0.05357  0.66223  Biso   1.000  C
  C366     1.0000 0.89513  0.11997  0.67489  Biso   1.000  C
  C367     1.0000 0.79973  0.96607  0.73236  Biso   1.000  C
  C368     1.0000 0.76763  0.90217  0.71794  Biso   1.000  C
  C369     1.0000 0.84973  0.07727  0.65384  Biso   1.000  C
  H241     1.0000 0.84883  0.02217  0.66067  Biso   1.000  H
  H242     1.0000 0.91143  0.13557  0.68237  Biso   1.000  H
  C370     1.0000 0.88633  0.14527  0.66607  Biso   1.000  C
  C371     1.0000 0.76023  0.94537  0.73984  Biso   1.000  C
  H243     1.0000 0.82393  0.99607  0.73457  Biso   1.000  H
  H244     1.0000 0.76733  0.88787  0.71017  Biso   1.000  H
  C372     1.0000 0.72833  0.88047  0.72630  Biso   1.000  C
  C373     1.0000 0.86423  0.12437  0.65484  Biso   1.000  C
  H245     1.0000 0.83223  0.06127  0.64657  Biso   1.000  H
  H246     1.0000 0.89533  0.17657  0.66767  Biso   1.000  H
  C374     1.0000 0.72543  0.90227  0.73689  Biso   1.000  C
  H247     1.0000 0.75753  0.96117  0.74697  Biso   1.000  H
  H248     1.0000 0.70393  0.85037  0.72437  Biso   1.000  H
  C375     1.0000 0.85823  0.15187  0.64485  Biso   1.000  C
  C376     1.0000 0.68353  0.87567  0.74503  Biso   1.000  C
  H249     1.0000 0.83923  0.16467  0.64807  Biso   1.000  H
  H250     1.0000 0.88873  0.17797  0.64237  Biso   1.000  H
  O74      1.0000 0.83683  0.12407  0.63441  Biso   1.000  O
  H251     1.0000 0.65523  0.86427  0.73987  Biso   1.000  H
  H252     1.0000 0.68373  0.84877  0.74887  Biso   1.000  H
  O75      1.0000 0.68443  0.90527  0.75454  Biso   1.000  O
  C377     1.0000 0.81563  0.13927  0.62588  Biso   1.000  C
  C378     1.0000 0.64783  0.88887  0.76215  Biso   1.000  C
  C379     1.0000 0.82783  0.18567  0.62560  Biso   1.000  C
  C380     1.0000 0.79523  0.11037  0.61489  Biso   1.000  C
  C381     1.0000 0.61373  0.84387  0.76225  Biso   1.000  C
  C382     1.0000 0.65333  0.91787  0.77302  Biso   1.000  C
  H253     1.0000 0.85043  0.20727  0.63127  Biso   1.000  H
  C383     1.0000 0.80613  0.19977  0.61683  Biso   1.000  C
  C384     1.0000 0.77513  0.12537  0.60658  Biso   1.000  C
  C385     1.0000 0.78643  0.06357  0.61247  Biso   1.000  C
  C386     1.0000 0.57793  0.82967  0.77167  Biso   1.000  C
  H254     1.0000 0.61353  0.82257  0.75627  Biso   1.000  H
  C387     1.0000 0.61923  0.90517  0.78188  Biso   1.000  C
  C388     1.0000 0.68973  0.96647  0.77482  Biso   1.000  C
  H255     1.0000 0.80743  0.22867  0.61777  Biso   1.000  H
  C389     1.0000 0.78183  0.16957  0.60636  Biso   1.000  C
  C390     1.0000 0.74533  0.08727  0.59693  Biso   1.000  C
  H256     1.0000 0.80203  0.05357  0.61877  Biso   1.000  H
  C391     1.0000 0.79953  0.06187  0.60017  Biso   1.000  C
  C392     1.0000 0.73573  0.03557  0.61317  Biso   1.000  C
  C393     1.0000 0.58353  0.86237  0.78207  Biso   1.000  C
  H257     1.0000 0.55123  0.79997  0.77127  Biso   1.000  H
  C394     1.0000 0.62213  0.93807  0.79104  Biso   1.000  C
  H258     1.0000 0.71493  0.97697  0.76837  Biso   1.000  H
  C395     1.0000 0.66943  0.99487  0.77522  Biso   1.000  C
  C396     1.0000 0.70653  0.96497  0.78858  Biso   1.000  C
  O76      1.0000 0.76083  0.18077  0.59761  Biso   1.000  O
  H259     1.0000 0.72983  0.09697  0.59047  Biso   1.000  H
  C397     1.0000 0.78013  0.07527  0.59117  Biso   1.000  C
  C398     1.0000 0.71323  0.04677  0.60427  Biso   1.000  C
  C399     1.0000 0.82963  0.04757  0.59607  Biso   1.000  C
  C400     1.0000 0.71003  0.99757  0.62117  Biso   1.000  C
  O77      1.0000 0.54643  0.84237  0.79085  Biso   1.000  O
  H260     1.0000 0.59453  0.92667  0.79667  Biso   1.000  H
  C401     1.0000 0.63343  0.98047  0.78393  Biso   1.000  C
  C402     1.0000 0.66733  0.94837  0.79805  Biso   1.000  C
  C403     1.0000 0.68113  0.03457  0.76804  Biso   1.000  C
  C404     1.0000 0.75103  0.97957  0.79231  Biso   1.000  C
  C405     1.0000 0.76883  0.22217  0.59672  Biso   1.000  C
  C406     1.0000 0.79263  0.07527  0.57717  Biso   1.000  C
  C407     1.0000 0.67043  0.02747  0.60250  Biso   1.000  C
  C408     1.0000 0.84163  0.05267  0.58067  Biso   1.000  C
  H261     1.0000 0.84273  0.03537  0.60177  Biso   1.000  H
  C409     1.0000 0.66473  0.97627  0.62027  Biso   1.000  C
  H262     1.0000 0.72483  0.98767  0.62707  Biso   1.000  H
  C410     1.0000 0.51763  0.79547  0.79224  Biso   1.000  C
  C411     1.0000 0.61163  0.00357  0.78527  Biso   1.000  C
  C412     1.0000 0.67783  0.94797  0.81045  Biso   1.000  C
  H263     1.0000 0.70683  0.04567  0.76247  Biso   1.000  H
  C413     1.0000 0.65803  0.05807  0.76857  Biso   1.000  C
  H264     1.0000 0.77543  0.98997  0.78637  Biso   1.000  H
  C414     1.0000 0.75893  0.97837  0.80531  Biso   1.000  C
  H265     1.0000 0.80243  0.24267  0.59557  Biso   1.000  H
  H266     1.0000 0.76043  0.23057  0.60487  Biso   1.000  H
  C415     1.0000 0.74433  0.23197  0.58636  Biso   1.000  C
  H267     1.0000 0.77833  0.08417  0.57087  Biso   1.000  H
  C416     1.0000 0.82373  0.06287  0.57367  Biso   1.000  C
  H268     1.0000 0.65833  0.03947  0.59637  Biso   1.000  H
  C417     1.0000 0.63963  0.98687  0.60967  Biso   1.000  C
  H269     1.0000 0.86483  0.04647  0.57777  Biso   1.000  H
  H270     1.0000 0.64683  0.95347  0.62637  Biso   1.000  H
  H271     1.0000 0.53593  0.77967  0.79267  Biso   1.000  H
  H272     1.0000 0.49633  0.78287  0.78497  Biso   1.000  H
  C418     1.0000 0.49153  0.78827  0.80397  Biso   1.000  C
  C419     1.0000 0.62523  0.04297  0.77787  Biso   1.000  C
  H273     1.0000 0.58683  0.99357  0.79107  Biso   1.000  H
  C420     1.0000 0.72013  0.95917  0.81418  Biso   1.000  C
  H274     1.0000 0.65433  0.93947  0.81667  Biso   1.000  H
  H275     1.0000 0.66393  0.08267  0.76297  Biso   1.000  H
  H276     1.0000 0.78943  0.99007  0.80837  Biso   1.000  H
  C421     1.0000 0.72303  0.19917  0.57709  Biso   1.000  C
  C422     1.0000 0.74113  0.27237  0.58520  Biso   1.000  C
  H277     1.0000 0.83043  0.06297  0.56497  Biso   1.000  H
  H278     1.0000 0.60743  0.96877  0.60807  Biso   1.000  H
  C423     1.0000 0.45633  0.74237  0.80787  Biso   1.000  C
  C424     1.0000 0.50193  0.82047  0.81247  Biso   1.000  C
  H279     1.0000 0.61073  0.06067  0.77947  Biso   1.000  H
  H280     1.0000 0.72523  0.95457  0.82277  Biso   1.000  H
  H281     1.0000 0.72413  0.17147  0.57767  Biso   1.000  H
  C425     1.0000 0.69983  0.20457  0.56676  Biso   1.000  C
  C426     1.0000 0.71873  0.27687  0.57505  Biso   1.000  C
  H282     1.0000 0.75433  0.29597  0.59147  Biso   1.000  H
  H283     1.0000 0.44683  0.71597  0.80267  Biso   1.000  H
  C427     1.0000 0.43733  0.73967  0.81995  Biso   1.000  C
  C428     1.0000 0.47493  0.81557  0.82446  Biso   1.000  C
  H284     1.0000 0.52883  0.84957  0.81107  Biso   1.000  H
  H285     1.0000 0.68663  0.18177  0.56037  Biso   1.000  H
  C429     1.0000 0.69673  0.24537  0.56626  Biso   1.000  C
  H286     1.0000 0.71903  0.30527  0.57417  Biso   1.000  H
  H287     1.0000 0.41613  0.70927  0.82267  Biso   1.000  H
  C430     1.0000 0.44363  0.77117  0.82784  Biso   1.000  C
  H288     1.0000 0.47933  0.84137  0.82927  Biso   1.000  H
  C431     1.0000 0.66983  0.25047  0.55587  Biso   1.000  C
  C432     1.0000 0.41493  0.76367  0.83857  Biso   1.000  C
  O78      1.0000 0.39683  0.72357  0.84246  Biso   1.000  O
  Zn13     1.0000 0.62223  0.22102  0.03962  Biso   1.000  Zn
  O79      1.0000 0.65950  0.27780  0.03097  Biso   1.000  O
  O80      1.0000 0.59280  0.17430  0.02634  Biso   1.000  O
  O81      1.0000 0.65870  0.20360  0.04914  Biso   1.000  O
  O82      1.0000 0.57540  0.21600  0.05005  Biso   1.000  O
  Zn14     1.0000 0.70260  0.26090  0.02340  Biso   1.000  Zn
  C433     1.0000 0.61900  0.17770  0.01729  Biso   1.000  C
  C434     1.0000 0.70080  0.21430  0.04567  Biso   1.000  C
  O83      1.0000 0.66010  0.20420  0.01466  Biso   1.000  O
  O84      1.0000 0.72580  0.24030  0.03682  Biso   1.000  O
  O85      1.0000 0.75200  0.29110  0.01148  Biso   1.000  O
  O86      1.0000 0.70860  0.32070  0.05389  Biso   1.000  O
  C435     1.0000 0.59140  0.14060  0.00707  Biso   1.000  C
  C436     1.0000 0.72340  0.19530  0.05462  Biso   1.000  C
  C437     1.0000 0.61310  0.13820  0.99556  Biso   1.000  C
  C438     1.0000 0.54670  0.10850  0.00822  Biso   1.000  C
  C439     1.0000 0.70060  0.16700  0.06569  Biso   1.000  C
  C440     1.0000 0.76450  0.19880  0.05127  Biso   1.000  C
  C441     1.0000 0.58940  0.10580  0.98717  Biso   1.000  C
  H289     1.0000 0.64450  0.16000  0.99400  Biso   1.000  H
  H290     1.0000 0.53110  0.10920  0.01570  Biso   1.000  H
  C442     1.0000 0.52140  0.07440  0.99940  Biso   1.000  C
  C443     1.0000 0.72130  0.14820  0.07317  Biso   1.000  C
  H291     1.0000 0.67060  0.16120  0.06790  Biso   1.000  H
  H292     1.0000 0.77880  0.21280  0.04350  Biso   1.000  H
  C444     1.0000 0.78620  0.18120  0.05963  Biso   1.000  C
  C445     1.0000 0.54230  0.07320  0.98817  Biso   1.000  C
  H293     1.0000 0.60540  0.10430  0.97990  Biso   1.000  H
  H294     1.0000 0.49010  0.05210  0.00100  Biso   1.000  H
  C446     1.0000 0.76440  0.15650  0.07022  Biso   1.000  C
  H295     1.0000 0.70550  0.12970  0.08030  Biso   1.000  H
  H296     1.0000 0.81630  0.18690  0.05770  Biso   1.000  H
  C447     1.0000 0.51480  0.03970  0.97818  Biso   1.000  C
  C448     1.0000 0.79100  0.14120  0.07836  Biso   1.000  C
  H297     1.0000 0.50200  0.00790  0.98140  Biso   1.000  H
  H298     1.0000 0.48870  0.04410  0.97570  Biso   1.000  H
  O87      1.0000 0.54260  0.04610  0.96774  Biso   1.000  O
  H299     1.0000 0.80240  0.12430  0.07320  Biso   1.000  H
  H300     1.0000 0.81790  0.16830  0.08220  Biso   1.000  H
  O88      1.0000 0.76140  0.11250  0.08787  Biso   1.000  O
  C449     1.0000 0.52740  0.00970  0.95921  Biso   1.000  C
  C450     1.0000 0.77780  0.09230  0.09548  Biso   1.000  C
  C451     1.0000 0.48100  0.97550  0.95893  Biso   1.000  C
  C452     1.0000 0.55630  0.01820  0.94822  Biso   1.000  C
  C453     1.0000 0.82280  0.10320  0.09558  Biso   1.000  C
  C454     1.0000 0.74880  0.06880  0.10635  Biso   1.000  C
  H301     1.0000 0.45940  0.97650  0.96460  Biso   1.000  H
  C455     1.0000 0.46690  0.93970  0.95016  Biso   1.000  C
  C456     1.0000 0.54130  0.98310  0.93991  Biso   1.000  C
  C457     1.0000 0.60310  0.05620  0.94580  Biso   1.000  C
  C458     1.0000 0.83700  0.08160  0.10500  Biso   1.000  C
  H302     1.0000 0.84410  0.12430  0.08960  Biso   1.000  H
  C459     1.0000 0.76150  0.04740  0.11521  Biso   1.000  C
  C460     1.0000 0.70020  0.05660  0.10815  Biso   1.000  C
  H303     1.0000 0.43800  0.91210  0.95110  Biso   1.000  H
  C461     1.0000 0.49710  0.94560  0.93969  Biso   1.000  C
  C462     1.0000 0.57940  0.99140  0.93026  Biso   1.000  C
  H304     1.0000 0.61310  0.08180  0.95210  Biso   1.000  H
  C463     1.0000 0.60480  0.07100  0.93350  Biso   1.000  C
  C464     1.0000 0.63110  0.03350  0.94650  Biso   1.000  C
  C465     1.0000 0.80430  0.05450  0.11540  Biso   1.000  C
  H305     1.0000 0.86670  0.08460  0.10460  Biso   1.000  H
  C466     1.0000 0.72860  0.01740  0.12437  Biso   1.000  C
  H306     1.0000 0.68970  0.07130  0.10170  Biso   1.000  H
  C467     1.0000 0.67180  0.00790  0.10855  Biso   1.000  C
  C468     1.0000 0.70170  0.07490  0.12191  Biso   1.000  C
  O89      1.0000 0.48590  0.91340  0.93094  Biso   1.000  O
  H307     1.0000 0.56970  0.96620  0.92380  Biso   1.000  H
  C469     1.0000 0.59140  0.03820  0.92450  Biso   1.000  C
  C470     1.0000 0.61990  0.99980  0.93760  Biso   1.000  C
  C471     1.0000 0.61910  0.11540  0.92940  Biso   1.000  C
  C472     1.0000 0.66910  0.04580  0.95450  Biso   1.000  C
  O90      1.0000 0.82430  0.03740  0.12418  Biso   1.000  O
  H308     1.0000 0.74000  0.00120  0.13000  Biso   1.000  H
  C473     1.0000 0.68620  0.98630  0.11726  Biso   1.000  C
  C474     1.0000 0.71830  0.05230  0.13138  Biso   1.000  C
  C475     1.0000 0.63210  0.97990  0.10137  Biso   1.000  C
  C476     1.0000 0.68710  0.10480  0.12564  Biso   1.000  C
  C477     1.0000 0.44450  0.88000  0.93005  Biso   1.000  C
  C478     1.0000 0.59140  0.05070  0.91050  Biso   1.000  C
  C479     1.0000 0.63920  0.97630  0.93583  Biso   1.000  C
  C480     1.0000 0.61400  0.12230  0.91400  Biso   1.000  C
  H309     1.0000 0.63130  0.14070  0.93510  Biso   1.000  H
  C481     1.0000 0.69040  0.02180  0.95360  Biso   1.000  C
  H310     1.0000 0.67900  0.07050  0.96040  Biso   1.000  H
  C482     1.0000 0.87120  0.05550  0.12557  Biso   1.000  C
  C483     1.0000 0.66310  0.94140  0.11860  Biso   1.000  C
  C484     1.0000 0.71870  0.06320  0.14378  Biso   1.000  C
  H311     1.0000 0.62100  0.99450  0.09580  Biso   1.000  H
  C485     1.0000 0.60860  0.93330  0.10190  Biso   1.000  C
  H312     1.0000 0.67670  0.11880  0.11970  Biso   1.000  H
  C486     1.0000 0.68830  0.11390  0.13864  Biso   1.000  C
  H313     1.0000 0.42400  0.89310  0.92890  Biso   1.000  H
  H314     1.0000 0.43610  0.86320  0.93820  Biso   1.000  H
  C487     1.0000 0.43470  0.84570  0.91969  Biso   1.000  C
  H315     1.0000 0.58250  0.02750  0.90420  Biso   1.000  H
  C488     1.0000 0.60380  0.09420  0.90700  Biso   1.000  C
  H316     1.0000 0.62720  0.95220  0.92970  Biso   1.000  H
  C489     1.0000 0.67980  0.98610  0.94300  Biso   1.000  C
  H317     1.0000 0.62020  0.15170  0.91110  Biso   1.000  H
  H318     1.0000 0.71320  0.02670  0.95970  Biso   1.000  H
  H319     1.0000 0.88700  0.08960  0.12600  Biso   1.000  H
  H320     1.0000 0.88380  0.04680  0.11830  Biso   1.000  H
  C490     1.0000 0.87840  0.03660  0.13730  Biso   1.000  C
  C491     1.0000 0.62370  0.91560  0.11120  Biso   1.000  C
  H321     1.0000 0.67310  0.92660  0.12440  Biso   1.000  H
  C492     1.0000 0.70750  0.09430  0.14751  Biso   1.000  C
  H322     1.0000 0.72720  0.04820  0.15000  Biso   1.000  H
  H323     1.0000 0.58400  0.91460  0.09630  Biso   1.000  H
  H324     1.0000 0.67660  0.13270  0.14170  Biso   1.000  H
  C493     1.0000 0.46750  0.85720  0.91042  Biso   1.000  C
  C494     1.0000 0.39430  0.80210  0.91853  Biso   1.000  C
  H325     1.0000 0.60370  0.10080  0.89830  Biso   1.000  H
  H326     1.0000 0.69790  0.97200  0.94140  Biso   1.000  H
  C495     1.0000 0.92430  0.04730  0.14120  Biso   1.000  C
  C496     1.0000 0.84620  0.01480  0.14580  Biso   1.000  C
  H327     1.0000 0.60600  0.88340  0.11280  Biso   1.000  H
  H328     1.0000 0.71210  0.10400  0.15610  Biso   1.000  H
  H329     1.0000 0.49520  0.88600  0.91100  Biso   1.000  H
  C497     1.0000 0.46210  0.82860  0.90009  Biso   1.000  C
  C498     1.0000 0.38980  0.77520  0.90838  Biso   1.000  C
  H330     1.0000 0.37070  0.79170  0.92480  Biso   1.000  H
  H331     1.0000 0.95070  0.06420  0.13600  Biso   1.000  H
  C499     1.0000 0.92700  0.03100  0.15328  Biso   1.000  C
  C500     1.0000 0.85110  0.99270  0.15779  Biso   1.000  C
  H332     1.0000 0.81710  0.01260  0.14440  Biso   1.000  H
  H333     1.0000 0.48490  0.83820  0.89370  Biso   1.000  H
  C501     1.0000 0.42130  0.78470  0.89959  Biso   1.000  C
  H334     1.0000 0.36140  0.74710  0.90750  Biso   1.000  H
  H335     1.0000 0.95740  0.04020  0.15600  Biso   1.000  H
  C502     1.0000 0.89550  0.00580  0.16117  Biso   1.000  C
  H336     1.0000 0.82530  0.97130  0.16260  Biso   1.000  H
  C503     1.0000 0.41620  0.75270  0.88920  Biso   1.000  C
  C504     1.0000 0.90300  0.98460  0.17190  Biso   1.000  C
  O91      1.0000 0.94310  0.00660  0.17579  Biso   1.000  O
  Zn15     1.0000 0.28890  0.55435  0.37295  Biso   1.000  Zn
  O92      1.0000 0.32617  0.61113  0.36430  Biso   1.000  O
  O93      1.0000 0.25947  0.50763  0.35967  Biso   1.000  O
  O94      1.0000 0.32537  0.53693  0.38247  Biso   1.000  O
  O95      1.0000 0.24207  0.54933  0.38338  Biso   1.000  O
  Zn16     1.0000 0.36927  0.59423  0.35673  Biso   1.000  Zn
  C505     1.0000 0.28567  0.51103  0.35062  Biso   1.000  C
  C506     1.0000 0.36747  0.54763  0.37900  Biso   1.000  C
  O96      1.0000 0.32677  0.53753  0.34799  Biso   1.000  O
  O97      1.0000 0.39247  0.57363  0.37015  Biso   1.000  O
  O98      1.0000 0.41867  0.62443  0.34481  Biso   1.000  O
  O99      1.0000 0.37527  0.65403  0.38722  Biso   1.000  O
  C507     1.0000 0.25807  0.47393  0.34040  Biso   1.000  C
  C508     1.0000 0.39007  0.52863  0.38795  Biso   1.000  C
  C509     1.0000 0.27977  0.47153  0.32889  Biso   1.000  C
  C510     1.0000 0.21337  0.44183  0.34155  Biso   1.000  C
  C511     1.0000 0.36727  0.50033  0.39902  Biso   1.000  C
  C512     1.0000 0.43117  0.53213  0.38460  Biso   1.000  C
  C513     1.0000 0.25607  0.43913  0.32050  Biso   1.000  C
  H337     1.0000 0.31117  0.49333  0.32733  Biso   1.000  H
  H338     1.0000 0.19777  0.44253  0.34903  Biso   1.000  H
  C514     1.0000 0.18807  0.40773  0.33273  Biso   1.000  C
  C515     1.0000 0.38797  0.48153  0.40650  Biso   1.000  C
  H339     1.0000 0.33727  0.49453  0.40123  Biso   1.000  H
  H340     1.0000 0.44547  0.54613  0.37683  Biso   1.000  H
  C516     1.0000 0.45287  0.51453  0.39296  Biso   1.000  C
  C517     1.0000 0.20897  0.40653  0.32150  Biso   1.000  C
  H341     1.0000 0.27207  0.43763  0.31323  Biso   1.000  H
  H342     1.0000 0.15677  0.38543  0.33433  Biso   1.000  H
  C518     1.0000 0.43107  0.48983  0.40355  Biso   1.000  C
  H343     1.0000 0.37217  0.46303  0.41363  Biso   1.000  H
  H344     1.0000 0.48297  0.52023  0.39103  Biso   1.000  H
  C519     1.0000 0.18147  0.37303  0.31151  Biso   1.000  C
  C520     1.0000 0.45767  0.47453  0.41169  Biso   1.000  C
  H345     1.0000 0.16867  0.34123  0.31473  Biso   1.000  H
  H346     1.0000 0.15537  0.37743  0.30903  Biso   1.000  H
  O100     1.0000 0.20927  0.37943  0.30107  Biso   1.000  O
  H347     1.0000 0.46907  0.45763  0.40653  Biso   1.000  H
  H348     1.0000 0.48457  0.50163  0.41553  Biso   1.000  H
  O101     1.0000 0.42807  0.44583  0.42120  Biso   1.000  O
  C521     1.0000 0.19407  0.34303  0.29254  Biso   1.000  C
  C522     1.0000 0.44447  0.42563  0.42881  Biso   1.000  C
  C523     1.0000 0.14767  0.30883  0.29226  Biso   1.000  C
  C524     1.0000 0.22297  0.35153  0.28155  Biso   1.000  C
  C525     1.0000 0.48947  0.43653  0.42891  Biso   1.000  C
  C526     1.0000 0.41547  0.40213  0.43968  Biso   1.000  C
  H349     1.0000 0.12607  0.30983  0.29793  Biso   1.000  H
  C527     1.0000 0.13357  0.27303  0.28349  Biso   1.000  C
  C528     1.0000 0.20797  0.31643  0.27324  Biso   1.000  C
  C529     1.0000 0.26977  0.38953  0.27913  Biso   1.000  C
  C530     1.0000 0.50367  0.41493  0.43833  Biso   1.000  C
  H350     1.0000 0.51077  0.45763  0.42293  Biso   1.000  H
  C531     1.0000 0.42817  0.38073  0.44854  Biso   1.000  C
  C532     1.0000 0.36687  0.38993  0.44148  Biso   1.000  C
  H351     1.0000 0.10467  0.24543  0.28443  Biso   1.000  H
  C533     1.0000 0.16377  0.27893  0.27302  Biso   1.000  C
  C534     1.0000 0.24607  0.32473  0.26359  Biso   1.000  C
  H352     1.0000 0.27977  0.41513  0.28543  Biso   1.000  H
  C535     1.0000 0.27147  0.40433  0.26683  Biso   1.000  C
  C536     1.0000 0.29777  0.36683  0.27983  Biso   1.000  C
  C537     1.0000 0.47097  0.38783  0.44873  Biso   1.000  C
  H353     1.0000 0.53337  0.41793  0.43793  Biso   1.000  H
  C538     1.0000 0.39527  0.35073  0.45770  Biso   1.000  C
  H354     1.0000 0.35637  0.40463  0.43503  Biso   1.000  H
  C539     1.0000 0.33847  0.34123  0.44188  Biso   1.000  C
  C540     1.0000 0.36837  0.40823  0.45524  Biso   1.000  C
  O102     1.0000 0.15257  0.24673  0.26427  Biso   1.000  O
  H355     1.0000 0.23637  0.29953  0.25713  Biso   1.000  H
  C541     1.0000 0.25807  0.37153  0.25783  Biso   1.000  C
  C542     1.0000 0.28657  0.33313  0.27093  Biso   1.000  C
  C543     1.0000 0.28577  0.44873  0.26273  Biso   1.000  C
  C544     1.0000 0.33577  0.37913  0.28783  Biso   1.000  C
  O103     1.0000 0.49097  0.37073  0.45751  Biso   1.000  O
  H356     1.0000 0.40667  0.33453  0.46333  Biso   1.000  H
  C545     1.0000 0.35287  0.31963  0.45059  Biso   1.000  C
  C546     1.0000 0.38497  0.38563  0.46471  Biso   1.000  C
  C547     1.0000 0.29877  0.31323  0.43470  Biso   1.000  C
  C548     1.0000 0.35377  0.43813  0.45897  Biso   1.000  C
  C549     1.0000 0.11117  0.21333  0.26338  Biso   1.000  C
  C550     1.0000 0.25807  0.38403  0.24383  Biso   1.000  C
  C551     1.0000 0.30587  0.30963  0.26916  Biso   1.000  C
  C552     1.0000 0.28067  0.45563  0.24733  Biso   1.000  C
  H357     1.0000 0.29797  0.47403  0.26843  Biso   1.000  H
  C553     1.0000 0.35707  0.35513  0.28693  Biso   1.000  C
  H358     1.0000 0.34567  0.40383  0.29373  Biso   1.000  H
  C554     1.0000 0.53787  0.38883  0.45890  Biso   1.000  C
  C555     1.0000 0.32977  0.27473  0.45193  Biso   1.000  C
  C556     1.0000 0.38537  0.39653  0.47711  Biso   1.000  C
  H359     1.0000 0.28767  0.32783  0.42913  Biso   1.000  H
  C557     1.0000 0.27527  0.26663  0.43523  Biso   1.000  C
  H360     1.0000 0.34337  0.45213  0.45303  Biso   1.000  H
  C558     1.0000 0.35497  0.44723  0.47197  Biso   1.000  C
  H361     1.0000 0.09067  0.22643  0.26223  Biso   1.000  H
  H362     1.0000 0.10277  0.19653  0.27153  Biso   1.000  H
  C559     1.0000 0.10137  0.17903  0.25302  Biso   1.000  C
  H363     1.0000 0.24917  0.36083  0.23753  Biso   1.000  H
  C560     1.0000 0.27047  0.42753  0.24033  Biso   1.000  C
  H364     1.0000 0.29387  0.28553  0.26303  Biso   1.000  H
  C561     1.0000 0.34647  0.31943  0.27633  Biso   1.000  C
  H365     1.0000 0.28687  0.48503  0.24443  Biso   1.000  H
  H366     1.0000 0.37987  0.36003  0.29303  Biso   1.000  H
  H367     1.0000 0.55367  0.42293  0.45933  Biso   1.000  H
  H368     1.0000 0.55047  0.38013  0.45163  Biso   1.000  H
  C562     1.0000 0.54507  0.36993  0.47063  Biso   1.000  C
  C563     1.0000 0.29037  0.24893  0.44453  Biso   1.000  C
  H369     1.0000 0.33977  0.25993  0.45773  Biso   1.000  H
  C564     1.0000 0.37417  0.42763  0.48084  Biso   1.000  C
  H370     1.0000 0.39387  0.38153  0.48333  Biso   1.000  H
  H371     1.0000 0.25067  0.24793  0.42963  Biso   1.000  H
  H372     1.0000 0.34327  0.46603  0.47503  Biso   1.000  H
  C565     1.0000 0.13417  0.19053  0.24375  Biso   1.000  C
  C566     1.0000 0.06097  0.13543  0.25186  Biso   1.000  C
  H373     1.0000 0.27037  0.43413  0.23163  Biso   1.000  H
  H374     1.0000 0.36457  0.30533  0.27473  Biso   1.000  H
  C567     1.0000 0.59097  0.38063  0.47453  Biso   1.000  C
  C568     1.0000 0.51287  0.34813  0.47913  Biso   1.000  C
  H375     1.0000 0.27267  0.21673  0.44613  Biso   1.000  H
  H376     1.0000 0.37877  0.43733  0.48943  Biso   1.000  H
  H377     1.0000 0.16187  0.21933  0.24433  Biso   1.000  H
  C569     1.0000 0.12877  0.16193  0.23342  Biso   1.000  C
  C570     1.0000 0.05647  0.10853  0.24171  Biso   1.000  C
  H378     1.0000 0.03737  0.12503  0.25813  Biso   1.000  H
  H379     1.0000 0.61737  0.39753  0.46933  Biso   1.000  H
  C571     1.0000 0.59367  0.36433  0.48661  Biso   1.000  C
  C572     1.0000 0.51777  0.32603  0.49112  Biso   1.000  C
  H380     1.0000 0.48377  0.34593  0.47773  Biso   1.000  H
  H381     1.0000 0.15157  0.17153  0.22703  Biso   1.000  H
  C573     1.0000 0.08797  0.11803  0.23292  Biso   1.000  C
  H382     1.0000 0.02807  0.08043  0.24083  Biso   1.000  H
  H383     1.0000 0.62407  0.37353  0.48933  Biso   1.000  H
  C574     1.0000 0.56217  0.33913  0.49450  Biso   1.000  C
  H384     1.0000 0.49197  0.30463  0.49593  Biso   1.000  H
  C575     1.0000 0.08287  0.08603  0.22253  Biso   1.000  C
  C576     1.0000 0.56967  0.31793  0.50523  Biso   1.000  C
  O104     1.0000 0.60977  0.33993  0.50912  Biso   1.000  O
  Zn17     1.0000 0.95556  0.88769  0.70629  Biso   1.000  Zn
  O105     1.0000 0.99283  0.94447  0.69764  Biso   1.000  O
  O106     1.0000 0.92613  0.84097  0.69301  Biso   1.000  O
  O107     1.0000 0.99203  0.87027  0.71581  Biso   1.000  O
  O108     1.0000 0.90873  0.88267  0.71672  Biso   1.000  O
  Zn18     1.0000 0.03593  0.92757  0.69007  Biso   1.000  Zn
  C577     1.0000 0.95233  0.84437  0.68396  Biso   1.000  C
  C578     1.0000 0.03413  0.88097  0.71234  Biso   1.000  C
  O109     1.0000 0.99343  0.87087  0.68133  Biso   1.000  O
  O110     1.0000 0.05913  0.90697  0.70349  Biso   1.000  O
  O111     1.0000 0.08533  0.95777  0.67815  Biso   1.000  O
  O112     1.0000 0.04193  0.98737  0.72056  Biso   1.000  O
  C579     1.0000 0.92473  0.80727  0.67374  Biso   1.000  C
  C580     1.0000 0.05673  0.86197  0.72129  Biso   1.000  C
  C581     1.0000 0.94643  0.80487  0.66223  Biso   1.000  C
  C582     1.0000 0.88003  0.77517  0.67489  Biso   1.000  C
  C583     1.0000 0.03393  0.83367  0.73236  Biso   1.000  C
  C584     1.0000 0.09783  0.86547  0.71794  Biso   1.000  C
  C585     1.0000 0.92273  0.77247  0.65384  Biso   1.000  C
  H385     1.0000 0.97783  0.82667  0.66067  Biso   1.000  H
  H386     1.0000 0.86443  0.77587  0.68237  Biso   1.000  H
  C586     1.0000 0.85473  0.74107  0.66607  Biso   1.000  C
  C587     1.0000 0.05463  0.81487  0.73984  Biso   1.000  C
  H387     1.0000 0.00393  0.82787  0.73457  Biso   1.000  H
  H388     1.0000 0.11213  0.87947  0.71017  Biso   1.000  H
  C588     1.0000 0.11953  0.84787  0.72630  Biso   1.000  C
  C589     1.0000 0.87563  0.73987  0.65484  Biso   1.000  C
  H389     1.0000 0.93873  0.77097  0.64657  Biso   1.000  H
  H390     1.0000 0.82343  0.71877  0.66767  Biso   1.000  H
  C590     1.0000 0.09773  0.82317  0.73689  Biso   1.000  C
  H391     1.0000 0.03883  0.79637  0.74697  Biso   1.000  H
  H392     1.0000 0.14963  0.85357  0.72437  Biso   1.000  H
  C591     1.0000 0.84813  0.70637  0.64485  Biso   1.000  C
  C592     1.0000 0.12433  0.80787  0.74503  Biso   1.000  C
  H393     1.0000 0.83533  0.67457  0.64807  Biso   1.000  H
  H394     1.0000 0.82203  0.71077  0.64237  Biso   1.000  H
  O113     1.0000 0.87593  0.71277  0.63441  Biso   1.000  O
  H395     1.0000 0.13573  0.79097  0.73987  Biso   1.000  H
  H396     1.0000 0.15123  0.83497  0.74887  Biso   1.000  H
  O114     1.0000 0.09473  0.77917  0.75454  Biso   1.000  O
  C593     1.0000 0.86073  0.67637  0.62588  Biso   1.000  C
  C594     1.0000 0.11113  0.75897  0.76215  Biso   1.000  C
  C595     1.0000 0.81433  0.64217  0.62560  Biso   1.000  C
  C596     1.0000 0.88963  0.68487  0.61489  Biso   1.000  C
  C597     1.0000 0.15613  0.76987  0.76225  Biso   1.000  C
  C598     1.0000 0.08213  0.73547  0.77302  Biso   1.000  C
  H397     1.0000 0.79273  0.64317  0.63127  Biso   1.000  H
  C599     1.0000 0.80023  0.60637  0.61683  Biso   1.000  C
  C600     1.0000 0.87463  0.64977  0.60658  Biso   1.000  C
  C601     1.0000 0.93643  0.72287  0.61247  Biso   1.000  C
  C602     1.0000 0.17033  0.74827  0.77167  Biso   1.000  C
  H398     1.0000 0.17743  0.79097  0.75627  Biso   1.000  H
  C603     1.0000 0.09483  0.71407  0.78188  Biso   1.000  C
  C604     1.0000 0.03353  0.72327  0.77482  Biso   1.000  C
  H399     1.0000 0.77133  0.57877  0.61777  Biso   1.000  H
  C605     1.0000 0.83043  0.61227  0.60636  Biso   1.000  C
  C606     1.0000 0.91273  0.65807  0.59693  Biso   1.000  C
  H400     1.0000 0.94643  0.74847  0.61877  Biso   1.000  H
  C607     1.0000 0.93813  0.73767  0.60017  Biso   1.000  C
  C608     1.0000 0.96443  0.70017  0.61317  Biso   1.000  C
  C609     1.0000 0.13763  0.72117  0.78207  Biso   1.000  C
  H401     1.0000 0.20003  0.75127  0.77127  Biso   1.000  H
  C610     1.0000 0.06193  0.68407  0.79104  Biso   1.000  C
  H402     1.0000 0.02303  0.73797  0.76837  Biso   1.000  H
  C611     1.0000 0.00513  0.67457  0.77522  Biso   1.000  C
  C612     1.0000 0.03503  0.74157  0.78858  Biso   1.000  C
  O115     1.0000 0.81923  0.58007  0.59761  Biso   1.000  O
  H403     1.0000 0.90303  0.63287  0.59047  Biso   1.000  H
  C613     1.0000 0.92473  0.70487  0.59117  Biso   1.000  C
  C614     1.0000 0.95323  0.66647  0.60427  Biso   1.000  C
  C615     1.0000 0.95243  0.78207  0.59607  Biso   1.000  C
  C616     1.0000 0.00243  0.71247  0.62117  Biso   1.000  C
  O116     1.0000 0.15763  0.70407  0.79085  Biso   1.000  O
  H404     1.0000 0.07333  0.66787  0.79667  Biso   1.000  H
  C617     1.0000 0.01953  0.65297  0.78393  Biso   1.000  C
  C618     1.0000 0.05163  0.71897  0.79805  Biso   1.000  C
  C619     1.0000 0.96543  0.64657  0.76804  Biso   1.000  C
  C620     1.0000 0.02043  0.77147  0.79231  Biso   1.000  C
  C621     1.0000 0.77783  0.54667  0.59672  Biso   1.000  C
  C622     1.0000 0.92473  0.71737  0.57717  Biso   1.000  C
  C623     1.0000 0.97253  0.64297  0.60250  Biso   1.000  C
  C624     1.0000 0.94733  0.78897  0.58067  Biso   1.000  C
  H405     1.0000 0.96463  0.80737  0.60177  Biso   1.000  H
  C625     1.0000 0.02373  0.68847  0.62027  Biso   1.000  C
  H406     1.0000 0.01233  0.73717  0.62707  Biso   1.000  H
  C626     1.0000 0.20453  0.72217  0.79224  Biso   1.000  C
  C627     1.0000 0.99643  0.60807  0.78527  Biso   1.000  C
  C628     1.0000 0.05203  0.72987  0.81045  Biso   1.000  C
  H407     1.0000 0.95433  0.66117  0.76247  Biso   1.000  H
  C629     1.0000 0.94193  0.59997  0.76857  Biso   1.000  C
  H408     1.0000 0.01003  0.78547  0.78637  Biso   1.000  H
  C630     1.0000 0.02163  0.78057  0.80531  Biso   1.000  C
  H409     1.0000 0.75733  0.55977  0.59557  Biso   1.000  H
  H410     1.0000 0.76943  0.52987  0.60487  Biso   1.000  H
  C631     1.0000 0.76803  0.51237  0.58636  Biso   1.000  C
  H411     1.0000 0.91583  0.69417  0.57087  Biso   1.000  H
  C632     1.0000 0.93713  0.76087  0.57367  Biso   1.000  C
  H412     1.0000 0.96053  0.61887  0.59637  Biso   1.000  H
  C633     1.0000 0.01313  0.65277  0.60967  Biso   1.000  C
  H413     1.0000 0.95353  0.81837  0.57777  Biso   1.000  H
  H414     1.0000 0.04653  0.69337  0.62637  Biso   1.000  H
  H415     1.0000 0.22033  0.75627  0.79267  Biso   1.000  H
  H416     1.0000 0.21713  0.71347  0.78497  Biso   1.000  H
  C634     1.0000 0.21173  0.70327  0.80397  Biso   1.000  C
  C635     1.0000 0.95703  0.58227  0.77787  Biso   1.000  C
  H417     1.0000 0.00643  0.59327  0.79107  Biso   1.000  H
  C636     1.0000 0.04083  0.76097  0.81418  Biso   1.000  C
  H418     1.0000 0.06053  0.71487  0.81667  Biso   1.000  H
  H419     1.0000 0.91733  0.58127  0.76297  Biso   1.000  H
  H420     1.0000 0.00993  0.79937  0.80837  Biso   1.000  H
  C637     1.0000 0.80083  0.52387  0.57709  Biso   1.000  C
  C638     1.0000 0.72763  0.46877  0.58520  Biso   1.000  C
  H421     1.0000 0.93703  0.76747  0.56497  Biso   1.000  H
  H422     1.0000 0.03123  0.63867  0.60807  Biso   1.000  H
  C639     1.0000 0.25763  0.71397  0.80787  Biso   1.000  C
  C640     1.0000 0.17953  0.68147  0.81247  Biso   1.000  C
  H423     1.0000 0.93933  0.55007  0.77947  Biso   1.000  H
  H424     1.0000 0.04543  0.77067  0.82277  Biso   1.000  H
  H425     1.0000 0.82853  0.55267  0.57767  Biso   1.000  H
  C641     1.0000 0.79543  0.49527  0.56676  Biso   1.000  C
  C642     1.0000 0.72313  0.44187  0.57505  Biso   1.000  C
  H426     1.0000 0.70403  0.45837  0.59147  Biso   1.000  H
  H427     1.0000 0.28403  0.73087  0.80267  Biso   1.000  H
  C643     1.0000 0.26033  0.69767  0.81995  Biso   1.000  C
  C644     1.0000 0.18443  0.65937  0.82446  Biso   1.000  C
  H428     1.0000 0.15043  0.67927  0.81107  Biso   1.000  H
  H429     1.0000 0.81823  0.50487  0.56037  Biso   1.000  H
  C645     1.0000 0.75463  0.45137  0.56626  Biso   1.000  C
  H430     1.0000 0.69473  0.41377  0.57417  Biso   1.000  H
  H431     1.0000 0.29073  0.70687  0.82267  Biso   1.000  H
  C646     1.0000 0.22883  0.67247  0.82784  Biso   1.000  C
  H432     1.0000 0.15863  0.63797  0.82927  Biso   1.000  H
  C647     1.0000 0.74953  0.41937  0.55587  Biso   1.000  C
  C648     1.0000 0.23633  0.65127  0.83857  Biso   1.000  C
  O117     1.0000 0.27643  0.67327  0.84246  Biso   1.000  O
  Zn19     1.0000 0.59879  0.22102  0.53962  Biso   1.000  Zn
  O118     1.0000 0.61830  0.27780  0.53097  Biso   1.000  O
  O119     1.0000 0.58150  0.17430  0.52634  Biso   1.000  O
  O120     1.0000 0.54490  0.20360  0.54914  Biso   1.000  O
  O121     1.0000 0.64060  0.21600  0.55005  Biso   1.000  O
  Zn20     1.0000 0.55830  0.26090  0.52340  Biso   1.000  Zn
  C649     1.0000 0.55870  0.17770  0.51729  Biso   1.000  C
  C650     1.0000 0.51350  0.21430  0.54567  Biso   1.000  C
  O122     1.0000 0.54410  0.20420  0.51466  Biso   1.000  O
  O123     1.0000 0.51450  0.24030  0.53682  Biso   1.000  O
  O124     1.0000 0.53910  0.29110  0.51148  Biso   1.000  O
  O125     1.0000 0.61210  0.32070  0.55389  Biso   1.000  O
  C651     1.0000 0.54920  0.14060  0.50707  Biso   1.000  C
  C652     1.0000 0.47190  0.19530  0.55462  Biso   1.000  C
  C653     1.0000 0.52510  0.13820  0.49556  Biso   1.000  C
  C654     1.0000 0.56180  0.10850  0.50822  Biso   1.000  C
  C655     1.0000 0.46640  0.16700  0.56569  Biso   1.000  C
  C656     1.0000 0.43430  0.19880  0.55127  Biso   1.000  C
  C657     1.0000 0.51640  0.10580  0.48717  Biso   1.000  C
  H433     1.0000 0.51550  0.16000  0.49400  Biso   1.000  H
  H434     1.0000 0.57810  0.10920  0.51570  Biso   1.000  H
  C658     1.0000 0.55300  0.07440  0.49940  Biso   1.000  C
  C659     1.0000 0.42690  0.14820  0.57317  Biso   1.000  C
  H435     1.0000 0.49060  0.16120  0.56790  Biso   1.000  H
  H436     1.0000 0.43400  0.21280  0.54350  Biso   1.000  H
  C660     1.0000 0.39500  0.18120  0.55963  Biso   1.000  C
  C661     1.0000 0.53090  0.07320  0.48817  Biso   1.000  C
  H437     1.0000 0.49890  0.10430  0.47990  Biso   1.000  H
  H438     1.0000 0.56200  0.05210  0.50100  Biso   1.000  H
  C662     1.0000 0.39210  0.15650  0.57022  Biso   1.000  C
  H439     1.0000 0.42420  0.12970  0.58030  Biso   1.000  H
  H440     1.0000 0.37060  0.18690  0.55770  Biso   1.000  H
  C663     1.0000 0.52490  0.03970  0.47818  Biso   1.000  C
  C664     1.0000 0.35020  0.14120  0.57836  Biso   1.000  C
  H441     1.0000 0.50590  0.00790  0.48140  Biso   1.000  H
  H442     1.0000 0.55540  0.04410  0.47570  Biso   1.000  H
  O126     1.0000 0.50350  0.04610  0.46774  Biso   1.000  O
  H443     1.0000 0.32190  0.12430  0.57320  Biso   1.000  H
  H444     1.0000 0.35040  0.16830  0.58220  Biso   1.000  H
  O127     1.0000 0.35110  0.11250  0.58787  Biso   1.000  O
  C665     1.0000 0.48230  0.00970  0.45921  Biso   1.000  C
  C666     1.0000 0.31450  0.09230  0.59548  Biso   1.000  C
  C667     1.0000 0.49450  0.97550  0.45893  Biso   1.000  C
  C668     1.0000 0.46190  0.01820  0.44822  Biso   1.000  C
  C669     1.0000 0.28040  0.10320  0.59558  Biso   1.000  C
  C670     1.0000 0.32000  0.06880  0.60635  Biso   1.000  C
  H445     1.0000 0.51710  0.97650  0.46460  Biso   1.000  H
  C671     1.0000 0.47280  0.93970  0.45016  Biso   1.000  C
  C672     1.0000 0.44180  0.98310  0.43991  Biso   1.000  C
  C673     1.0000 0.45310  0.05620  0.44580  Biso   1.000  C
  C674     1.0000 0.24460  0.08160  0.60500  Biso   1.000  C
  H446     1.0000 0.28020  0.12430  0.58960  Biso   1.000  H
  C675     1.0000 0.28590  0.04740  0.61521  Biso   1.000  C
  C676     1.0000 0.35640  0.05660  0.60815  Biso   1.000  C
  H447     1.0000 0.47410  0.91210  0.45110  Biso   1.000  H
  C677     1.0000 0.44850  0.94560  0.43969  Biso   1.000  C
  C678     1.0000 0.41200  0.99140  0.43026  Biso   1.000  C
  H448     1.0000 0.46870  0.08180  0.45210  Biso   1.000  H
  C679     1.0000 0.46620  0.07100  0.43350  Biso   1.000  C
  C680     1.0000 0.40240  0.03350  0.44650  Biso   1.000  C
  C681     1.0000 0.25020  0.05450  0.61540  Biso   1.000  C
  H449     1.0000 0.21790  0.08460  0.60460  Biso   1.000  H
  C682     1.0000 0.28880  0.01740  0.62437  Biso   1.000  C
  H450     1.0000 0.38160  0.07130  0.60170  Biso   1.000  H
  C683     1.0000 0.33610  0.00790  0.60855  Biso   1.000  C
  C684     1.0000 0.37320  0.07490  0.62191  Biso   1.000  C
  O128     1.0000 0.42750  0.91340  0.43094  Biso   1.000  O
  H451     1.0000 0.39650  0.96620  0.42380  Biso   1.000  H
  C685     1.0000 0.44680  0.03820  0.42450  Biso   1.000  C
  C686     1.0000 0.37990  0.99980  0.43760  Biso   1.000  C
  C687     1.0000 0.49630  0.11540  0.42940  Biso   1.000  C
  C688     1.0000 0.37670  0.04580  0.45450  Biso   1.000  C
  O129     1.0000 0.21310  0.03740  0.62418  Biso   1.000  O
  H452     1.0000 0.26120  0.00120  0.63000  Biso   1.000  H
  C689     1.0000 0.30010  0.98630  0.61726  Biso   1.000  C
  C690     1.0000 0.33400  0.05230  0.63138  Biso   1.000  C
  C691     1.0000 0.34780  0.97990  0.60137  Biso   1.000  C
  C692     1.0000 0.41770  0.10480  0.62564  Biso   1.000  C
  C693     1.0000 0.43550  0.88000  0.43005  Biso   1.000  C
  C694     1.0000 0.45930  0.05070  0.41050  Biso   1.000  C
  C695     1.0000 0.33710  0.97630  0.43583  Biso   1.000  C
  C696     1.0000 0.50830  0.12230  0.41400  Biso   1.000  C
  H453     1.0000 0.50940  0.14070  0.43510  Biso   1.000  H
  C697     1.0000 0.33140  0.02180  0.45360  Biso   1.000  C
  H454     1.0000 0.39150  0.07050  0.46040  Biso   1.000  H
  C698     1.0000 0.18430  0.05550  0.62557  Biso   1.000  C
  C699     1.0000 0.27830  0.94140  0.61860  Biso   1.000  C
  C700     1.0000 0.34450  0.06320  0.64378  Biso   1.000  C
  H455     1.0000 0.37350  0.99450  0.59580  Biso   1.000  H
  C701     1.0000 0.32470  0.93330  0.60190  Biso   1.000  C
  H456     1.0000 0.44210  0.11880  0.61970  Biso   1.000  H
  C702     1.0000 0.42560  0.11390  0.63864  Biso   1.000  C
  H457     1.0000 0.46910  0.89310  0.42890  Biso   1.000  H
  H458     1.0000 0.42710  0.86320  0.43820  Biso   1.000  H
  C703     1.0000 0.41100  0.84570  0.41969  Biso   1.000  C
  H459     1.0000 0.44500  0.02750  0.40420  Biso   1.000  H
  C704     1.0000 0.49040  0.09420  0.40700  Biso   1.000  C
  H460     1.0000 0.32500  0.95220  0.42970  Biso   1.000  H
  C705     1.0000 0.30630  0.98610  0.44300  Biso   1.000  C
  H461     1.0000 0.53150  0.15170  0.41110  Biso   1.000  H
  H462     1.0000 0.31350  0.02670  0.45970  Biso   1.000  H
  H463     1.0000 0.20260  0.08960  0.62600  Biso   1.000  H
  H464     1.0000 0.16300  0.04680  0.61830  Biso   1.000  H
  C706     1.0000 0.15820  0.03660  0.63730  Biso   1.000  C
  C707     1.0000 0.29190  0.91560  0.61120  Biso   1.000  C
  H465     1.0000 0.25350  0.92660  0.62440  Biso   1.000  H
  C708     1.0000 0.38680  0.09430  0.64751  Biso   1.000  C
  H466     1.0000 0.32100  0.04820  0.65000  Biso   1.000  H
  H467     1.0000 0.33060  0.91460  0.59630  Biso   1.000  H
  H468     1.0000 0.45610  0.13270  0.64170  Biso   1.000  H
  C709     1.0000 0.38970  0.85720  0.41042  Biso   1.000  C
  C710     1.0000 0.40780  0.80210  0.41853  Biso   1.000  C
  H469     1.0000 0.49710  0.10080  0.39830  Biso   1.000  H
  H470     1.0000 0.27410  0.97200  0.44140  Biso   1.000  H
  C711     1.0000 0.12300  0.04730  0.64120  Biso   1.000  C
  C712     1.0000 0.16860  0.01480  0.64580  Biso   1.000  C
  H471     1.0000 0.27740  0.88340  0.61280  Biso   1.000  H
  H472     1.0000 0.39190  0.10400  0.65610  Biso   1.000  H
  H473     1.0000 0.39080  0.88600  0.41100  Biso   1.000  H
  C713     1.0000 0.36650  0.82860  0.40009  Biso   1.000  C
  C714     1.0000 0.38540  0.77520  0.40838  Biso   1.000  C
  H474     1.0000 0.42100  0.79170  0.42480  Biso   1.000  H
  H475     1.0000 0.11350  0.06420  0.63600  Biso   1.000  H
  C715     1.0000 0.10400  0.03100  0.65328  Biso   1.000  C
  C716     1.0000 0.14160  0.99270  0.65779  Biso   1.000  C
  H476     1.0000 0.19550  0.01260  0.64440  Biso   1.000  H
  H477     1.0000 0.35330  0.83820  0.39370  Biso   1.000  H
  C717     1.0000 0.36340  0.78470  0.39959  Biso   1.000  C
  H478     1.0000 0.38570  0.74710  0.40750  Biso   1.000  H
  H479     1.0000 0.08280  0.04020  0.65600  Biso   1.000  H
  C718     1.0000 0.11030  0.00580  0.66117  Biso   1.000  C
  H480     1.0000 0.14600  0.97130  0.66260  Biso   1.000  H
  C719     1.0000 0.33650  0.75270  0.38920  Biso   1.000  C
  C720     1.0000 0.08160  0.98460  0.67190  Biso   1.000  C
  O130     1.0000 0.06350  0.00660  0.67579  Biso   1.000  O
  Zn21     1.0000 0.26546  0.55435  0.87295  Biso   1.000  Zn
  O131     1.0000 0.28497  0.61113  0.86430  Biso   1.000  O
  O132     1.0000 0.24817  0.50763  0.85967  Biso   1.000  O
  O133     1.0000 0.21157  0.53693  0.88247  Biso   1.000  O
  O134     1.0000 0.30727  0.54933  0.88338  Biso   1.000  O
  Zn22     1.0000 0.22497  0.59423  0.85673  Biso   1.000  Zn
  C721     1.0000 0.22537  0.51103  0.85062  Biso   1.000  C
  C722     1.0000 0.18017  0.54763  0.87900  Biso   1.000  C
  O135     1.0000 0.21077  0.53753  0.84799  Biso   1.000  O
  O136     1.0000 0.18117  0.57363  0.87015  Biso   1.000  O
  O137     1.0000 0.20577  0.62443  0.84481  Biso   1.000  O
  O138     1.0000 0.27877  0.65403  0.88722  Biso   1.000  O
  C723     1.0000 0.21587  0.47393  0.84040  Biso   1.000  C
  C724     1.0000 0.13857  0.52863  0.88795  Biso   1.000  C
  C725     1.0000 0.19177  0.47153  0.82889  Biso   1.000  C
  C726     1.0000 0.22847  0.44183  0.84155  Biso   1.000  C
  C727     1.0000 0.13307  0.50033  0.89902  Biso   1.000  C
  C728     1.0000 0.10097  0.53213  0.88460  Biso   1.000  C
  C729     1.0000 0.18307  0.43913  0.82050  Biso   1.000  C
  H481     1.0000 0.18217  0.49333  0.82733  Biso   1.000  H
  H482     1.0000 0.24477  0.44253  0.84903  Biso   1.000  H
  C730     1.0000 0.21967  0.40773  0.83273  Biso   1.000  C
  C731     1.0000 0.09357  0.48153  0.90650  Biso   1.000  C
  H483     1.0000 0.15727  0.49453  0.90123  Biso   1.000  H
  H484     1.0000 0.10067  0.54613  0.87683  Biso   1.000  H
  C732     1.0000 0.06167  0.51453  0.89296  Biso   1.000  C
  C733     1.0000 0.19757  0.40653  0.82150  Biso   1.000  C
  H485     1.0000 0.16557  0.43763  0.81323  Biso   1.000  H
  H486     1.0000 0.22867  0.38543  0.83433  Biso   1.000  H
  C734     1.0000 0.05877  0.48983  0.90355  Biso   1.000  C
  H487     1.0000 0.09087  0.46303  0.91363  Biso   1.000  H
  H488     1.0000 0.03727  0.52023  0.89103  Biso   1.000  H
  C735     1.0000 0.19157  0.37303  0.81151  Biso   1.000  C
  C736     1.0000 0.01687  0.47453  0.91169  Biso   1.000  C
  H489     1.0000 0.17257  0.34123  0.81473  Biso   1.000  H
  H490     1.0000 0.22207  0.37743  0.80903  Biso   1.000  H
  O139     1.0000 0.17017  0.37943  0.80107  Biso   1.000  O
  H491     1.0000 0.98857  0.45763  0.90653  Biso   1.000  H
  H492     1.0000 0.01707  0.50163  0.91553  Biso   1.000  H
  O140     1.0000 0.01777  0.44583  0.92120  Biso   1.000  O
  C737     1.0000 0.14897  0.34303  0.79254  Biso   1.000  C
  C738     1.0000 0.98117  0.42563  0.92881  Biso   1.000  C
  C739     1.0000 0.16117  0.30883  0.79226  Biso   1.000  C
  C740     1.0000 0.12857  0.35153  0.78155  Biso   1.000  C
  C741     1.0000 0.94707  0.43653  0.92891  Biso   1.000  C
  C742     1.0000 0.98667  0.40213  0.93968  Biso   1.000  C
  H493     1.0000 0.18377  0.30983  0.79793  Biso   1.000  H
  C743     1.0000 0.13947  0.27303  0.78349  Biso   1.000  C
  C744     1.0000 0.10847  0.31643  0.77324  Biso   1.000  C
  C745     1.0000 0.11977  0.38953  0.77913  Biso   1.000  C
  C746     1.0000 0.91127  0.41493  0.93833  Biso   1.000  C
  H494     1.0000 0.94687  0.45763  0.92293  Biso   1.000  H
  C747     1.0000 0.95257  0.38073  0.94854  Biso   1.000  C
  C748     1.0000 0.02307  0.38993  0.94148  Biso   1.000  C
  H495     1.0000 0.14077  0.24543  0.78443  Biso   1.000  H
  C749     1.0000 0.11517  0.27893  0.77302  Biso   1.000  C
  C750     1.0000 0.07867  0.32473  0.76359  Biso   1.000  C
  H496     1.0000 0.13537  0.41513  0.78543  Biso   1.000  H
  C751     1.0000 0.13287  0.40433  0.76683  Biso   1.000  C
  C752     1.0000 0.06907  0.36683  0.77983  Biso   1.000  C
  C753     1.0000 0.91687  0.38783  0.94873  Biso   1.000  C
  H497     1.0000 0.88457  0.41793  0.93793  Biso   1.000  H
  C754     1.0000 0.95547  0.35073  0.95770  Biso   1.000  C
  H498     1.0000 0.04827  0.40463  0.93503  Biso   1.000  H
  C755     1.0000 0.00277  0.34123  0.94188  Biso   1.000  C
  C756     1.0000 0.03987  0.40823  0.95524  Biso   1.000  C
  O141     1.0000 0.09417  0.24673  0.76427  Biso   1.000  O
  H499     1.0000 0.06317  0.29953  0.75713  Biso   1.000  H
  C757     1.0000 0.11347  0.37153  0.75783  Biso   1.000  C
  C758     1.0000 0.04657  0.33313  0.77093  Biso   1.000  C
  C759     1.0000 0.16297  0.44873  0.76273  Biso   1.000  C
  C760     1.0000 0.04337  0.37913  0.78783  Biso   1.000  C
  O142     1.0000 0.87977  0.37073  0.95751  Biso   1.000  O
  H500     1.0000 0.92787  0.33453  0.96333  Biso   1.000  H
  C761     1.0000 0.96677  0.31963  0.95059  Biso   1.000  C
  C762     1.0000 0.00067  0.38563  0.96471  Biso   1.000  C
  C763     1.0000 0.01447  0.31323  0.93470  Biso   1.000  C
  C764     1.0000 0.08437  0.43813  0.95897  Biso   1.000  C
  C765     1.0000 0.10217  0.21333  0.76338  Biso   1.000  C
  C766     1.0000 0.12597  0.38403  0.74383  Biso   1.000  C
  C767     1.0000 0.00377  0.30963  0.76916  Biso   1.000  C
  C768     1.0000 0.17497  0.45563  0.74733  Biso   1.000  C
  H501     1.0000 0.17607  0.47403  0.76843  Biso   1.000  H
  C769     1.0000 0.99807  0.35513  0.78693  Biso   1.000  C
  H502     1.0000 0.05817  0.40383  0.79373  Biso   1.000  H
  C770     1.0000 0.85097  0.38883  0.95890  Biso   1.000  C
  C771     1.0000 0.94497  0.27473  0.95193  Biso   1.000  C
  C772     1.0000 0.01117  0.39653  0.97711  Biso   1.000  C
  H503     1.0000 0.04017  0.32783  0.92913  Biso   1.000  H
  C773     1.0000 0.99137  0.26663  0.93523  Biso   1.000  C
  H504     1.0000 0.10877  0.45213  0.95303  Biso   1.000  H
  C774     1.0000 0.09227  0.44723  0.97197  Biso   1.000  C
  H505     1.0000 0.13577  0.22643  0.76223  Biso   1.000  H
  H506     1.0000 0.09377  0.19653  0.77153  Biso   1.000  H
  C775     1.0000 0.07767  0.17903  0.75302  Biso   1.000  C
  H507     1.0000 0.11167  0.36083  0.73753  Biso   1.000  H
  C776     1.0000 0.15707  0.42753  0.74033  Biso   1.000  C
  H508     1.0000 0.99167  0.28553  0.76303  Biso   1.000  H
  C777     1.0000 0.97297  0.31943  0.77633  Biso   1.000  C
  H509     1.0000 0.19817  0.48503  0.74443  Biso   1.000  H
  H510     1.0000 0.98017  0.36003  0.79303  Biso   1.000  H
  H511     1.0000 0.86927  0.42293  0.95933  Biso   1.000  H
  H512     1.0000 0.82967  0.38013  0.95163  Biso   1.000  H
  C778     1.0000 0.82487  0.36993  0.97063  Biso   1.000  C
  C779     1.0000 0.95857  0.24893  0.94453  Biso   1.000  C
  H513     1.0000 0.92017  0.25993  0.95773  Biso   1.000  H
  C780     1.0000 0.05347  0.42763  0.98084  Biso   1.000  C
  H514     1.0000 0.98767  0.38153  0.98333  Biso   1.000  H
  H515     1.0000 0.99727  0.24793  0.92963  Biso   1.000  H
  H516     1.0000 0.12277  0.46603  0.97503  Biso   1.000  H
  C781     1.0000 0.05637  0.19053  0.74375  Biso   1.000  C
  C782     1.0000 0.07447  0.13543  0.75186  Biso   1.000  C
  H517     1.0000 0.16377  0.43413  0.73163  Biso   1.000  H
  H518     1.0000 0.94077  0.30533  0.77473  Biso   1.000  H
  C783     1.0000 0.78967  0.38063  0.97453  Biso   1.000  C
  C784     1.0000 0.83527  0.34813  0.97913  Biso   1.000  C
  H519     1.0000 0.94407  0.21673  0.94613  Biso   1.000  H
  H520     1.0000 0.05857  0.43733  0.98943  Biso   1.000  H
  H521     1.0000 0.05747  0.21933  0.74433  Biso   1.000  H
  C785     1.0000 0.03317  0.16193  0.73342  Biso   1.000  C
  C786     1.0000 0.05207  0.10853  0.74171  Biso   1.000  C
  H522     1.0000 0.08767  0.12503  0.75813  Biso   1.000  H
  H523     1.0000 0.78017  0.39753  0.96933  Biso   1.000  H
  C787     1.0000 0.77067  0.36433  0.98661  Biso   1.000  C
  C788     1.0000 0.80827  0.32603  0.99112  Biso   1.000  C
  H524     1.0000 0.86217  0.34593  0.97773  Biso   1.000  H
  H525     1.0000 0.01997  0.17153  0.72703  Biso   1.000  H
  C789     1.0000 0.03007  0.11803  0.73292  Biso   1.000  C
  H526     1.0000 0.05237  0.08043  0.74083  Biso   1.000  H
  H527     1.0000 0.74947  0.37353  0.98933  Biso   1.000  H
  C790     1.0000 0.77697  0.33913  0.99450  Biso   1.000  C
  H528     1.0000 0.81267  0.30463  0.99593  Biso   1.000  H
  C791     1.0000 0.00317  0.08603  0.72253  Biso   1.000  C
  C792     1.0000 0.74827  0.31793  0.00523  Biso   1.000  C
  O143     1.0000 0.73017  0.33993  0.00912  Biso   1.000  O
  Zn23     1.0000 0.93212  0.88769  0.20629  Biso   1.000  Zn
  O144     1.0000 0.95163  0.94447  0.19764  Biso   1.000  O
  O145     1.0000 0.91483  0.84097  0.19301  Biso   1.000  O
  O146     1.0000 0.87823  0.87027  0.21581  Biso   1.000  O
  O147     1.0000 0.97393  0.88267  0.21672  Biso   1.000  O
  Zn24     1.0000 0.89163  0.92757  0.19007  Biso   1.000  Zn
  C793     1.0000 0.89203  0.84437  0.18396  Biso   1.000  C
  C794     1.0000 0.84683  0.88097  0.21234  Biso   1.000  C
  O148     1.0000 0.87743  0.87087  0.18133  Biso   1.000  O
  O149     1.0000 0.84783  0.90697  0.20349  Biso   1.000  O
  O150     1.0000 0.87243  0.95777  0.17815  Biso   1.000  O
  O151     1.0000 0.94543  0.98737  0.22056  Biso   1.000  O
  C795     1.0000 0.88253  0.80727  0.17374  Biso   1.000  C
  C796     1.0000 0.80523  0.86197  0.22129  Biso   1.000  C
  C797     1.0000 0.85843  0.80487  0.16223  Biso   1.000  C
  C798     1.0000 0.89513  0.77517  0.17489  Biso   1.000  C
  C799     1.0000 0.79973  0.83367  0.23236  Biso   1.000  C
  C800     1.0000 0.76763  0.86547  0.21794  Biso   1.000  C
  C801     1.0000 0.84973  0.77247  0.15384  Biso   1.000  C
  H529     1.0000 0.84883  0.82667  0.16067  Biso   1.000  H
  H530     1.0000 0.91143  0.77587  0.18237  Biso   1.000  H
  C802     1.0000 0.88633  0.74107  0.16607  Biso   1.000  C
  C803     1.0000 0.76023  0.81487  0.23984  Biso   1.000  C
  H531     1.0000 0.82393  0.82787  0.23457  Biso   1.000  H
  H532     1.0000 0.76733  0.87947  0.21017  Biso   1.000  H
  C804     1.0000 0.72833  0.84787  0.22630  Biso   1.000  C
  C805     1.0000 0.86423  0.73987  0.15484  Biso   1.000  C
  H533     1.0000 0.83223  0.77097  0.14657  Biso   1.000  H
  H534     1.0000 0.89533  0.71877  0.16767  Biso   1.000  H
  C806     1.0000 0.72543  0.82317  0.23689  Biso   1.000  C
  H535     1.0000 0.75753  0.79637  0.24697  Biso   1.000  H
  H536     1.0000 0.70393  0.85357  0.22437  Biso   1.000  H
  C807     1.0000 0.85823  0.70637  0.14485  Biso   1.000  C
  C808     1.0000 0.68353  0.80787  0.24503  Biso   1.000  C
  H537     1.0000 0.83923  0.67457  0.14807  Biso   1.000  H
  H538     1.0000 0.88873  0.71077  0.14237  Biso   1.000  H
  O152     1.0000 0.83683  0.71277  0.13441  Biso   1.000  O
  H539     1.0000 0.65523  0.79097  0.23987  Biso   1.000  H
  H540     1.0000 0.68373  0.83497  0.24887  Biso   1.000  H
  O153     1.0000 0.68443  0.77917  0.25454  Biso   1.000  O
  C809     1.0000 0.81563  0.67637  0.12588  Biso   1.000  C
  C810     1.0000 0.64783  0.75897  0.26215  Biso   1.000  C
  C811     1.0000 0.82783  0.64217  0.12560  Biso   1.000  C
  C812     1.0000 0.79523  0.68487  0.11489  Biso   1.000  C
  C813     1.0000 0.61373  0.76987  0.26225  Biso   1.000  C
  C814     1.0000 0.65333  0.73547  0.27302  Biso   1.000  C
  H541     1.0000 0.85043  0.64317  0.13127  Biso   1.000  H
  C815     1.0000 0.80613  0.60637  0.11683  Biso   1.000  C
  C816     1.0000 0.77513  0.64977  0.10658  Biso   1.000  C
  C817     1.0000 0.78643  0.72287  0.11247  Biso   1.000  C
  C818     1.0000 0.57793  0.74827  0.27167  Biso   1.000  C
  H542     1.0000 0.61353  0.79097  0.25627  Biso   1.000  H
  C819     1.0000 0.61923  0.71407  0.28188  Biso   1.000  C
  C820     1.0000 0.68973  0.72327  0.27482  Biso   1.000  C
  H543     1.0000 0.80743  0.57877  0.11777  Biso   1.000  H
  C821     1.0000 0.78183  0.61227  0.10636  Biso   1.000  C
  C822     1.0000 0.74533  0.65807  0.09693  Biso   1.000  C
  H544     1.0000 0.80203  0.74847  0.11877  Biso   1.000  H
  C823     1.0000 0.79953  0.73767  0.10017  Biso   1.000  C
  C824     1.0000 0.73573  0.70017  0.11317  Biso   1.000  C
  C825     1.0000 0.58353  0.72117  0.28207  Biso   1.000  C
  H545     1.0000 0.55123  0.75127  0.27127  Biso   1.000  H
  C826     1.0000 0.62213  0.68407  0.29104  Biso   1.000  C
  H546     1.0000 0.71493  0.73797  0.26837  Biso   1.000  H
  C827     1.0000 0.66943  0.67457  0.27522  Biso   1.000  C
  C828     1.0000 0.70653  0.74157  0.28858  Biso   1.000  C
  O154     1.0000 0.76083  0.58007  0.09761  Biso   1.000  O
  H547     1.0000 0.72983  0.63287  0.09047  Biso   1.000  H
  C829     1.0000 0.78013  0.70487  0.09117  Biso   1.000  C
  C830     1.0000 0.71323  0.66647  0.10427  Biso   1.000  C
  C831     1.0000 0.82963  0.78207  0.09607  Biso   1.000  C
  C832     1.0000 0.71003  0.71247  0.12117  Biso   1.000  C
  O155     1.0000 0.54643  0.70407  0.29085  Biso   1.000  O
  H548     1.0000 0.59453  0.66787  0.29667  Biso   1.000  H
  C833     1.0000 0.63343  0.65297  0.28393  Biso   1.000  C
  C834     1.0000 0.66733  0.71897  0.29805  Biso   1.000  C
  C835     1.0000 0.68113  0.64657  0.26804  Biso   1.000  C
  C836     1.0000 0.75103  0.77147  0.29231  Biso   1.000  C
  C837     1.0000 0.76883  0.54667  0.09672  Biso   1.000  C
  C838     1.0000 0.79263  0.71737  0.07717  Biso   1.000  C
  C839     1.0000 0.67043  0.64297  0.10250  Biso   1.000  C
  C840     1.0000 0.84163  0.78897  0.08067  Biso   1.000  C
  H549     1.0000 0.84273  0.80737  0.10177  Biso   1.000  H
  C841     1.0000 0.66473  0.68847  0.12027  Biso   1.000  C
  H550     1.0000 0.72483  0.73717  0.12707  Biso   1.000  H
  C842     1.0000 0.51763  0.72217  0.29224  Biso   1.000  C
  C843     1.0000 0.61163  0.60807  0.28527  Biso   1.000  C
  C844     1.0000 0.67783  0.72987  0.31045  Biso   1.000  C
  H551     1.0000 0.70683  0.66117  0.26247  Biso   1.000  H
  C845     1.0000 0.65803  0.59997  0.26857  Biso   1.000  C
  H552     1.0000 0.77543  0.78547  0.28637  Biso   1.000  H
  C846     1.0000 0.75893  0.78057  0.30531  Biso   1.000  C
  H553     1.0000 0.80243  0.55977  0.09557  Biso   1.000  H
  H554     1.0000 0.76043  0.52987  0.10487  Biso   1.000  H
  C847     1.0000 0.74433  0.51237  0.08636  Biso   1.000  C
  H555     1.0000 0.77833  0.69417  0.07087  Biso   1.000  H
  C848     1.0000 0.82373  0.76087  0.07367  Biso   1.000  C
  H556     1.0000 0.65833  0.61887  0.09637  Biso   1.000  H
  C849     1.0000 0.63963  0.65277  0.10967  Biso   1.000  C
  H557     1.0000 0.86483  0.81837  0.07777  Biso   1.000  H
  H558     1.0000 0.64683  0.69337  0.12637  Biso   1.000  H
  H559     1.0000 0.53593  0.75627  0.29267  Biso   1.000  H
  H560     1.0000 0.49633  0.71347  0.28497  Biso   1.000  H
  C850     1.0000 0.49153  0.70327  0.30397  Biso   1.000  C
  C851     1.0000 0.62523  0.58227  0.27787  Biso   1.000  C
  H561     1.0000 0.58683  0.59327  0.29107  Biso   1.000  H
  C852     1.0000 0.72013  0.76097  0.31418  Biso   1.000  C
  H562     1.0000 0.65433  0.71487  0.31667  Biso   1.000  H
  H563     1.0000 0.66393  0.58127  0.26297  Biso   1.000  H
  H564     1.0000 0.78943  0.79937  0.30837  Biso   1.000  H
  C853     1.0000 0.72303  0.52387  0.07709  Biso   1.000  C
  C854     1.0000 0.74113  0.46877  0.08520  Biso   1.000  C
  H565     1.0000 0.83043  0.76747  0.06497  Biso   1.000  H
  H566     1.0000 0.60743  0.63867  0.10807  Biso   1.000  H
  C855     1.0000 0.45633  0.71397  0.30787  Biso   1.000  C
  C856     1.0000 0.50193  0.68147  0.31247  Biso   1.000  C
  H567     1.0000 0.61073  0.55007  0.27947  Biso   1.000  H
  H568     1.0000 0.72523  0.77067  0.32277  Biso   1.000  H
  H569     1.0000 0.72413  0.55267  0.07767  Biso   1.000  H
  C857     1.0000 0.69983  0.49527  0.06676  Biso   1.000  C
  C858     1.0000 0.71873  0.44187  0.07505  Biso   1.000  C
  H570     1.0000 0.75433  0.45837  0.09147  Biso   1.000  H
  H571     1.0000 0.44683  0.73087  0.30267  Biso   1.000  H
  C859     1.0000 0.43733  0.69767  0.31995  Biso   1.000  C
  C860     1.0000 0.47493  0.65937  0.32446  Biso   1.000  C
  H572     1.0000 0.52883  0.67927  0.31107  Biso   1.000  H
  H573     1.0000 0.68663  0.50487  0.06037  Biso   1.000  H
  C861     1.0000 0.69673  0.45137  0.06626  Biso   1.000  C
  H574     1.0000 0.71903  0.41377  0.07417  Biso   1.000  H
  H575     1.0000 0.41613  0.70687  0.32267  Biso   1.000  H
  C862     1.0000 0.44363  0.67247  0.32784  Biso   1.000  C
  H576     1.0000 0.47933  0.63797  0.32927  Biso   1.000  H
  C863     1.0000 0.66983  0.41937  0.05587  Biso   1.000  C
  C864     1.0000 0.41493  0.65127  0.33857  Biso   1.000  C
  O156     1.0000 0.39683  0.67327  0.34246  Biso   1.000  O
  Zn25     1.0000 0.62223  0.40121  0.53962  Biso   1.000  Zn
  O157     1.0000 0.65950  0.38170  0.53097  Biso   1.000  O
  O158     1.0000 0.59280  0.41850  0.52634  Biso   1.000  O
  O159     1.0000 0.65870  0.45510  0.54914  Biso   1.000  O
  O160     1.0000 0.57540  0.35940  0.55005  Biso   1.000  O
  Zn26     1.0000 0.70260  0.44170  0.52340  Biso   1.000  Zn
  C865     1.0000 0.61900  0.44130  0.51729  Biso   1.000  C
  C866     1.0000 0.70080  0.48650  0.54567  Biso   1.000  C
  O161     1.0000 0.66010  0.45590  0.51466  Biso   1.000  O
  O162     1.0000 0.72580  0.48550  0.53682  Biso   1.000  O
  O163     1.0000 0.75200  0.46090  0.51148  Biso   1.000  O
  O164     1.0000 0.70860  0.38790  0.55389  Biso   1.000  O
  C867     1.0000 0.59140  0.45080  0.50707  Biso   1.000  C
  C868     1.0000 0.72340  0.52810  0.55462  Biso   1.000  C
  C869     1.0000 0.61310  0.47490  0.49556  Biso   1.000  C
  C870     1.0000 0.54670  0.43820  0.50822  Biso   1.000  C
  C871     1.0000 0.70060  0.53360  0.56569  Biso   1.000  C
  C872     1.0000 0.76450  0.56570  0.55127  Biso   1.000  C
  C873     1.0000 0.58940  0.48360  0.48717  Biso   1.000  C
  H577     1.0000 0.64450  0.48450  0.49400  Biso   1.000  H
  H578     1.0000 0.53110  0.42190  0.51570  Biso   1.000  H
  C874     1.0000 0.52140  0.44700  0.49940  Biso   1.000  C
  C875     1.0000 0.72130  0.57310  0.57317  Biso   1.000  C
  H579     1.0000 0.67060  0.50940  0.56790  Biso   1.000  H
  H580     1.0000 0.77880  0.56600  0.54350  Biso   1.000  H
  C876     1.0000 0.78620  0.60500  0.55963  Biso   1.000  C
  C877     1.0000 0.54230  0.46910  0.48817  Biso   1.000  C
  H581     1.0000 0.60540  0.50110  0.47990  Biso   1.000  H
  H582     1.0000 0.49010  0.43800  0.50100  Biso   1.000  H
  C878     1.0000 0.76440  0.60790  0.57022  Biso   1.000  C
  H583     1.0000 0.70550  0.57580  0.58030  Biso   1.000  H
  H584     1.0000 0.81630  0.62940  0.55770  Biso   1.000  H
  C879     1.0000 0.51480  0.47510  0.47818  Biso   1.000  C
  C880     1.0000 0.79100  0.64980  0.57836  Biso   1.000  C
  H585     1.0000 0.50200  0.49410  0.48140  Biso   1.000  H
  H586     1.0000 0.48870  0.44460  0.47570  Biso   1.000  H
  O165     1.0000 0.54260  0.49650  0.46774  Biso   1.000  O
  H587     1.0000 0.80240  0.67810  0.57320  Biso   1.000  H
  H588     1.0000 0.81790  0.64960  0.58220  Biso   1.000  H
  O166     1.0000 0.76140  0.64890  0.58787  Biso   1.000  O
  C881     1.0000 0.52740  0.51770  0.45921  Biso   1.000  C
  C882     1.0000 0.77780  0.68550  0.59548  Biso   1.000  C
  C883     1.0000 0.48100  0.50550  0.45893  Biso   1.000  C
  C884     1.0000 0.55630  0.53810  0.44822  Biso   1.000  C
  C885     1.0000 0.82280  0.71960  0.59558  Biso   1.000  C
  C886     1.0000 0.74880  0.68000  0.60635  Biso   1.000  C
  H589     1.0000 0.45940  0.48290  0.46460  Biso   1.000  H
  C887     1.0000 0.46690  0.52720  0.45016  Biso   1.000  C
  C888     1.0000 0.54130  0.55820  0.43991  Biso   1.000  C
  C889     1.0000 0.60310  0.54690  0.44580  Biso   1.000  C
  C890     1.0000 0.83700  0.75540  0.60500  Biso   1.000  C
  H590     1.0000 0.84410  0.71980  0.58960  Biso   1.000  H
  C891     1.0000 0.76150  0.71410  0.61521  Biso   1.000  C
  C892     1.0000 0.70020  0.64360  0.60815  Biso   1.000  C
  H591     1.0000 0.43800  0.52590  0.45110  Biso   1.000  H
  C893     1.0000 0.49710  0.55150  0.43969  Biso   1.000  C
  C894     1.0000 0.57940  0.58800  0.43026  Biso   1.000  C
  H592     1.0000 0.61310  0.53130  0.45210  Biso   1.000  H
  C895     1.0000 0.60480  0.53380  0.43350  Biso   1.000  C
  C896     1.0000 0.63110  0.59760  0.44650  Biso   1.000  C
  C897     1.0000 0.80430  0.74980  0.61540  Biso   1.000  C
  H593     1.0000 0.86670  0.78210  0.60460  Biso   1.000  H
  C898     1.0000 0.72860  0.71120  0.62437  Biso   1.000  C
  H594     1.0000 0.68970  0.61840  0.60170  Biso   1.000  H
  C899     1.0000 0.67180  0.66390  0.60855  Biso   1.000  C
  C900     1.0000 0.70170  0.62680  0.62191  Biso   1.000  C
  O167     1.0000 0.48590  0.57250  0.43094  Biso   1.000  O
  H595     1.0000 0.56970  0.60350  0.42380  Biso   1.000  H
  C901     1.0000 0.59140  0.55320  0.42450  Biso   1.000  C
  C902     1.0000 0.61990  0.62010  0.43760  Biso   1.000  C
  C903     1.0000 0.61910  0.50370  0.42940  Biso   1.000  C
  C904     1.0000 0.66910  0.62330  0.45450  Biso   1.000  C
  O168     1.0000 0.82430  0.78690  0.62418  Biso   1.000  O
  H596     1.0000 0.74000  0.73880  0.63000  Biso   1.000  H
  C905     1.0000 0.68620  0.69990  0.61726  Biso   1.000  C
  C906     1.0000 0.71830  0.66600  0.63138  Biso   1.000  C
  C907     1.0000 0.63210  0.65220  0.60137  Biso   1.000  C
  C908     1.0000 0.68710  0.58230  0.62564  Biso   1.000  C
  C909     1.0000 0.44450  0.56450  0.43005  Biso   1.000  C
  C910     1.0000 0.59140  0.54070  0.41050  Biso   1.000  C
  C911     1.0000 0.63920  0.66290  0.43583  Biso   1.000  C
  C912     1.0000 0.61400  0.49170  0.41400  Biso   1.000  C
  H597     1.0000 0.63130  0.49060  0.43510  Biso   1.000  H
  C913     1.0000 0.69040  0.66860  0.45360  Biso   1.000  C
  H598     1.0000 0.67900  0.60850  0.46040  Biso   1.000  H
  C914     1.0000 0.87120  0.81570  0.62557  Biso   1.000  C
  C915     1.0000 0.66310  0.72170  0.61860  Biso   1.000  C
  C916     1.0000 0.71870  0.65550  0.64378  Biso   1.000  C
  H599     1.0000 0.62100  0.62650  0.59580  Biso   1.000  H
  C917     1.0000 0.60860  0.67530  0.60190  Biso   1.000  C
  H600     1.0000 0.67670  0.55790  0.61970  Biso   1.000  H
  C918     1.0000 0.68830  0.57440  0.63864  Biso   1.000  C
  H601     1.0000 0.42400  0.53090  0.42890  Biso   1.000  H
  H602     1.0000 0.43610  0.57290  0.43820  Biso   1.000  H
  C919     1.0000 0.43470  0.58900  0.41969  Biso   1.000  C
  H603     1.0000 0.58250  0.55500  0.40420  Biso   1.000  H
  C920     1.0000 0.60380  0.50960  0.40700  Biso   1.000  C
  H604     1.0000 0.62720  0.67500  0.42970  Biso   1.000  H
  C921     1.0000 0.67980  0.69370  0.44300  Biso   1.000  C
  H605     1.0000 0.62020  0.46850  0.41110  Biso   1.000  H
  H606     1.0000 0.71320  0.68650  0.45970  Biso   1.000  H
  H607     1.0000 0.88700  0.79740  0.62600  Biso   1.000  H
  H608     1.0000 0.88380  0.83700  0.61830  Biso   1.000  H
  C922     1.0000 0.87840  0.84180  0.63730  Biso   1.000  C
  C923     1.0000 0.62370  0.70810  0.61120  Biso   1.000  C
  H609     1.0000 0.67310  0.74650  0.62440  Biso   1.000  H
  C924     1.0000 0.70750  0.61320  0.64751  Biso   1.000  C
  H610     1.0000 0.72720  0.67900  0.65000  Biso   1.000  H
  H611     1.0000 0.58400  0.66940  0.59630  Biso   1.000  H
  H612     1.0000 0.67660  0.54390  0.64170  Biso   1.000  H
  C925     1.0000 0.46750  0.61030  0.41042  Biso   1.000  C
  C926     1.0000 0.39430  0.59220  0.41853  Biso   1.000  C
  H613     1.0000 0.60370  0.50290  0.39830  Biso   1.000  H
  H614     1.0000 0.69790  0.72590  0.44140  Biso   1.000  H
  C927     1.0000 0.92430  0.87700  0.64120  Biso   1.000  C
  C928     1.0000 0.84620  0.83140  0.64580  Biso   1.000  C
  H615     1.0000 0.60600  0.72260  0.61280  Biso   1.000  H
  H616     1.0000 0.71210  0.60810  0.65610  Biso   1.000  H
  H617     1.0000 0.49520  0.60920  0.41100  Biso   1.000  H
  C929     1.0000 0.46210  0.63350  0.40009  Biso   1.000  C
  C930     1.0000 0.38980  0.61460  0.40838  Biso   1.000  C
  H618     1.0000 0.37070  0.57900  0.42480  Biso   1.000  H
  H619     1.0000 0.95070  0.88650  0.63600  Biso   1.000  H
  C931     1.0000 0.92700  0.89600  0.65328  Biso   1.000  C
  C932     1.0000 0.85110  0.85840  0.65779  Biso   1.000  C
  H620     1.0000 0.81710  0.80450  0.64440  Biso   1.000  H
  H621     1.0000 0.48490  0.64670  0.39370  Biso   1.000  H
  C933     1.0000 0.42130  0.63660  0.39959  Biso   1.000  C
  H622     1.0000 0.36140  0.61430  0.40750  Biso   1.000  H
  H623     1.0000 0.95740  0.91720  0.65600  Biso   1.000  H
  C934     1.0000 0.89550  0.88970  0.66117  Biso   1.000  C
  H624     1.0000 0.82530  0.85400  0.66260  Biso   1.000  H
  C935     1.0000 0.41620  0.66350  0.38920  Biso   1.000  C
  C936     1.0000 0.90300  0.91840  0.67190  Biso   1.000  C
  O169     1.0000 0.94310  0.93650  0.67579  Biso   1.000  O
  Zn27     1.0000 0.28890  0.73454  0.87295  Biso   1.000  Zn
  O170     1.0000 0.32617  0.71503  0.86430  Biso   1.000  O
  O171     1.0000 0.25947  0.75183  0.85967  Biso   1.000  O
  O172     1.0000 0.32537  0.78843  0.88247  Biso   1.000  O
  O173     1.0000 0.24207  0.69273  0.88338  Biso   1.000  O
  Zn28     1.0000 0.36927  0.77503  0.85673  Biso   1.000  Zn
  C937     1.0000 0.28567  0.77463  0.85062  Biso   1.000  C
  C938     1.0000 0.36747  0.81983  0.87900  Biso   1.000  C
  O174     1.0000 0.32677  0.78923  0.84799  Biso   1.000  O
  O175     1.0000 0.39247  0.81883  0.87015  Biso   1.000  O
  O176     1.0000 0.41867  0.79423  0.84481  Biso   1.000  O
  O177     1.0000 0.37527  0.72123  0.88722  Biso   1.000  O
  C939     1.0000 0.25807  0.78413  0.84040  Biso   1.000  C
  C940     1.0000 0.39007  0.86143  0.88795  Biso   1.000  C
  C941     1.0000 0.27977  0.80823  0.82889  Biso   1.000  C
  C942     1.0000 0.21337  0.77153  0.84155  Biso   1.000  C
  C943     1.0000 0.36727  0.86693  0.89902  Biso   1.000  C
  C944     1.0000 0.43117  0.89903  0.88460  Biso   1.000  C
  C945     1.0000 0.25607  0.81693  0.82050  Biso   1.000  C
  H625     1.0000 0.31117  0.81783  0.82733  Biso   1.000  H
  H626     1.0000 0.19777  0.75523  0.84903  Biso   1.000  H
  C946     1.0000 0.18807  0.78033  0.83273  Biso   1.000  C
  C947     1.0000 0.38797  0.90643  0.90650  Biso   1.000  C
  H627     1.0000 0.33727  0.84273  0.90123  Biso   1.000  H
  H628     1.0000 0.44547  0.89933  0.87683  Biso   1.000  H
  C948     1.0000 0.45287  0.93833  0.89296  Biso   1.000  C
  C949     1.0000 0.20897  0.80243  0.82150  Biso   1.000  C
  H629     1.0000 0.27207  0.83443  0.81323  Biso   1.000  H
  H630     1.0000 0.15677  0.77133  0.83433  Biso   1.000  H
  C950     1.0000 0.43107  0.94123  0.90355  Biso   1.000  C
  H631     1.0000 0.37217  0.90913  0.91363  Biso   1.000  H
  H632     1.0000 0.48297  0.96273  0.89103  Biso   1.000  H
  C951     1.0000 0.18147  0.80843  0.81151  Biso   1.000  C
  C952     1.0000 0.45767  0.98313  0.91169  Biso   1.000  C
  H633     1.0000 0.16867  0.82743  0.81473  Biso   1.000  H
  H634     1.0000 0.15537  0.77793  0.80903  Biso   1.000  H
  O178     1.0000 0.20927  0.82983  0.80107  Biso   1.000  O
  H635     1.0000 0.46907  0.01143  0.90653  Biso   1.000  H
  H636     1.0000 0.48457  0.98293  0.91553  Biso   1.000  H
  O179     1.0000 0.42807  0.98223  0.92120  Biso   1.000  O
  C953     1.0000 0.19407  0.85103  0.79254  Biso   1.000  C
  C954     1.0000 0.44447  0.01883  0.92881  Biso   1.000  C
  C955     1.0000 0.14767  0.83883  0.79226  Biso   1.000  C
  C956     1.0000 0.22297  0.87143  0.78155  Biso   1.000  C
  C957     1.0000 0.48947  0.05293  0.92891  Biso   1.000  C
  C958     1.0000 0.41547  0.01333  0.93968  Biso   1.000  C
  H637     1.0000 0.12607  0.81623  0.79793  Biso   1.000  H
  C959     1.0000 0.13357  0.86053  0.78349  Biso   1.000  C
  C960     1.0000 0.20797  0.89153  0.77324  Biso   1.000  C
  C961     1.0000 0.26977  0.88023  0.77913  Biso   1.000  C
  C962     1.0000 0.50367  0.08873  0.93833  Biso   1.000  C
  H638     1.0000 0.51077  0.05313  0.92293  Biso   1.000  H
  C963     1.0000 0.42817  0.04743  0.94854  Biso   1.000  C
  C964     1.0000 0.36687  0.97693  0.94148  Biso   1.000  C
  H639     1.0000 0.10467  0.85923  0.78443  Biso   1.000  H
  C965     1.0000 0.16377  0.88483  0.77302  Biso   1.000  C
  C966     1.0000 0.24607  0.92133  0.76359  Biso   1.000  C
  H640     1.0000 0.27977  0.86463  0.78543  Biso   1.000  H
  C967     1.0000 0.27147  0.86713  0.76683  Biso   1.000  C
  C968     1.0000 0.29777  0.93093  0.77983  Biso   1.000  C
  C969     1.0000 0.47097  0.08313  0.94873  Biso   1.000  C
  H641     1.0000 0.53337  0.11543  0.93793  Biso   1.000  H
  C970     1.0000 0.39527  0.04453  0.95770  Biso   1.000  C
  H642     1.0000 0.35637  0.95173  0.93503  Biso   1.000  H
  C971     1.0000 0.33847  0.99723  0.94188  Biso   1.000  C
  C972     1.0000 0.36837  0.96013  0.95524  Biso   1.000  C
  O180     1.0000 0.15257  0.90583  0.76427  Biso   1.000  O
  H643     1.0000 0.23637  0.93683  0.75713  Biso   1.000  H
  C973     1.0000 0.25807  0.88653  0.75783  Biso   1.000  C
  C974     1.0000 0.28657  0.95343  0.77093  Biso   1.000  C
  C975     1.0000 0.28577  0.83703  0.76273  Biso   1.000  C
  C976     1.0000 0.33577  0.95663  0.78783  Biso   1.000  C
  O181     1.0000 0.49097  0.12023  0.95751  Biso   1.000  O
  H644     1.0000 0.40667  0.07213  0.96333  Biso   1.000  H
  C977     1.0000 0.35287  0.03323  0.95059  Biso   1.000  C
  C978     1.0000 0.38497  0.99933  0.96471  Biso   1.000  C
  C979     1.0000 0.29877  0.98553  0.93470  Biso   1.000  C
  C980     1.0000 0.35377  0.91563  0.95897  Biso   1.000  C
  C981     1.0000 0.11117  0.89783  0.76338  Biso   1.000  C
  C982     1.0000 0.25807  0.87403  0.74383  Biso   1.000  C
  C983     1.0000 0.30587  0.99623  0.76916  Biso   1.000  C
  C984     1.0000 0.28067  0.82503  0.74733  Biso   1.000  C
  H645     1.0000 0.29797  0.82393  0.76843  Biso   1.000  H
  C985     1.0000 0.35707  0.00193  0.78693  Biso   1.000  C
  H646     1.0000 0.34567  0.94183  0.79373  Biso   1.000  H
  C986     1.0000 0.53787  0.14903  0.95890  Biso   1.000  C
  C987     1.0000 0.32977  0.05503  0.95193  Biso   1.000  C
  C988     1.0000 0.38537  0.98883  0.97711  Biso   1.000  C
  H647     1.0000 0.28767  0.95983  0.92913  Biso   1.000  H
  C989     1.0000 0.27527  0.00863  0.93523  Biso   1.000  C
  H648     1.0000 0.34337  0.89123  0.95303  Biso   1.000  H
  C990     1.0000 0.35497  0.90773  0.97197  Biso   1.000  C
  H649     1.0000 0.09067  0.86423  0.76223  Biso   1.000  H
  H650     1.0000 0.10277  0.90623  0.77153  Biso   1.000  H
  C991     1.0000 0.10137  0.92233  0.75302  Biso   1.000  C
  H651     1.0000 0.24917  0.88833  0.73753  Biso   1.000  H
  C992     1.0000 0.27047  0.84293  0.74033  Biso   1.000  C
  H652     1.0000 0.29387  0.00833  0.76303  Biso   1.000  H
  C993     1.0000 0.34647  0.02703  0.77633  Biso   1.000  C
  H653     1.0000 0.28687  0.80183  0.74443  Biso   1.000  H
  H654     1.0000 0.37987  0.01983  0.79303  Biso   1.000  H
  H655     1.0000 0.55367  0.13073  0.95933  Biso   1.000  H
  H656     1.0000 0.55047  0.17033  0.95163  Biso   1.000  H
  C994     1.0000 0.54507  0.17513  0.97063  Biso   1.000  C
  C995     1.0000 0.29037  0.04143  0.94453  Biso   1.000  C
  H657     1.0000 0.33977  0.07983  0.95773  Biso   1.000  H
  C996     1.0000 0.37417  0.94653  0.98084  Biso   1.000  C
  H658     1.0000 0.39387  0.01233  0.98333  Biso   1.000  H
  H659     1.0000 0.25067  0.00273  0.92963  Biso   1.000  H
  H660     1.0000 0.34327  0.87723  0.97503  Biso   1.000  H
  C997     1.0000 0.13417  0.94363  0.74375  Biso   1.000  C
  C998     1.0000 0.06097  0.92553  0.75186  Biso   1.000  C
  H661     1.0000 0.27037  0.83623  0.73163  Biso   1.000  H
  H662     1.0000 0.36457  0.05923  0.77473  Biso   1.000  H
  C999     1.0000 0.59097  0.21033  0.97453  Biso   1.000  C
  C1000    1.0000 0.51287  0.16473  0.97913  Biso   1.000  C
  H663     1.0000 0.27267  0.05593  0.94613  Biso   1.000  H
  H664     1.0000 0.37877  0.94143  0.98943  Biso   1.000  H
  H665     1.0000 0.16187  0.94253  0.74433  Biso   1.000  H
  C1001    1.0000 0.12877  0.96683  0.73342  Biso   1.000  C
  C1002    1.0000 0.05647  0.94793  0.74171  Biso   1.000  C
  H666     1.0000 0.03737  0.91233  0.75813  Biso   1.000  H
  H667     1.0000 0.61737  0.21983  0.96933  Biso   1.000  H
  C1003    1.0000 0.59367  0.22933  0.98661  Biso   1.000  C
  C1004    1.0000 0.51777  0.19173  0.99112  Biso   1.000  C
  H668     1.0000 0.48377  0.13783  0.97773  Biso   1.000  H
  H669     1.0000 0.15157  0.98003  0.72703  Biso   1.000  H
  C1005    1.0000 0.08797  0.96993  0.73292  Biso   1.000  C
  H670     1.0000 0.02807  0.94763  0.74083  Biso   1.000  H
  H671     1.0000 0.62407  0.25053  0.98933  Biso   1.000  H
  C1006    1.0000 0.56217  0.22303  0.99450  Biso   1.000  C
  H672     1.0000 0.49197  0.18733  0.99593  Biso   1.000  H
  C1007    1.0000 0.08287  0.99683  0.72253  Biso   1.000  C
  C1008    1.0000 0.56967  0.25173  0.00523  Biso   1.000  C
  O182     1.0000 0.60977  0.26983  0.00912  Biso   1.000  O
  Zn29     1.0000 0.95556  0.06788  0.20629  Biso   1.000  Zn
  O183     1.0000 0.99283  0.04837  0.19764  Biso   1.000  O
  O184     1.0000 0.92613  0.08517  0.19301  Biso   1.000  O
  O185     1.0000 0.99203  0.12177  0.21581  Biso   1.000  O
  O186     1.0000 0.90873  0.02607  0.21672  Biso   1.000  O
  Zn30     1.0000 0.03593  0.10837  0.19007  Biso   1.000  Zn
  C1009    1.0000 0.95233  0.10797  0.18396  Biso   1.000  C
  C1010    1.0000 0.03413  0.15317  0.21234  Biso   1.000  C
  O187     1.0000 0.99343  0.12257  0.18133  Biso   1.000  O
  O188     1.0000 0.05913  0.15217  0.20349  Biso   1.000  O
  O189     1.0000 0.08533  0.12757  0.17815  Biso   1.000  O
  O190     1.0000 0.04193  0.05457  0.22056  Biso   1.000  O
  C1011    1.0000 0.92473  0.11747  0.17374  Biso   1.000  C
  C1012    1.0000 0.05673  0.19477  0.22129  Biso   1.000  C
  C1013    1.0000 0.94643  0.14157  0.16223  Biso   1.000  C
  C1014    1.0000 0.88003  0.10487  0.17489  Biso   1.000  C
  C1015    1.0000 0.03393  0.20027  0.23236  Biso   1.000  C
  C1016    1.0000 0.09783  0.23237  0.21794  Biso   1.000  C
  C1017    1.0000 0.92273  0.15027  0.15384  Biso   1.000  C
  H673     1.0000 0.97783  0.15117  0.16067  Biso   1.000  H
  H674     1.0000 0.86443  0.08857  0.18237  Biso   1.000  H
  C1018    1.0000 0.85473  0.11367  0.16607  Biso   1.000  C
  C1019    1.0000 0.05463  0.23977  0.23984  Biso   1.000  C
  H675     1.0000 0.00393  0.17607  0.23457  Biso   1.000  H
  H676     1.0000 0.11213  0.23267  0.21017  Biso   1.000  H
  C1020    1.0000 0.11953  0.27167  0.22630  Biso   1.000  C
  C1021    1.0000 0.87563  0.13577  0.15484  Biso   1.000  C
  H677     1.0000 0.93873  0.16777  0.14657  Biso   1.000  H
  H678     1.0000 0.82343  0.10467  0.16767  Biso   1.000  H
  C1022    1.0000 0.09773  0.27457  0.23689  Biso   1.000  C
  H679     1.0000 0.03883  0.24247  0.24697  Biso   1.000  H
  H680     1.0000 0.14963  0.29607  0.22437  Biso   1.000  H
  C1023    1.0000 0.84813  0.14177  0.14485  Biso   1.000  C
  C1024    1.0000 0.12433  0.31647  0.24503  Biso   1.000  C
  H681     1.0000 0.83533  0.16077  0.14807  Biso   1.000  H
  H682     1.0000 0.82203  0.11127  0.14237  Biso   1.000  H
  O191     1.0000 0.87593  0.16317  0.13441  Biso   1.000  O
  H683     1.0000 0.13573  0.34477  0.23987  Biso   1.000  H
  H684     1.0000 0.15123  0.31627  0.24887  Biso   1.000  H
  O192     1.0000 0.09473  0.31557  0.25454  Biso   1.000  O
  C1025    1.0000 0.86073  0.18437  0.12588  Biso   1.000  C
  C1026    1.0000 0.11113  0.35217  0.26215  Biso   1.000  C
  C1027    1.0000 0.81433  0.17217  0.12560  Biso   1.000  C
  C1028    1.0000 0.88963  0.20477  0.11489  Biso   1.000  C
  C1029    1.0000 0.15613  0.38627  0.26225  Biso   1.000  C
  C1030    1.0000 0.08213  0.34667  0.27302  Biso   1.000  C
  H685     1.0000 0.79273  0.14957  0.13127  Biso   1.000  H
  C1031    1.0000 0.80023  0.19387  0.11683  Biso   1.000  C
  C1032    1.0000 0.87463  0.22487  0.10658  Biso   1.000  C
  C1033    1.0000 0.93643  0.21357  0.11247  Biso   1.000  C
  C1034    1.0000 0.17033  0.42207  0.27167  Biso   1.000  C
  H686     1.0000 0.17743  0.38647  0.25627  Biso   1.000  H
  C1035    1.0000 0.09483  0.38077  0.28188  Biso   1.000  C
  C1036    1.0000 0.03353  0.31027  0.27482  Biso   1.000  C
  H687     1.0000 0.77133  0.19257  0.11777  Biso   1.000  H
  C1037    1.0000 0.83043  0.21817  0.10636  Biso   1.000  C
  C1038    1.0000 0.91273  0.25467  0.09693  Biso   1.000  C
  H688     1.0000 0.94643  0.19797  0.11877  Biso   1.000  H
  C1039    1.0000 0.93813  0.20047  0.10017  Biso   1.000  C
  C1040    1.0000 0.96443  0.26427  0.11317  Biso   1.000  C
  C1041    1.0000 0.13763  0.41647  0.28207  Biso   1.000  C
  H689     1.0000 0.20003  0.44877  0.27127  Biso   1.000  H
  C1042    1.0000 0.06193  0.37787  0.29104  Biso   1.000  C
  H690     1.0000 0.02303  0.28507  0.26837  Biso   1.000  H
  C1043    1.0000 0.00513  0.33057  0.27522  Biso   1.000  C
  C1044    1.0000 0.03503  0.29347  0.28858  Biso   1.000  C
  O193     1.0000 0.81923  0.23917  0.09761  Biso   1.000  O
  H691     1.0000 0.90303  0.27017  0.09047  Biso   1.000  H
  C1045    1.0000 0.92473  0.21987  0.09117  Biso   1.000  C
  C1046    1.0000 0.95323  0.28677  0.10427  Biso   1.000  C
  C1047    1.0000 0.95243  0.17037  0.09607  Biso   1.000  C
  C1048    1.0000 0.00243  0.28997  0.12117  Biso   1.000  C
  O194     1.0000 0.15763  0.45357  0.29085  Biso   1.000  O
  H692     1.0000 0.07333  0.40547  0.29667  Biso   1.000  H
  C1049    1.0000 0.01953  0.36657  0.28393  Biso   1.000  C
  C1050    1.0000 0.05163  0.33267  0.29805  Biso   1.000  C
  C1051    1.0000 0.96543  0.31887  0.26804  Biso   1.000  C
  C1052    1.0000 0.02043  0.24897  0.29231  Biso   1.000  C
  C1053    1.0000 0.77783  0.23117  0.09672  Biso   1.000  C
  C1054    1.0000 0.92473  0.20737  0.07717  Biso   1.000  C
  C1055    1.0000 0.97253  0.32957  0.10250  Biso   1.000  C
  C1056    1.0000 0.94733  0.15837  0.08067  Biso   1.000  C
  H693     1.0000 0.96463  0.15727  0.10177  Biso   1.000  H
  C1057    1.0000 0.02373  0.33527  0.12027  Biso   1.000  C
  H694     1.0000 0.01233  0.27517  0.12707  Biso   1.000  H
  C1058    1.0000 0.20453  0.48237  0.29224  Biso   1.000  C
  C1059    1.0000 0.99643  0.38837  0.28527  Biso   1.000  C
  C1060    1.0000 0.05203  0.32217  0.31045  Biso   1.000  C
  H695     1.0000 0.95433  0.29317  0.26247  Biso   1.000  H
  C1061    1.0000 0.94193  0.34197  0.26857  Biso   1.000  C
  H696     1.0000 0.01003  0.22457  0.28637  Biso   1.000  H
  C1062    1.0000 0.02163  0.24107  0.30531  Biso   1.000  C
  H697     1.0000 0.75733  0.19757  0.09557  Biso   1.000  H
  H698     1.0000 0.76943  0.23957  0.10487  Biso   1.000  H
  C1063    1.0000 0.76803  0.25567  0.08636  Biso   1.000  C
  H699     1.0000 0.91583  0.22167  0.07087  Biso   1.000  H
  C1064    1.0000 0.93713  0.17627  0.07367  Biso   1.000  C
  H700     1.0000 0.96053  0.34167  0.09637  Biso   1.000  H
  C1065    1.0000 0.01313  0.36037  0.10967  Biso   1.000  C
  H701     1.0000 0.95353  0.13517  0.07777  Biso   1.000  H
  H702     1.0000 0.04653  0.35317  0.12637  Biso   1.000  H
  H703     1.0000 0.22033  0.46407  0.29267  Biso   1.000  H
  H704     1.0000 0.21713  0.50367  0.28497  Biso   1.000  H
  C1066    1.0000 0.21173  0.50847  0.30397  Biso   1.000  C
  C1067    1.0000 0.95703  0.37477  0.27787  Biso   1.000  C
  H705     1.0000 0.00643  0.41317  0.29107  Biso   1.000  H
  C1068    1.0000 0.04083  0.27987  0.31418  Biso   1.000  C
  H706     1.0000 0.06053  0.34567  0.31667  Biso   1.000  H
  H707     1.0000 0.91733  0.33607  0.26297  Biso   1.000  H
  H708     1.0000 0.00993  0.21057  0.30837  Biso   1.000  H
  C1069    1.0000 0.80083  0.27697  0.07709  Biso   1.000  C
  C1070    1.0000 0.72763  0.25887  0.08520  Biso   1.000  C
  H709     1.0000 0.93703  0.16957  0.06497  Biso   1.000  H
  H710     1.0000 0.03123  0.39257  0.10807  Biso   1.000  H
  C1071    1.0000 0.25763  0.54367  0.30787  Biso   1.000  C
  C1072    1.0000 0.17953  0.49807  0.31247  Biso   1.000  C
  H711     1.0000 0.93933  0.38927  0.27947  Biso   1.000  H
  H712     1.0000 0.04543  0.27477  0.32277  Biso   1.000  H
  H713     1.0000 0.82853  0.27587  0.07767  Biso   1.000  H
  C1073    1.0000 0.79543  0.30017  0.06676  Biso   1.000  C
  C1074    1.0000 0.72313  0.28127  0.07505  Biso   1.000  C
  H714     1.0000 0.70403  0.24567  0.09147  Biso   1.000  H
  H715     1.0000 0.28403  0.55317  0.30267  Biso   1.000  H
  C1075    1.0000 0.26033  0.56267  0.31995  Biso   1.000  C
  C1076    1.0000 0.18443  0.52507  0.32446  Biso   1.000  C
  H716     1.0000 0.15043  0.47117  0.31107  Biso   1.000  H
  H717     1.0000 0.81823  0.31337  0.06037  Biso   1.000  H
  C1077    1.0000 0.75463  0.30327  0.06626  Biso   1.000  C
  H718     1.0000 0.69473  0.28097  0.07417  Biso   1.000  H
  H719     1.0000 0.29073  0.58387  0.32267  Biso   1.000  H
  C1078    1.0000 0.22883  0.55637  0.32784  Biso   1.000  C
  H720     1.0000 0.15863  0.52067  0.32927  Biso   1.000  H
  C1079    1.0000 0.74953  0.33017  0.05587  Biso   1.000  C
  C1080    1.0000 0.23633  0.58507  0.33857  Biso   1.000  C
  O195     1.0000 0.27643  0.60317  0.34246  Biso   1.000  O
  Zn31     1.0000 0.77898  0.37777  0.53962  Biso   1.000  Zn
  O196     1.0000 0.72220  0.34050  0.53097  Biso   1.000  O
  O197     1.0000 0.82570  0.40720  0.52634  Biso   1.000  O
  O198     1.0000 0.79640  0.34130  0.54914  Biso   1.000  O
  O199     1.0000 0.78400  0.42460  0.55005  Biso   1.000  O
  Zn32     1.0000 0.73910  0.29740  0.52340  Biso   1.000  Zn
  C1081    1.0000 0.82230  0.38100  0.51729  Biso   1.000  C
  C1082    1.0000 0.78570  0.29920  0.54567  Biso   1.000  C
  O200     1.0000 0.79580  0.33990  0.51466  Biso   1.000  O
  O201     1.0000 0.75970  0.27420  0.53682  Biso   1.000  O
  O202     1.0000 0.70890  0.24800  0.51148  Biso   1.000  O
  O203     1.0000 0.67930  0.29140  0.55389  Biso   1.000  O
  C1083    1.0000 0.85940  0.40860  0.50707  Biso   1.000  C
  C1084    1.0000 0.80470  0.27660  0.55462  Biso   1.000  C
  C1085    1.0000 0.86180  0.38690  0.49556  Biso   1.000  C
  C1086    1.0000 0.89150  0.45330  0.50822  Biso   1.000  C
  C1087    1.0000 0.83300  0.29940  0.56569  Biso   1.000  C
  C1088    1.0000 0.80120  0.23550  0.55127  Biso   1.000  C
  C1089    1.0000 0.89420  0.41060  0.48717  Biso   1.000  C
  H721     1.0000 0.84000  0.35550  0.49400  Biso   1.000  H
  H722     1.0000 0.89080  0.46890  0.51570  Biso   1.000  H
  C1090    1.0000 0.92560  0.47860  0.49940  Biso   1.000  C
  C1091    1.0000 0.85180  0.27870  0.57317  Biso   1.000  C
  H723     1.0000 0.83880  0.32940  0.56790  Biso   1.000  H
  H724     1.0000 0.78720  0.22120  0.54350  Biso   1.000  H
  C1092    1.0000 0.81880  0.21380  0.55963  Biso   1.000  C
  C1093    1.0000 0.92680  0.45770  0.48817  Biso   1.000  C
  H725     1.0000 0.89570  0.39460  0.47990  Biso   1.000  H
  H726     1.0000 0.94790  0.50990  0.50100  Biso   1.000  H
  C1094    1.0000 0.84350  0.23560  0.57022  Biso   1.000  C
  H727     1.0000 0.87030  0.29450  0.58030  Biso   1.000  H
  H728     1.0000 0.81310  0.18370  0.55770  Biso   1.000  H
  C1095    1.0000 0.96030  0.48520  0.47818  Biso   1.000  C
  C1096    1.0000 0.85880  0.20900  0.57836  Biso   1.000  C
  H729     1.0000 0.99210  0.49800  0.48140  Biso   1.000  H
  H730     1.0000 0.95590  0.51130  0.47570  Biso   1.000  H
  O204     1.0000 0.95390  0.45740  0.46774  Biso   1.000  O
  H731     1.0000 0.87570  0.19760  0.57320  Biso   1.000  H
  H732     1.0000 0.83170  0.18210  0.58220  Biso   1.000  H
  O205     1.0000 0.88750  0.23860  0.58787  Biso   1.000  O
  C1097    1.0000 0.99030  0.47260  0.45921  Biso   1.000  C
  C1098    1.0000 0.90770  0.22220  0.59548  Biso   1.000  C
  C1099    1.0000 0.02450  0.51900  0.45893  Biso   1.000  C
  C1100    1.0000 0.98180  0.44370  0.44822  Biso   1.000  C
  C1101    1.0000 0.89680  0.17720  0.59558  Biso   1.000  C
  C1102    1.0000 0.93120  0.25120  0.60635  Biso   1.000  C
  H733     1.0000 0.02350  0.54060  0.46460  Biso   1.000  H
  C1103    1.0000 0.06030  0.53310  0.45016  Biso   1.000  C
  C1104    1.0000 0.01690  0.45870  0.43991  Biso   1.000  C
  C1105    1.0000 0.94380  0.39690  0.44580  Biso   1.000  C
  C1106    1.0000 0.91840  0.16300  0.60500  Biso   1.000  C
  H734     1.0000 0.87570  0.15590  0.58960  Biso   1.000  H
  C1107    1.0000 0.95260  0.23850  0.61521  Biso   1.000  C
  C1108    1.0000 0.94340  0.29980  0.60815  Biso   1.000  C
  H735     1.0000 0.08790  0.56200  0.45110  Biso   1.000  H
  C1109    1.0000 0.05440  0.50290  0.43969  Biso   1.000  C
  C1110    1.0000 0.00860  0.42060  0.43026  Biso   1.000  C
  H736     1.0000 0.91820  0.38690  0.45210  Biso   1.000  H
  C1111    1.0000 0.92900  0.39520  0.43350  Biso   1.000  C
  C1112    1.0000 0.96650  0.36890  0.44650  Biso   1.000  C
  C1113    1.0000 0.94550  0.19570  0.61540  Biso   1.000  C
  H737     1.0000 0.91540  0.13330  0.60460  Biso   1.000  H
  C1114    1.0000 0.98260  0.27140  0.62437  Biso   1.000  C
  H738     1.0000 0.92870  0.31030  0.60170  Biso   1.000  H
  C1115    1.0000 0.99210  0.32820  0.60855  Biso   1.000  C
  C1116    1.0000 0.92510  0.29830  0.62191  Biso   1.000  C
  O206     1.0000 0.08660  0.51410  0.43094  Biso   1.000  O
  H739     1.0000 0.03380  0.43030  0.42380  Biso   1.000  H
  C1117    1.0000 0.96180  0.40860  0.42450  Biso   1.000  C
  C1118    1.0000 0.00020  0.38010  0.43760  Biso   1.000  C
  C1119    1.0000 0.88460  0.38090  0.42940  Biso   1.000  C
  C1120    1.0000 0.95420  0.33090  0.45450  Biso   1.000  C
  O207     1.0000 0.96260  0.17570  0.62418  Biso   1.000  O
  H740     1.0000 0.99880  0.26000  0.63000  Biso   1.000  H
  C1121    1.0000 0.01370  0.31380  0.61726  Biso   1.000  C
  C1122    1.0000 0.94770  0.28170  0.63138  Biso   1.000  C
  C1123    1.0000 0.02010  0.36790  0.60137  Biso   1.000  C
  C1124    1.0000 0.89520  0.31290  0.62564  Biso   1.000  C
  C1125    1.0000 0.12000  0.55550  0.43005  Biso   1.000  C
  C1126    1.0000 0.94930  0.40860  0.41050  Biso   1.000  C
  C1127    1.0000 0.02370  0.36080  0.43583  Biso   1.000  C
  C1128    1.0000 0.87770  0.38600  0.41400  Biso   1.000  C
  H741     1.0000 0.85930  0.36870  0.43510  Biso   1.000  H
  C1129    1.0000 0.97820  0.30960  0.45360  Biso   1.000  C
  H742     1.0000 0.92950  0.32100  0.46040  Biso   1.000  H
  C1130    1.0000 0.94450  0.12880  0.62557  Biso   1.000  C
  C1131    1.0000 0.05860  0.33690  0.61860  Biso   1.000  C
  C1132    1.0000 0.93680  0.28130  0.64378  Biso   1.000  C
  H743     1.0000 0.00550  0.37900  0.59580  Biso   1.000  H
  C1133    1.0000 0.06670  0.39140  0.60190  Biso   1.000  C
  H744     1.0000 0.88120  0.32330  0.61970  Biso   1.000  H
  C1134    1.0000 0.88610  0.31170  0.63864  Biso   1.000  C
  H745     1.0000 0.10690  0.57600  0.42890  Biso   1.000  H
  H746     1.0000 0.13680  0.56390  0.43820  Biso   1.000  H
  C1135    1.0000 0.15430  0.56530  0.41969  Biso   1.000  C
  H747     1.0000 0.97250  0.41750  0.40420  Biso   1.000  H
  C1136    1.0000 0.90580  0.39620  0.40700  Biso   1.000  C
  H748     1.0000 0.04780  0.37280  0.42970  Biso   1.000  H
  C1137    1.0000 0.01390  0.32020  0.44300  Biso   1.000  C
  H749     1.0000 0.84830  0.37980  0.41110  Biso   1.000  H
  H750     1.0000 0.97330  0.28680  0.45970  Biso   1.000  H
  H751     1.0000 0.91040  0.11300  0.62600  Biso   1.000  H
  H752     1.0000 0.95320  0.11620  0.61830  Biso   1.000  H
  C1138    1.0000 0.96340  0.12160  0.63730  Biso   1.000  C
  C1139    1.0000 0.08440  0.37630  0.61120  Biso   1.000  C
  H753     1.0000 0.07340  0.32690  0.62440  Biso   1.000  H
  C1140    1.0000 0.90570  0.29250  0.64751  Biso   1.000  C
  H754     1.0000 0.95180  0.27280  0.65000  Biso   1.000  H
  H755     1.0000 0.08540  0.41600  0.59630  Biso   1.000  H
  H756     1.0000 0.86730  0.32340  0.64170  Biso   1.000  H
  C1141    1.0000 0.14280  0.53250  0.41042  Biso   1.000  C
  C1142    1.0000 0.19790  0.60570  0.41853  Biso   1.000  C
  H757     1.0000 0.89920  0.39630  0.39830  Biso   1.000  H
  H758     1.0000 0.02800  0.30210  0.44140  Biso   1.000  H
  C1143    1.0000 0.95270  0.07570  0.64120  Biso   1.000  C
  C1144    1.0000 0.98520  0.15380  0.64580  Biso   1.000  C
  H759     1.0000 0.11660  0.39400  0.61280  Biso   1.000  H
  H760     1.0000 0.89600  0.28790  0.65610  Biso   1.000  H
  H761     1.0000 0.11400  0.50480  0.41100  Biso   1.000  H
  C1145    1.0000 0.17140  0.53790  0.40009  Biso   1.000  C
  C1146    1.0000 0.22480  0.61020  0.40838  Biso   1.000  C
  H762     1.0000 0.20830  0.62930  0.42480  Biso   1.000  H
  H763     1.0000 0.93580  0.04930  0.63600  Biso   1.000  H
  C1147    1.0000 0.96900  0.07300  0.65328  Biso   1.000  C
  C1148    1.0000 0.00730  0.14890  0.65779  Biso   1.000  C
  H764     1.0000 0.98740  0.18290  0.64440  Biso   1.000  H
  H765     1.0000 0.16180  0.51510  0.39370  Biso   1.000  H
  C1149    1.0000 0.21530  0.57870  0.39959  Biso   1.000  C
  H766     1.0000 0.25290  0.63860  0.40750  Biso   1.000  H
  H767     1.0000 0.95980  0.04260  0.65600  Biso   1.000  H
  C1150    1.0000 0.99420  0.10450  0.66117  Biso   1.000  C
  H768     1.0000 0.02870  0.17470  0.66260  Biso   1.000  H
  C1151    1.0000 0.24730  0.58380  0.38920  Biso   1.000  C
  C1152    1.0000 0.01540  0.09700  0.67190  Biso   1.000  C
  O208     1.0000 0.99340  0.05690  0.67579  Biso   1.000  O
  Zn33     1.0000 0.44565  0.71110  0.87295  Biso   1.000  Zn
  O209     1.0000 0.38887  0.67383  0.86430  Biso   1.000  O
  O210     1.0000 0.49237  0.74053  0.85967  Biso   1.000  O
  O211     1.0000 0.46307  0.67463  0.88247  Biso   1.000  O
  O212     1.0000 0.45067  0.75793  0.88338  Biso   1.000  O
  Zn34     1.0000 0.40577  0.63073  0.85673  Biso   1.000  Zn
  C1153    1.0000 0.48897  0.71433  0.85062  Biso   1.000  C
  C1154    1.0000 0.45237  0.63253  0.87900  Biso   1.000  C
  O213     1.0000 0.46247  0.67323  0.84799  Biso   1.000  O
  O214     1.0000 0.42637  0.60753  0.87015  Biso   1.000  O
  O215     1.0000 0.37557  0.58133  0.84481  Biso   1.000  O
  O216     1.0000 0.34597  0.62473  0.88722  Biso   1.000  O
  C1155    1.0000 0.52607  0.74193  0.84040  Biso   1.000  C
  C1156    1.0000 0.47137  0.60993  0.88795  Biso   1.000  C
  C1157    1.0000 0.52847  0.72023  0.82889  Biso   1.000  C
  C1158    1.0000 0.55817  0.78663  0.84155  Biso   1.000  C
  C1159    1.0000 0.49967  0.63273  0.89902  Biso   1.000  C
  C1160    1.0000 0.46787  0.56883  0.88460  Biso   1.000  C
  C1161    1.0000 0.56087  0.74393  0.82050  Biso   1.000  C
  H769     1.0000 0.50667  0.68883  0.82733  Biso   1.000  H
  H770     1.0000 0.55747  0.80223  0.84903  Biso   1.000  H
  C1162    1.0000 0.59227  0.81193  0.83273  Biso   1.000  C
  C1163    1.0000 0.51847  0.61203  0.90650  Biso   1.000  C
  H771     1.0000 0.50547  0.66273  0.90123  Biso   1.000  H
  H772     1.0000 0.45387  0.55453  0.87683  Biso   1.000  H
  C1164    1.0000 0.48547  0.54713  0.89296  Biso   1.000  C
  C1165    1.0000 0.59347  0.79103  0.82150  Biso   1.000  C
  H773     1.0000 0.56237  0.72793  0.81323  Biso   1.000  H
  H774     1.0000 0.61457  0.84323  0.83433  Biso   1.000  H
  C1166    1.0000 0.51017  0.56893  0.90355  Biso   1.000  C
  H775     1.0000 0.53697  0.62783  0.91363  Biso   1.000  H
  H776     1.0000 0.47977  0.51703  0.89103  Biso   1.000  H
  C1167    1.0000 0.62697  0.81853  0.81151  Biso   1.000  C
  C1168    1.0000 0.52547  0.54233  0.91169  Biso   1.000  C
  H777     1.0000 0.65877  0.83133  0.81473  Biso   1.000  H
  H778     1.0000 0.62257  0.84463  0.80903  Biso   1.000  H
  O217     1.0000 0.62057  0.79073  0.80107  Biso   1.000  O
  H779     1.0000 0.54237  0.53093  0.90653  Biso   1.000  H
  H780     1.0000 0.49837  0.51543  0.91553  Biso   1.000  H
  O218     1.0000 0.55417  0.57193  0.92120  Biso   1.000  O
  C1169    1.0000 0.65697  0.80593  0.79254  Biso   1.000  C
  C1170    1.0000 0.57437  0.55553  0.92881  Biso   1.000  C
  C1171    1.0000 0.69117  0.85233  0.79226  Biso   1.000  C
  C1172    1.0000 0.64847  0.77703  0.78155  Biso   1.000  C
  C1173    1.0000 0.56347  0.51053  0.92891  Biso   1.000  C
  C1174    1.0000 0.59787  0.58453  0.93968  Biso   1.000  C
  H781     1.0000 0.69017  0.87393  0.79793  Biso   1.000  H
  C1175    1.0000 0.72697  0.86643  0.78349  Biso   1.000  C
  C1176    1.0000 0.68357  0.79203  0.77324  Biso   1.000  C
  C1177    1.0000 0.61047  0.73023  0.77913  Biso   1.000  C
  C1178    1.0000 0.58507  0.49633  0.93833  Biso   1.000  C
  H782     1.0000 0.54237  0.48923  0.92293  Biso   1.000  H
  C1179    1.0000 0.61927  0.57183  0.94854  Biso   1.000  C
  C1180    1.0000 0.61007  0.63313  0.94148  Biso   1.000  C
  H783     1.0000 0.75457  0.89533  0.78443  Biso   1.000  H
  C1181    1.0000 0.72107  0.83623  0.77302  Biso   1.000  C
  C1182    1.0000 0.67527  0.75393  0.76359  Biso   1.000  C
  H784     1.0000 0.58487  0.72023  0.78543  Biso   1.000  H
  C1183    1.0000 0.59567  0.72853  0.76683  Biso   1.000  C
  C1184    1.0000 0.63317  0.70223  0.77983  Biso   1.000  C
  C1185    1.0000 0.61217  0.52903  0.94873  Biso   1.000  C
  H785     1.0000 0.58207  0.46663  0.93793  Biso   1.000  H
  C1186    1.0000 0.64927  0.60473  0.95770  Biso   1.000  C
  H786     1.0000 0.59537  0.64363  0.93503  Biso   1.000  H
  C1187    1.0000 0.65877  0.66153  0.94188  Biso   1.000  C
  C1188    1.0000 0.59177  0.63163  0.95524  Biso   1.000  C
  O219     1.0000 0.75327  0.84743  0.76427  Biso   1.000  O
  H787     1.0000 0.70047  0.76363  0.75713  Biso   1.000  H
  C1189    1.0000 0.62847  0.74193  0.75783  Biso   1.000  C
  C1190    1.0000 0.66687  0.71343  0.77093  Biso   1.000  C
  C1191    1.0000 0.55127  0.71423  0.76273  Biso   1.000  C
  C1192    1.0000 0.62087  0.66423  0.78783  Biso   1.000  C
  O220     1.0000 0.62927  0.50903  0.95751  Biso   1.000  O
  H788     1.0000 0.66547  0.59333  0.96333  Biso   1.000  H
  C1193    1.0000 0.68037  0.64713  0.95059  Biso   1.000  C
  C1194    1.0000 0.61437  0.61503  0.96471  Biso   1.000  C
  C1195    1.0000 0.68677  0.70123  0.93470  Biso   1.000  C
  C1196    1.0000 0.56187  0.64623  0.95897  Biso   1.000  C
  C1197    1.0000 0.78667  0.88883  0.76338  Biso   1.000  C
  C1198    1.0000 0.61597  0.74193  0.74383  Biso   1.000  C
  C1199    1.0000 0.69037  0.69413  0.76916  Biso   1.000  C
  C1200    1.0000 0.54437  0.71933  0.74733  Biso   1.000  C
  H789     1.0000 0.52597  0.70203  0.76843  Biso   1.000  H
  C1201    1.0000 0.64487  0.64293  0.78693  Biso   1.000  C
  H790     1.0000 0.59617  0.65433  0.79373  Biso   1.000  H
  C1202    1.0000 0.61117  0.46213  0.95890  Biso   1.000  C
  C1203    1.0000 0.72527  0.67023  0.95193  Biso   1.000  C
  C1204    1.0000 0.60347  0.61463  0.97711  Biso   1.000  C
  H791     1.0000 0.67217  0.71233  0.92913  Biso   1.000  H
  C1205    1.0000 0.73337  0.72473  0.93523  Biso   1.000  C
  H792     1.0000 0.54787  0.65663  0.95303  Biso   1.000  H
  C1206    1.0000 0.55277  0.64503  0.97197  Biso   1.000  C
  H793     1.0000 0.77357  0.90933  0.76223  Biso   1.000  H
  H794     1.0000 0.80347  0.89723  0.77153  Biso   1.000  H
  C1207    1.0000 0.82097  0.89863  0.75302  Biso   1.000  C
  H795     1.0000 0.63917  0.75083  0.73753  Biso   1.000  H
  C1208    1.0000 0.57247  0.72953  0.74033  Biso   1.000  C
  H796     1.0000 0.71447  0.70613  0.76303  Biso   1.000  H
  C1209    1.0000 0.68057  0.65353  0.77633  Biso   1.000  C
  H797     1.0000 0.51497  0.71313  0.74443  Biso   1.000  H
  H798     1.0000 0.63997  0.62013  0.79303  Biso   1.000  H
  H799     1.0000 0.57707  0.44633  0.95933  Biso   1.000  H
  H800     1.0000 0.61987  0.44953  0.95163  Biso   1.000  H
  C1210    1.0000 0.63007  0.45493  0.97063  Biso   1.000  C
  C1211    1.0000 0.75107  0.70963  0.94453  Biso   1.000  C
  H801     1.0000 0.74007  0.66023  0.95773  Biso   1.000  H
  C1212    1.0000 0.57237  0.62583  0.98084  Biso   1.000  C
  H802     1.0000 0.61847  0.60613  0.98333  Biso   1.000  H
  H803     1.0000 0.75207  0.74933  0.92963  Biso   1.000  H
  H804     1.0000 0.53397  0.65673  0.97503  Biso   1.000  H
  C1213    1.0000 0.80947  0.86583  0.74375  Biso   1.000  C
  C1214    1.0000 0.86457  0.93903  0.75186  Biso   1.000  C
  H805     1.0000 0.56587  0.72963  0.73163  Biso   1.000  H
  H806     1.0000 0.69467  0.63543  0.77473  Biso   1.000  H
  C1215    1.0000 0.61937  0.40903  0.97453  Biso   1.000  C
  C1216    1.0000 0.65187  0.48713  0.97913  Biso   1.000  C
  H807     1.0000 0.78327  0.72733  0.94613  Biso   1.000  H
  H808     1.0000 0.56267  0.62123  0.98943  Biso   1.000  H
  H809     1.0000 0.78067  0.83813  0.74433  Biso   1.000  H
  C1217    1.0000 0.83807  0.87123  0.73342  Biso   1.000  C
  C1218    1.0000 0.89147  0.94353  0.74171  Biso   1.000  C
  H810     1.0000 0.87497  0.96263  0.75813  Biso   1.000  H
  H811     1.0000 0.60247  0.38263  0.96933  Biso   1.000  H
  C1219    1.0000 0.63567  0.40633  0.98661  Biso   1.000  C
  C1220    1.0000 0.67397  0.48223  0.99112  Biso   1.000  C
  H812     1.0000 0.65407  0.51623  0.97773  Biso   1.000  H
  H813     1.0000 0.82847  0.84843  0.72703  Biso   1.000  H
  C1221    1.0000 0.88197  0.91203  0.73292  Biso   1.000  C
  H814     1.0000 0.91957  0.97193  0.74083  Biso   1.000  H
  H815     1.0000 0.62647  0.37593  0.98933  Biso   1.000  H
  C1222    1.0000 0.66087  0.43783  0.99450  Biso   1.000  C
  H816     1.0000 0.69537  0.50803  0.99593  Biso   1.000  H
  C1223    1.0000 0.91397  0.91713  0.72253  Biso   1.000  C
  C1224    1.0000 0.68207  0.43033  0.00523  Biso   1.000  C
  O221     1.0000 0.66007  0.39023  0.00912  Biso   1.000  O
  Zn35     1.0000 0.11231  0.04444  0.20629  Biso   1.000  Zn
  O222     1.0000 0.05553  0.00717  0.19764  Biso   1.000  O
  O223     1.0000 0.15903  0.07387  0.19301  Biso   1.000  O
  O224     1.0000 0.12973  0.00797  0.21581  Biso   1.000  O
  O225     1.0000 0.11733  0.09127  0.21672  Biso   1.000  O
  Zn36     1.0000 0.07243  0.96407  0.19007  Biso   1.000  Zn
  C1225    1.0000 0.15563  0.04767  0.18396  Biso   1.000  C
  C1226    1.0000 0.11903  0.96587  0.21234  Biso   1.000  C
  O226     1.0000 0.12913  0.00657  0.18133  Biso   1.000  O
  O227     1.0000 0.09303  0.94087  0.20349  Biso   1.000  O
  O228     1.0000 0.04223  0.91467  0.17815  Biso   1.000  O
  O229     1.0000 0.01263  0.95807  0.22056  Biso   1.000  O
  C1227    1.0000 0.19273  0.07527  0.17374  Biso   1.000  C
  C1228    1.0000 0.13803  0.94327  0.22129  Biso   1.000  C
  C1229    1.0000 0.19513  0.05357  0.16223  Biso   1.000  C
  C1230    1.0000 0.22483  0.11997  0.17489  Biso   1.000  C
  C1231    1.0000 0.16633  0.96607  0.23236  Biso   1.000  C
  C1232    1.0000 0.13453  0.90217  0.21794  Biso   1.000  C
  C1233    1.0000 0.22753  0.07727  0.15384  Biso   1.000  C
  H817     1.0000 0.17333  0.02217  0.16067  Biso   1.000  H
  H818     1.0000 0.22413  0.13557  0.18237  Biso   1.000  H
  C1234    1.0000 0.25893  0.14527  0.16607  Biso   1.000  C
  C1235    1.0000 0.18513  0.94537  0.23984  Biso   1.000  C
  H819     1.0000 0.17213  0.99607  0.23457  Biso   1.000  H
  H820     1.0000 0.12053  0.88787  0.21017  Biso   1.000  H
  C1236    1.0000 0.15213  0.88047  0.22630  Biso   1.000  C
  C1237    1.0000 0.26013  0.12437  0.15484  Biso   1.000  C
  H821     1.0000 0.22903  0.06127  0.14657  Biso   1.000  H
  H822     1.0000 0.28123  0.17657  0.16767  Biso   1.000  H
  C1238    1.0000 0.17683  0.90227  0.23689  Biso   1.000  C
  H823     1.0000 0.20363  0.96117  0.24697  Biso   1.000  H
  H824     1.0000 0.14643  0.85037  0.22437  Biso   1.000  H
  C1239    1.0000 0.29363  0.15187  0.14485  Biso   1.000  C
  C1240    1.0000 0.19213  0.87567  0.24503  Biso   1.000  C
  H825     1.0000 0.32543  0.16467  0.14807  Biso   1.000  H
  H826     1.0000 0.28923  0.17797  0.14237  Biso   1.000  H
  O230     1.0000 0.28723  0.12407  0.13441  Biso   1.000  O
  H827     1.0000 0.20903  0.86427  0.23987  Biso   1.000  H
  H828     1.0000 0.16503  0.84877  0.24887  Biso   1.000  H
  O231     1.0000 0.22083  0.90527  0.25454  Biso   1.000  O
  C1241    1.0000 0.32363  0.13927  0.12588  Biso   1.000  C
  C1242    1.0000 0.24103  0.88887  0.26215  Biso   1.000  C
  C1243    1.0000 0.35783  0.18567  0.12560  Biso   1.000  C
  C1244    1.0000 0.31513  0.11037  0.11489  Biso   1.000  C
  C1245    1.0000 0.23013  0.84387  0.26225  Biso   1.000  C
  C1246    1.0000 0.26453  0.91787  0.27302  Biso   1.000  C
  H829     1.0000 0.35683  0.20727  0.13127  Biso   1.000  H
  C1247    1.0000 0.39363  0.19977  0.11683  Biso   1.000  C
  C1248    1.0000 0.35023  0.12537  0.10658  Biso   1.000  C
  C1249    1.0000 0.27713  0.06357  0.11247  Biso   1.000  C
  C1250    1.0000 0.25173  0.82967  0.27167  Biso   1.000  C
  H830     1.0000 0.20903  0.82257  0.25627  Biso   1.000  H
  C1251    1.0000 0.28593  0.90517  0.28188  Biso   1.000  C
  C1252    1.0000 0.27673  0.96647  0.27482  Biso   1.000  C
  H831     1.0000 0.42123  0.22867  0.11777  Biso   1.000  H
  C1253    1.0000 0.38773  0.16957  0.10636  Biso   1.000  C
  C1254    1.0000 0.34193  0.08727  0.09693  Biso   1.000  C
  H832     1.0000 0.25153  0.05357  0.11877  Biso   1.000  H
  C1255    1.0000 0.26233  0.06187  0.10017  Biso   1.000  C
  C1256    1.0000 0.29983  0.03557  0.11317  Biso   1.000  C
  C1257    1.0000 0.27883  0.86237  0.28207  Biso   1.000  C
  H833     1.0000 0.24873  0.79997  0.27127  Biso   1.000  H
  C1258    1.0000 0.31593  0.93807  0.29104  Biso   1.000  C
  H834     1.0000 0.26203  0.97697  0.26837  Biso   1.000  H
  C1259    1.0000 0.32543  0.99487  0.27522  Biso   1.000  C
  C1260    1.0000 0.25843  0.96497  0.28858  Biso   1.000  C
  O232     1.0000 0.41993  0.18077  0.09761  Biso   1.000  O
  H835     1.0000 0.36713  0.09697  0.09047  Biso   1.000  H
  C1261    1.0000 0.29513  0.07527  0.09117  Biso   1.000  C
  C1262    1.0000 0.33353  0.04677  0.10427  Biso   1.000  C
  C1263    1.0000 0.21793  0.04757  0.09607  Biso   1.000  C
  C1264    1.0000 0.28753  0.99757  0.12117  Biso   1.000  C
  O233     1.0000 0.29593  0.84237  0.29085  Biso   1.000  O
  H836     1.0000 0.33213  0.92667  0.29667  Biso   1.000  H
  C1265    1.0000 0.34703  0.98047  0.28393  Biso   1.000  C
  C1266    1.0000 0.28103  0.94837  0.29805  Biso   1.000  C
  C1267    1.0000 0.35343  0.03457  0.26804  Biso   1.000  C
  C1268    1.0000 0.22853  0.97957  0.29231  Biso   1.000  C
  C1269    1.0000 0.45333  0.22217  0.09672  Biso   1.000  C
  C1270    1.0000 0.28263  0.07527  0.07717  Biso   1.000  C
  C1271    1.0000 0.35703  0.02747  0.10250  Biso   1.000  C
  C1272    1.0000 0.21103  0.05267  0.08067  Biso   1.000  C
  H837     1.0000 0.19263  0.03537  0.10177  Biso   1.000  H
  C1273    1.0000 0.31153  0.97627  0.12027  Biso   1.000  C
  H838     1.0000 0.26283  0.98767  0.12707  Biso   1.000  H
  C1274    1.0000 0.27783  0.79547  0.29224  Biso   1.000  C
  C1275    1.0000 0.39193  0.00357  0.28527  Biso   1.000  C
  C1276    1.0000 0.27013  0.94797  0.31045  Biso   1.000  C
  H839     1.0000 0.33883  0.04567  0.26247  Biso   1.000  H
  C1277    1.0000 0.40003  0.05807  0.26857  Biso   1.000  C
  H840     1.0000 0.21453  0.98997  0.28637  Biso   1.000  H
  C1278    1.0000 0.21943  0.97837  0.30531  Biso   1.000  C
  H841     1.0000 0.44023  0.24267  0.09557  Biso   1.000  H
  H842     1.0000 0.47013  0.23057  0.10487  Biso   1.000  H
  C1279    1.0000 0.48763  0.23197  0.08636  Biso   1.000  C
  H843     1.0000 0.30583  0.08417  0.07087  Biso   1.000  H
  C1280    1.0000 0.23913  0.06287  0.07367  Biso   1.000  C
  H844     1.0000 0.38113  0.03947  0.09637  Biso   1.000  H
  C1281    1.0000 0.34723  0.98687  0.10967  Biso   1.000  C
  H845     1.0000 0.18163  0.04647  0.07777  Biso   1.000  H
  H846     1.0000 0.30663  0.95347  0.12637  Biso   1.000  H
  H847     1.0000 0.24373  0.77967  0.29267  Biso   1.000  H
  H848     1.0000 0.28653  0.78287  0.28497  Biso   1.000  H
  C1282    1.0000 0.29673  0.78827  0.30397  Biso   1.000  C
  C1283    1.0000 0.41773  0.04297  0.27787  Biso   1.000  C
  H849     1.0000 0.40673  0.99357  0.29107  Biso   1.000  H
  C1284    1.0000 0.23903  0.95917  0.31418  Biso   1.000  C
  H850     1.0000 0.28513  0.93947  0.31667  Biso   1.000  H
  H851     1.0000 0.41873  0.08267  0.26297  Biso   1.000  H
  H852     1.0000 0.20063  0.99007  0.30837  Biso   1.000  H
  C1285    1.0000 0.47613  0.19917  0.07709  Biso   1.000  C
  C1286    1.0000 0.53123  0.27237  0.08520  Biso   1.000  C
  H853     1.0000 0.23253  0.06297  0.06497  Biso   1.000  H
  H854     1.0000 0.36133  0.96877  0.10807  Biso   1.000  H
  C1287    1.0000 0.28603  0.74237  0.30787  Biso   1.000  C
  C1288    1.0000 0.31853  0.82047  0.31247  Biso   1.000  C
  H855     1.0000 0.44993  0.06067  0.27947  Biso   1.000  H
  H856     1.0000 0.22933  0.95457  0.32277  Biso   1.000  H
  H857     1.0000 0.44733  0.17147  0.07767  Biso   1.000  H
  C1289    1.0000 0.50473  0.20457  0.06676  Biso   1.000  C
  C1290    1.0000 0.55813  0.27687  0.07505  Biso   1.000  C
  H858     1.0000 0.54163  0.29597  0.09147  Biso   1.000  H
  H859     1.0000 0.26913  0.71597  0.30267  Biso   1.000  H
  C1291    1.0000 0.30233  0.73967  0.31995  Biso   1.000  C
  C1292    1.0000 0.34063  0.81557  0.32446  Biso   1.000  C
  H860     1.0000 0.32073  0.84957  0.31107  Biso   1.000  H
  H861     1.0000 0.49513  0.18177  0.06037  Biso   1.000  H
  C1293    1.0000 0.54863  0.24537  0.06626  Biso   1.000  C
  H862     1.0000 0.58623  0.30527  0.07417  Biso   1.000  H
  H863     1.0000 0.29313  0.70927  0.32267  Biso   1.000  H
  C1294    1.0000 0.32753  0.77117  0.32784  Biso   1.000  C
  H864     1.0000 0.36203  0.84137  0.32927  Biso   1.000  H
  C1295    1.0000 0.58063  0.25047  0.05587  Biso   1.000  C
  C1296    1.0000 0.34873  0.76367  0.33857  Biso   1.000  C
  O234     1.0000 0.32673  0.72357  0.34246  Biso   1.000  O
  Zn37     1.0000 0.66667  0.33333  0.04219  Biso   1.000  Zn
  Zn38     1.0000 0.33333  0.66667  0.37552  Biso   1.000  Zn
  Zn39     1.0000 0.00000  0.00000  0.70886  Biso   1.000  Zn
  Zn40     1.0000 0.66667  0.33333  0.54219  Biso   1.000  Zn
  Zn41     1.0000 0.33333  0.66667  0.87552  Biso   1.000  Zn
  Zn42     1.0000 0.00000  0.00000  0.20886  Biso   1.000  Zn
  Zn43     1.0000 0.40121  0.77898  0.46038  Biso   1.000  Zn
  O235     1.0000 0.38170  0.72220  0.46903  Biso   1.000  O
  O236     1.0000 0.41850  0.82570  0.47366  Biso   1.000  O
  O237     1.0000 0.45510  0.79640  0.45086  Biso   1.000  O
  O238     1.0000 0.35940  0.78400  0.44995  Biso   1.000  O
  Zn44     1.0000 0.44170  0.73910  0.47660  Biso   1.000  Zn
  C1297    1.0000 0.44130  0.82230  0.48271  Biso   1.000  C
  C1298    1.0000 0.48650  0.78570  0.45433  Biso   1.000  C
  O239     1.0000 0.45590  0.79580  0.48534  Biso   1.000  O
  O240     1.0000 0.48550  0.75970  0.46318  Biso   1.000  O
  O241     1.0000 0.46090  0.70890  0.48852  Biso   1.000  O
  O242     1.0000 0.38790  0.67930  0.44611  Biso   1.000  O
  C1299    1.0000 0.45080  0.85940  0.49293  Biso   1.000  C
  C1300    1.0000 0.52810  0.80470  0.44538  Biso   1.000  C
  C1301    1.0000 0.47490  0.86180  0.50444  Biso   1.000  C
  C1302    1.0000 0.43820  0.89150  0.49178  Biso   1.000  C
  C1303    1.0000 0.53360  0.83300  0.43431  Biso   1.000  C
  C1304    1.0000 0.56570  0.80120  0.44873  Biso   1.000  C
  C1305    1.0000 0.48360  0.89420  0.51283  Biso   1.000  C
  H865     1.0000 0.48450  0.84000  0.50600  Biso   1.000  H
  H866     1.0000 0.42190  0.89080  0.48430  Biso   1.000  H
  C1306    1.0000 0.44700  0.92560  0.50060  Biso   1.000  C
  C1307    1.0000 0.57310  0.85180  0.42683  Biso   1.000  C
  H867     1.0000 0.50940  0.83880  0.43210  Biso   1.000  H
  H868     1.0000 0.56600  0.78720  0.45650  Biso   1.000  H
  C1308    1.0000 0.60500  0.81880  0.44037  Biso   1.000  C
  C1309    1.0000 0.46910  0.92680  0.51183  Biso   1.000  C
  H869     1.0000 0.50110  0.89570  0.52010  Biso   1.000  H
  H870     1.0000 0.43800  0.94790  0.49900  Biso   1.000  H
  C1310    1.0000 0.60790  0.84350  0.42978  Biso   1.000  C
  H871     1.0000 0.57580  0.87030  0.41970  Biso   1.000  H
  H872     1.0000 0.62940  0.81310  0.44230  Biso   1.000  H
  C1311    1.0000 0.47510  0.96030  0.52182  Biso   1.000  C
  C1312    1.0000 0.64980  0.85880  0.42164  Biso   1.000  C
  H873     1.0000 0.49410  0.99210  0.51860  Biso   1.000  H
  H874     1.0000 0.44460  0.95590  0.52430  Biso   1.000  H
  O243     1.0000 0.49650  0.95390  0.53226  Biso   1.000  O
  H875     1.0000 0.67810  0.87570  0.42680  Biso   1.000  H
  H876     1.0000 0.64960  0.83170  0.41780  Biso   1.000  H
  O244     1.0000 0.64890  0.88750  0.41213  Biso   1.000  O
  C1313    1.0000 0.51770  0.99030  0.54079  Biso   1.000  C
  C1314    1.0000 0.68550  0.90770  0.40452  Biso   1.000  C
  C1315    1.0000 0.50550  0.02450  0.54107  Biso   1.000  C
  C1316    1.0000 0.53810  0.98180  0.55178  Biso   1.000  C
  C1317    1.0000 0.71960  0.89680  0.40442  Biso   1.000  C
  C1318    1.0000 0.68000  0.93120  0.39365  Biso   1.000  C
  H877     1.0000 0.48290  0.02350  0.53540  Biso   1.000  H
  C1319    1.0000 0.52720  0.06030  0.54984  Biso   1.000  C
  C1320    1.0000 0.55820  0.01690  0.56009  Biso   1.000  C
  C1321    1.0000 0.54690  0.94380  0.55420  Biso   1.000  C
  C1322    1.0000 0.75540  0.91840  0.39500  Biso   1.000  C
  H878     1.0000 0.71980  0.87570  0.41040  Biso   1.000  H
  C1323    1.0000 0.71410  0.95260  0.38479  Biso   1.000  C
  C1324    1.0000 0.64360  0.94340  0.39185  Biso   1.000  C
  H879     1.0000 0.52590  0.08790  0.54890  Biso   1.000  H
  C1325    1.0000 0.55150  0.05440  0.56031  Biso   1.000  C
  C1326    1.0000 0.58800  0.00860  0.56974  Biso   1.000  C
  H880     1.0000 0.53130  0.91820  0.54790  Biso   1.000  H
  C1327    1.0000 0.53380  0.92900  0.56650  Biso   1.000  C
  C1328    1.0000 0.59760  0.96650  0.55350  Biso   1.000  C
  C1329    1.0000 0.74980  0.94550  0.38460  Biso   1.000  C
  H881     1.0000 0.78210  0.91540  0.39540  Biso   1.000  H
  C1330    1.0000 0.71120  0.98260  0.37563  Biso   1.000  C
  H882     1.0000 0.61840  0.92870  0.39830  Biso   1.000  H
  C1331    1.0000 0.66390  0.99210  0.39145  Biso   1.000  C
  C1332    1.0000 0.62680  0.92510  0.37809  Biso   1.000  C
  O245     1.0000 0.57250  0.08660  0.56906  Biso   1.000  O
  H883     1.0000 0.60350  0.03380  0.57620  Biso   1.000  H
  C1333    1.0000 0.55320  0.96180  0.57550  Biso   1.000  C
  C1334    1.0000 0.62010  0.00020  0.56240  Biso   1.000  C
  C1335    1.0000 0.50370  0.88460  0.57060  Biso   1.000  C
  C1336    1.0000 0.62330  0.95420  0.54550  Biso   1.000  C
  O246     1.0000 0.78690  0.96260  0.37582  Biso   1.000  O
  H884     1.0000 0.73880  0.99880  0.37000  Biso   1.000  H
  C1337    1.0000 0.69990  0.01370  0.38274  Biso   1.000  C
  C1338    1.0000 0.66600  0.94770  0.36862  Biso   1.000  C
  C1339    1.0000 0.65220  0.02010  0.39863  Biso   1.000  C
  C1340    1.0000 0.58230  0.89520  0.37436  Biso   1.000  C
  C1341    1.0000 0.56450  0.12000  0.56995  Biso   1.000  C
  C1342    1.0000 0.54070  0.94930  0.58950  Biso   1.000  C
  C1343    1.0000 0.66290  0.02370  0.56417  Biso   1.000  C
  C1344    1.0000 0.49170  0.87770  0.58600  Biso   1.000  C
  H885     1.0000 0.49060  0.85930  0.56490  Biso   1.000  H
  C1345    1.0000 0.66860  0.97820  0.54640  Biso   1.000  C
  H886     1.0000 0.60850  0.92950  0.53960  Biso   1.000  H
  C1346    1.0000 0.81570  0.94450  0.37443  Biso   1.000  C
  C1347    1.0000 0.72170  0.05860  0.38140  Biso   1.000  C
  C1348    1.0000 0.65550  0.93680  0.35622  Biso   1.000  C
  H887     1.0000 0.62650  0.00550  0.40420  Biso   1.000  H
  C1349    1.0000 0.67530  0.06670  0.39810  Biso   1.000  C
  H888     1.0000 0.55790  0.88120  0.38030  Biso   1.000  H
  C1350    1.0000 0.57440  0.88610  0.36136  Biso   1.000  C
  H889     1.0000 0.53090  0.10690  0.57110  Biso   1.000  H
  H890     1.0000 0.57290  0.13680  0.56180  Biso   1.000  H
  C1351    1.0000 0.58900  0.15430  0.58031  Biso   1.000  C
  H891     1.0000 0.55500  0.97250  0.59580  Biso   1.000  H
  C1352    1.0000 0.50960  0.90580  0.59300  Biso   1.000  C
  H892     1.0000 0.67500  0.04780  0.57030  Biso   1.000  H
  C1353    1.0000 0.69370  0.01390  0.55700  Biso   1.000  C
  H893     1.0000 0.46850  0.84830  0.58890  Biso   1.000  H
  H894     1.0000 0.68650  0.97330  0.54030  Biso   1.000  H
  H895     1.0000 0.79740  0.91040  0.37400  Biso   1.000  H
  H896     1.0000 0.83700  0.95320  0.38170  Biso   1.000  H
  C1354    1.0000 0.84180  0.96340  0.36270  Biso   1.000  C
  C1355    1.0000 0.70810  0.08440  0.38880  Biso   1.000  C
  H897     1.0000 0.74650  0.07340  0.37560  Biso   1.000  H
  C1356    1.0000 0.61320  0.90570  0.35249  Biso   1.000  C
  H898     1.0000 0.67900  0.95180  0.35000  Biso   1.000  H
  H899     1.0000 0.66940  0.08540  0.40370  Biso   1.000  H
  H900     1.0000 0.54390  0.86730  0.35830  Biso   1.000  H
  C1357    1.0000 0.61030  0.14280  0.58958  Biso   1.000  C
  C1358    1.0000 0.59220  0.19790  0.58147  Biso   1.000  C
  H901     1.0000 0.50290  0.89920  0.60170  Biso   1.000  H
  H902     1.0000 0.72590  0.02800  0.55860  Biso   1.000  H
  C1359    1.0000 0.87700  0.95270  0.35880  Biso   1.000  C
  C1360    1.0000 0.83140  0.98520  0.35420  Biso   1.000  C
  H903     1.0000 0.72260  0.11660  0.38720  Biso   1.000  H
  H904     1.0000 0.60810  0.89600  0.34390  Biso   1.000  H
  H905     1.0000 0.60920  0.11400  0.58900  Biso   1.000  H
  C1361    1.0000 0.63350  0.17140  0.59991  Biso   1.000  C
  C1362    1.0000 0.61460  0.22480  0.59162  Biso   1.000  C
  H906     1.0000 0.57900  0.20830  0.57520  Biso   1.000  H
  H907     1.0000 0.88650  0.93580  0.36400  Biso   1.000  H
  C1363    1.0000 0.89600  0.96900  0.34672  Biso   1.000  C
  C1364    1.0000 0.85840  0.00730  0.34221  Biso   1.000  C
  H908     1.0000 0.80450  0.98740  0.35560  Biso   1.000  H
  H909     1.0000 0.64670  0.16180  0.60630  Biso   1.000  H
  C1365    1.0000 0.63660  0.21530  0.60041  Biso   1.000  C
  H910     1.0000 0.61430  0.25290  0.59250  Biso   1.000  H
  H911     1.0000 0.91720  0.95980  0.34400  Biso   1.000  H
  C1366    1.0000 0.88970  0.99420  0.33883  Biso   1.000  C
  H912     1.0000 0.85400  0.02870  0.33740  Biso   1.000  H
  C1367    1.0000 0.66350  0.24730  0.61080  Biso   1.000  C
  C1368    1.0000 0.91840  0.01540  0.32810  Biso   1.000  C
  O247     1.0000 0.93650  0.99340  0.32421  Biso   1.000  O
  Zn45     1.0000 0.06788  0.11231  0.79371  Biso   1.000  Zn
  O248     1.0000 0.04837  0.05553  0.80236  Biso   1.000  O
  O249     1.0000 0.08517  0.15903  0.80699  Biso   1.000  O
  O250     1.0000 0.12177  0.12973  0.78419  Biso   1.000  O
  O251     1.0000 0.02607  0.11733  0.78328  Biso   1.000  O
  Zn46     1.0000 0.10837  0.07243  0.80993  Biso   1.000  Zn
  C1369    1.0000 0.10797  0.15563  0.81604  Biso   1.000  C
  C1370    1.0000 0.15317  0.11903  0.78766  Biso   1.000  C
  O252     1.0000 0.12257  0.12913  0.81867  Biso   1.000  O
  O253     1.0000 0.15217  0.09303  0.79651  Biso   1.000  O
  O254     1.0000 0.12757  0.04223  0.82185  Biso   1.000  O
  O255     1.0000 0.05457  0.01263  0.77944  Biso   1.000  O
  C1371    1.0000 0.11747  0.19273  0.82626  Biso   1.000  C
  C1372    1.0000 0.19477  0.13803  0.77871  Biso   1.000  C
  C1373    1.0000 0.14157  0.19513  0.83777  Biso   1.000  C
  C1374    1.0000 0.10487  0.22483  0.82511  Biso   1.000  C
  C1375    1.0000 0.20027  0.16633  0.76764  Biso   1.000  C
  C1376    1.0000 0.23237  0.13453  0.78206  Biso   1.000  C
  C1377    1.0000 0.15027  0.22753  0.84616  Biso   1.000  C
  H913     1.0000 0.15117  0.17333  0.83933  Biso   1.000  H
  H914     1.0000 0.08857  0.22413  0.81763  Biso   1.000  H
  C1378    1.0000 0.11367  0.25893  0.83393  Biso   1.000  C
  C1379    1.0000 0.23977  0.18513  0.76016  Biso   1.000  C
  H915     1.0000 0.17607  0.17213  0.76543  Biso   1.000  H
  H916     1.0000 0.23267  0.12053  0.78983  Biso   1.000  H
  C1380    1.0000 0.27167  0.15213  0.77370  Biso   1.000  C
  C1381    1.0000 0.13577  0.26013  0.84516  Biso   1.000  C
  H917     1.0000 0.16777  0.22903  0.85343  Biso   1.000  H
  H918     1.0000 0.10467  0.28123  0.83233  Biso   1.000  H
  C1382    1.0000 0.27457  0.17683  0.76311  Biso   1.000  C
  H919     1.0000 0.24247  0.20363  0.75303  Biso   1.000  H
  H920     1.0000 0.29607  0.14643  0.77563  Biso   1.000  H
  C1383    1.0000 0.14177  0.29363  0.85515  Biso   1.000  C
  C1384    1.0000 0.31647  0.19213  0.75497  Biso   1.000  C
  H921     1.0000 0.16077  0.32543  0.85193  Biso   1.000  H
  H922     1.0000 0.11127  0.28923  0.85763  Biso   1.000  H
  O256     1.0000 0.16317  0.28723  0.86559  Biso   1.000  O
  H923     1.0000 0.34477  0.20903  0.76013  Biso   1.000  H
  H924     1.0000 0.31627  0.16503  0.75113  Biso   1.000  H
  O257     1.0000 0.31557  0.22083  0.74546  Biso   1.000  O
  C1385    1.0000 0.18437  0.32363  0.87412  Biso   1.000  C
  C1386    1.0000 0.35217  0.24103  0.73785  Biso   1.000  C
  C1387    1.0000 0.17217  0.35783  0.87440  Biso   1.000  C
  C1388    1.0000 0.20477  0.31513  0.88511  Biso   1.000  C
  C1389    1.0000 0.38627  0.23013  0.73775  Biso   1.000  C
  C1390    1.0000 0.34667  0.26453  0.72698  Biso   1.000  C
  H925     1.0000 0.14957  0.35683  0.86873  Biso   1.000  H
  C1391    1.0000 0.19387  0.39363  0.88317  Biso   1.000  C
  C1392    1.0000 0.22487  0.35023  0.89342  Biso   1.000  C
  C1393    1.0000 0.21357  0.27713  0.88753  Biso   1.000  C
  C1394    1.0000 0.42207  0.25173  0.72833  Biso   1.000  C
  H926     1.0000 0.38647  0.20903  0.74373  Biso   1.000  H
  C1395    1.0000 0.38077  0.28593  0.71812  Biso   1.000  C
  C1396    1.0000 0.31027  0.27673  0.72518  Biso   1.000  C
  H927     1.0000 0.19257  0.42123  0.88223  Biso   1.000  H
  C1397    1.0000 0.21817  0.38773  0.89364  Biso   1.000  C
  C1398    1.0000 0.25467  0.34193  0.90307  Biso   1.000  C
  H928     1.0000 0.19797  0.25153  0.88123  Biso   1.000  H
  C1399    1.0000 0.20047  0.26233  0.89983  Biso   1.000  C
  C1400    1.0000 0.26427  0.29983  0.88683  Biso   1.000  C
  C1401    1.0000 0.41647  0.27883  0.71793  Biso   1.000  C
  H929     1.0000 0.44877  0.24873  0.72873  Biso   1.000  H
  C1402    1.0000 0.37787  0.31593  0.70896  Biso   1.000  C
  H930     1.0000 0.28507  0.26203  0.73163  Biso   1.000  H
  C1403    1.0000 0.33057  0.32543  0.72478  Biso   1.000  C
  C1404    1.0000 0.29347  0.25843  0.71142  Biso   1.000  C
  O258     1.0000 0.23917  0.41993  0.90239  Biso   1.000  O
  H931     1.0000 0.27017  0.36713  0.90953  Biso   1.000  H
  C1405    1.0000 0.21987  0.29513  0.90883  Biso   1.000  C
  C1406    1.0000 0.28677  0.33353  0.89573  Biso   1.000  C
  C1407    1.0000 0.17037  0.21793  0.90393  Biso   1.000  C
  C1408    1.0000 0.28997  0.28753  0.87883  Biso   1.000  C
  O259     1.0000 0.45357  0.29593  0.70915  Biso   1.000  O
  H932     1.0000 0.40547  0.33213  0.70333  Biso   1.000  H
  C1409    1.0000 0.36657  0.34703  0.71607  Biso   1.000  C
  C1410    1.0000 0.33267  0.28103  0.70195  Biso   1.000  C
  C1411    1.0000 0.31887  0.35343  0.73196  Biso   1.000  C
  C1412    1.0000 0.24897  0.22853  0.70769  Biso   1.000  C
  C1413    1.0000 0.23117  0.45333  0.90328  Biso   1.000  C
  C1414    1.0000 0.20737  0.28263  0.92283  Biso   1.000  C
  C1415    1.0000 0.32957  0.35703  0.89750  Biso   1.000  C
  C1416    1.0000 0.15837  0.21103  0.91933  Biso   1.000  C
  H933     1.0000 0.15727  0.19263  0.89823  Biso   1.000  H
  C1417    1.0000 0.33527  0.31153  0.87973  Biso   1.000  C
  H934     1.0000 0.27517  0.26283  0.87293  Biso   1.000  H
  C1418    1.0000 0.48237  0.27783  0.70776  Biso   1.000  C
  C1419    1.0000 0.38837  0.39193  0.71473  Biso   1.000  C
  C1420    1.0000 0.32217  0.27013  0.68955  Biso   1.000  C
  H935     1.0000 0.29317  0.33883  0.73753  Biso   1.000  H
  C1421    1.0000 0.34197  0.40003  0.73143  Biso   1.000  C
  H936     1.0000 0.22457  0.21453  0.71363  Biso   1.000  H
  C1422    1.0000 0.24107  0.21943  0.69469  Biso   1.000  C
  H937     1.0000 0.19757  0.44023  0.90443  Biso   1.000  H
  H938     1.0000 0.23957  0.47013  0.89513  Biso   1.000  H
  C1423    1.0000 0.25567  0.48763  0.91364  Biso   1.000  C
  H939     1.0000 0.22167  0.30583  0.92913  Biso   1.000  H
  C1424    1.0000 0.17627  0.23913  0.92633  Biso   1.000  C
  H940     1.0000 0.34167  0.38113  0.90363  Biso   1.000  H
  C1425    1.0000 0.36037  0.34723  0.89033  Biso   1.000  C
  H941     1.0000 0.13517  0.18163  0.92223  Biso   1.000  H
  H942     1.0000 0.35317  0.30663  0.87363  Biso   1.000  H
  H943     1.0000 0.46407  0.24373  0.70733  Biso   1.000  H
  H944     1.0000 0.50367  0.28653  0.71503  Biso   1.000  H
  C1426    1.0000 0.50847  0.29673  0.69603  Biso   1.000  C
  C1427    1.0000 0.37477  0.41773  0.72213  Biso   1.000  C
  H945     1.0000 0.41317  0.40673  0.70893  Biso   1.000  H
  C1428    1.0000 0.27987  0.23903  0.68582  Biso   1.000  C
  H946     1.0000 0.34567  0.28513  0.68333  Biso   1.000  H
  H947     1.0000 0.33607  0.41873  0.73703  Biso   1.000  H
  H948     1.0000 0.21057  0.20063  0.69163  Biso   1.000  H
  C1429    1.0000 0.27697  0.47613  0.92291  Biso   1.000  C
  C1430    1.0000 0.25887  0.53123  0.91480  Biso   1.000  C
  H949     1.0000 0.16957  0.23253  0.93503  Biso   1.000  H
  H950     1.0000 0.39257  0.36133  0.89193  Biso   1.000  H
  C1431    1.0000 0.54367  0.28603  0.69213  Biso   1.000  C
  C1432    1.0000 0.49807  0.31853  0.68753  Biso   1.000  C
  H951     1.0000 0.38927  0.44993  0.72053  Biso   1.000  H
  H952     1.0000 0.27477  0.22933  0.67723  Biso   1.000  H
  H953     1.0000 0.27587  0.44733  0.92233  Biso   1.000  H
  C1433    1.0000 0.30017  0.50473  0.93324  Biso   1.000  C
  C1434    1.0000 0.28127  0.55813  0.92495  Biso   1.000  C
  H954     1.0000 0.24567  0.54163  0.90853  Biso   1.000  H
  H955     1.0000 0.55317  0.26913  0.69733  Biso   1.000  H
  C1435    1.0000 0.56267  0.30233  0.68005  Biso   1.000  C
  C1436    1.0000 0.52507  0.34063  0.67554  Biso   1.000  C
  H956     1.0000 0.47117  0.32073  0.68893  Biso   1.000  H
  H957     1.0000 0.31337  0.49513  0.93963  Biso   1.000  H
  C1437    1.0000 0.30327  0.54863  0.93374  Biso   1.000  C
  H958     1.0000 0.28097  0.58623  0.92583  Biso   1.000  H
  H959     1.0000 0.58387  0.29313  0.67733  Biso   1.000  H
  C1438    1.0000 0.55637  0.32753  0.67216  Biso   1.000  C
  H960     1.0000 0.52067  0.36203  0.67073  Biso   1.000  H
  C1439    1.0000 0.33017  0.58063  0.94413  Biso   1.000  C
  C1440    1.0000 0.58507  0.34873  0.66143  Biso   1.000  C
  O260     1.0000 0.60317  0.32673  0.65754  Biso   1.000  O
  Zn47     1.0000 0.73454  0.44565  0.12705  Biso   1.000  Zn
  O261     1.0000 0.71503  0.38887  0.13570  Biso   1.000  O
  O262     1.0000 0.75183  0.49237  0.14033  Biso   1.000  O
  O263     1.0000 0.78843  0.46307  0.11753  Biso   1.000  O
  O264     1.0000 0.69273  0.45067  0.11662  Biso   1.000  O
  Zn48     1.0000 0.77503  0.40577  0.14327  Biso   1.000  Zn
  C1441    1.0000 0.77463  0.48897  0.14938  Biso   1.000  C
  C1442    1.0000 0.81983  0.45237  0.12100  Biso   1.000  C
  O265     1.0000 0.78923  0.46247  0.15201  Biso   1.000  O
  O266     1.0000 0.81883  0.42637  0.12985  Biso   1.000  O
  O267     1.0000 0.79423  0.37557  0.15519  Biso   1.000  O
  O268     1.0000 0.72123  0.34597  0.11278  Biso   1.000  O
  C1443    1.0000 0.78413  0.52607  0.15960  Biso   1.000  C
  C1444    1.0000 0.86143  0.47137  0.11205  Biso   1.000  C
  C1445    1.0000 0.80823  0.52847  0.17111  Biso   1.000  C
  C1446    1.0000 0.77153  0.55817  0.15845  Biso   1.000  C
  C1447    1.0000 0.86693  0.49967  0.10098  Biso   1.000  C
  C1448    1.0000 0.89903  0.46787  0.11540  Biso   1.000  C
  C1449    1.0000 0.81693  0.56087  0.17950  Biso   1.000  C
  H961     1.0000 0.81783  0.50667  0.17267  Biso   1.000  H
  H962     1.0000 0.75523  0.55747  0.15097  Biso   1.000  H
  C1450    1.0000 0.78033  0.59227  0.16727  Biso   1.000  C
  C1451    1.0000 0.90643  0.51847  0.09350  Biso   1.000  C
  H963     1.0000 0.84273  0.50547  0.09877  Biso   1.000  H
  H964     1.0000 0.89933  0.45387  0.12317  Biso   1.000  H
  C1452    1.0000 0.93833  0.48547  0.10704  Biso   1.000  C
  C1453    1.0000 0.80243  0.59347  0.17850  Biso   1.000  C
  H965     1.0000 0.83443  0.56237  0.18677  Biso   1.000  H
  H966     1.0000 0.77133  0.61457  0.16567  Biso   1.000  H
  C1454    1.0000 0.94123  0.51017  0.09645  Biso   1.000  C
  H967     1.0000 0.90913  0.53697  0.08637  Biso   1.000  H
  H968     1.0000 0.96273  0.47977  0.10897  Biso   1.000  H
  C1455    1.0000 0.80843  0.62697  0.18849  Biso   1.000  C
  C1456    1.0000 0.98313  0.52547  0.08831  Biso   1.000  C
  H969     1.0000 0.82743  0.65877  0.18527  Biso   1.000  H
  H970     1.0000 0.77793  0.62257  0.19097  Biso   1.000  H
  O269     1.0000 0.82983  0.62057  0.19893  Biso   1.000  O
  H971     1.0000 0.01143  0.54237  0.09347  Biso   1.000  H
  H972     1.0000 0.98293  0.49837  0.08447  Biso   1.000  H
  O270     1.0000 0.98223  0.55417  0.07880  Biso   1.000  O
  C1457    1.0000 0.85103  0.65697  0.20746  Biso   1.000  C
  C1458    1.0000 0.01883  0.57437  0.07119  Biso   1.000  C
  C1459    1.0000 0.83883  0.69117  0.20774  Biso   1.000  C
  C1460    1.0000 0.87143  0.64847  0.21845  Biso   1.000  C
  C1461    1.0000 0.05293  0.56347  0.07109  Biso   1.000  C
  C1462    1.0000 0.01333  0.59787  0.06032  Biso   1.000  C
  H973     1.0000 0.81623  0.69017  0.20207  Biso   1.000  H
  C1463    1.0000 0.86053  0.72697  0.21651  Biso   1.000  C
  C1464    1.0000 0.89153  0.68357  0.22676  Biso   1.000  C
  C1465    1.0000 0.88023  0.61047  0.22087  Biso   1.000  C
  C1466    1.0000 0.08873  0.58507  0.06167  Biso   1.000  C
  H974     1.0000 0.05313  0.54237  0.07707  Biso   1.000  H
  C1467    1.0000 0.04743  0.61927  0.05146  Biso   1.000  C
  C1468    1.0000 0.97693  0.61007  0.05852  Biso   1.000  C
  H975     1.0000 0.85923  0.75457  0.21557  Biso   1.000  H
  C1469    1.0000 0.88483  0.72107  0.22698  Biso   1.000  C
  C1470    1.0000 0.92133  0.67527  0.23641  Biso   1.000  C
  H976     1.0000 0.86463  0.58487  0.21457  Biso   1.000  H
  C1471    1.0000 0.86713  0.59567  0.23317  Biso   1.000  C
  C1472    1.0000 0.93093  0.63317  0.22017  Biso   1.000  C
  C1473    1.0000 0.08313  0.61217  0.05127  Biso   1.000  C
  H977     1.0000 0.11543  0.58207  0.06207  Biso   1.000  H
  C1474    1.0000 0.04453  0.64927  0.04230  Biso   1.000  C
  H978     1.0000 0.95173  0.59537  0.06497  Biso   1.000  H
  C1475    1.0000 0.99723  0.65877  0.05812  Biso   1.000  C
  C1476    1.0000 0.96013  0.59177  0.04476  Biso   1.000  C
  O271     1.0000 0.90583  0.75327  0.23573  Biso   1.000  O
  H979     1.0000 0.93683  0.70047  0.24287  Biso   1.000  H
  C1477    1.0000 0.88653  0.62847  0.24217  Biso   1.000  C
  C1478    1.0000 0.95343  0.66687  0.22907  Biso   1.000  C
  C1479    1.0000 0.83703  0.55127  0.23727  Biso   1.000  C
  C1480    1.0000 0.95663  0.62087  0.21217  Biso   1.000  C
  O272     1.0000 0.12023  0.62927  0.04249  Biso   1.000  O
  H980     1.0000 0.07213  0.66547  0.03667  Biso   1.000  H
  C1481    1.0000 0.03323  0.68037  0.04941  Biso   1.000  C
  C1482    1.0000 0.99933  0.61437  0.03529  Biso   1.000  C
  C1483    1.0000 0.98553  0.68677  0.06530  Biso   1.000  C
  C1484    1.0000 0.91563  0.56187  0.04103  Biso   1.000  C
  C1485    1.0000 0.89783  0.78667  0.23662  Biso   1.000  C
  C1486    1.0000 0.87403  0.61597  0.25617  Biso   1.000  C
  C1487    1.0000 0.99623  0.69037  0.23084  Biso   1.000  C
  C1488    1.0000 0.82503  0.54437  0.25267  Biso   1.000  C
  H981     1.0000 0.82393  0.52597  0.23157  Biso   1.000  H
  C1489    1.0000 0.00193  0.64487  0.21307  Biso   1.000  C
  H982     1.0000 0.94183  0.59617  0.20627  Biso   1.000  H
  C1490    1.0000 0.14903  0.61117  0.04110  Biso   1.000  C
  C1491    1.0000 0.05503  0.72527  0.04807  Biso   1.000  C
  C1492    1.0000 0.98883  0.60347  0.02289  Biso   1.000  C
  H983     1.0000 0.95983  0.67217  0.07087  Biso   1.000  H
  C1493    1.0000 0.00863  0.73337  0.06477  Biso   1.000  C
  H984     1.0000 0.89123  0.54787  0.04697  Biso   1.000  H
  C1494    1.0000 0.90773  0.55277  0.02803  Biso   1.000  C
  H985     1.0000 0.86423  0.77357  0.23777  Biso   1.000  H
  H986     1.0000 0.90623  0.80347  0.22847  Biso   1.000  H
  C1495    1.0000 0.92233  0.82097  0.24698  Biso   1.000  C
  H987     1.0000 0.88833  0.63917  0.26247  Biso   1.000  H
  C1496    1.0000 0.84293  0.57247  0.25967  Biso   1.000  C
  H988     1.0000 0.00833  0.71447  0.23697  Biso   1.000  H
  C1497    1.0000 0.02703  0.68057  0.22367  Biso   1.000  C
  H989     1.0000 0.80183  0.51497  0.25557  Biso   1.000  H
  H990     1.0000 0.01983  0.63997  0.20697  Biso   1.000  H
  H991     1.0000 0.13073  0.57707  0.04067  Biso   1.000  H
  H992     1.0000 0.17033  0.61987  0.04837  Biso   1.000  H
  C1498    1.0000 0.17513  0.63007  0.02937  Biso   1.000  C
  C1499    1.0000 0.04143  0.75107  0.05547  Biso   1.000  C
  H993     1.0000 0.07983  0.74007  0.04227  Biso   1.000  H
  C1500    1.0000 0.94653  0.57237  0.01916  Biso   1.000  C
  H994     1.0000 0.01233  0.61847  0.01667  Biso   1.000  H
  H995     1.0000 0.00273  0.75207  0.07037  Biso   1.000  H
  H996     1.0000 0.87723  0.53397  0.02497  Biso   1.000  H
  C1501    1.0000 0.94363  0.80947  0.25625  Biso   1.000  C
  C1502    1.0000 0.92553  0.86457  0.24814  Biso   1.000  C
  H997     1.0000 0.83623  0.56587  0.26837  Biso   1.000  H
  H998     1.0000 0.05923  0.69467  0.22527  Biso   1.000  H
  C1503    1.0000 0.21033  0.61937  0.02547  Biso   1.000  C
  C1504    1.0000 0.16473  0.65187  0.02087  Biso   1.000  C
  H999     1.0000 0.05593  0.78327  0.05387  Biso   1.000  H
  H1000    1.0000 0.94143  0.56267  0.01057  Biso   1.000  H
  H1001    1.0000 0.94253  0.78067  0.25567  Biso   1.000  H
  C1505    1.0000 0.96683  0.83807  0.26658  Biso   1.000  C
  C1506    1.0000 0.94793  0.89147  0.25829  Biso   1.000  C
  H1002    1.0000 0.91233  0.87497  0.24187  Biso   1.000  H
  H1003    1.0000 0.21983  0.60247  0.03067  Biso   1.000  H
  C1507    1.0000 0.22933  0.63567  0.01339  Biso   1.000  C
  C1508    1.0000 0.19173  0.67397  0.00888  Biso   1.000  C
  H1004    1.0000 0.13783  0.65407  0.02227  Biso   1.000  H
  H1005    1.0000 0.98003  0.82847  0.27297  Biso   1.000  H
  C1509    1.0000 0.96993  0.88197  0.26708  Biso   1.000  C
  H1006    1.0000 0.94763  0.91957  0.25917  Biso   1.000  H
  H1007    1.0000 0.25053  0.62647  0.01067  Biso   1.000  H
  C1510    1.0000 0.22303  0.66087  0.00550  Biso   1.000  C
  H1008    1.0000 0.18733  0.69537  0.00407  Biso   1.000  H
  C1511    1.0000 0.99683  0.91397  0.27747  Biso   1.000  C
  C1512    1.0000 0.25173  0.68207  0.99477  Biso   1.000  C
  O273     1.0000 0.26983  0.66007  0.99088  Biso   1.000  O
  Zn49     1.0000 0.37777  0.59879  0.46038  Biso   1.000  Zn
  O274     1.0000 0.34050  0.61830  0.46903  Biso   1.000  O
  O275     1.0000 0.40720  0.58150  0.47366  Biso   1.000  O
  O276     1.0000 0.34130  0.54490  0.45086  Biso   1.000  O
  O277     1.0000 0.42460  0.64060  0.44995  Biso   1.000  O
  Zn50     1.0000 0.29740  0.55830  0.47660  Biso   1.000  Zn
  C1513    1.0000 0.38100  0.55870  0.48271  Biso   1.000  C
  C1514    1.0000 0.29920  0.51350  0.45433  Biso   1.000  C
  O278     1.0000 0.33990  0.54410  0.48534  Biso   1.000  O
  O279     1.0000 0.27420  0.51450  0.46318  Biso   1.000  O
  O280     1.0000 0.24800  0.53910  0.48852  Biso   1.000  O
  O281     1.0000 0.29140  0.61210  0.44611  Biso   1.000  O
  C1515    1.0000 0.40860  0.54920  0.49293  Biso   1.000  C
  C1516    1.0000 0.27660  0.47190  0.44538  Biso   1.000  C
  C1517    1.0000 0.38690  0.52510  0.50444  Biso   1.000  C
  C1518    1.0000 0.45330  0.56180  0.49178  Biso   1.000  C
  C1519    1.0000 0.29940  0.46640  0.43431  Biso   1.000  C
  C1520    1.0000 0.23550  0.43430  0.44873  Biso   1.000  C
  C1521    1.0000 0.41060  0.51640  0.51283  Biso   1.000  C
  H1009    1.0000 0.35550  0.51550  0.50600  Biso   1.000  H
  H1010    1.0000 0.46890  0.57810  0.48430  Biso   1.000  H
  C1522    1.0000 0.47860  0.55300  0.50060  Biso   1.000  C
  C1523    1.0000 0.27870  0.42690  0.42683  Biso   1.000  C
  H1011    1.0000 0.32940  0.49060  0.43210  Biso   1.000  H
  H1012    1.0000 0.22120  0.43400  0.45650  Biso   1.000  H
  C1524    1.0000 0.21380  0.39500  0.44037  Biso   1.000  C
  C1525    1.0000 0.45770  0.53090  0.51183  Biso   1.000  C
  H1013    1.0000 0.39460  0.49890  0.52010  Biso   1.000  H
  H1014    1.0000 0.50990  0.56200  0.49900  Biso   1.000  H
  C1526    1.0000 0.23560  0.39210  0.42978  Biso   1.000  C
  H1015    1.0000 0.29450  0.42420  0.41970  Biso   1.000  H
  H1016    1.0000 0.18370  0.37060  0.44230  Biso   1.000  H
  C1527    1.0000 0.48520  0.52490  0.52182  Biso   1.000  C
  C1528    1.0000 0.20900  0.35020  0.42164  Biso   1.000  C
  H1017    1.0000 0.49800  0.50590  0.51860  Biso   1.000  H
  H1018    1.0000 0.51130  0.55540  0.52430  Biso   1.000  H
  O282     1.0000 0.45740  0.50350  0.53226  Biso   1.000  O
  H1019    1.0000 0.19760  0.32190  0.42680  Biso   1.000  H
  H1020    1.0000 0.18210  0.35040  0.41780  Biso   1.000  H
  O283     1.0000 0.23860  0.35110  0.41213  Biso   1.000  O
  C1529    1.0000 0.47260  0.48230  0.54079  Biso   1.000  C
  C1530    1.0000 0.22220  0.31450  0.40452  Biso   1.000  C
  C1531    1.0000 0.51900  0.49450  0.54107  Biso   1.000  C
  C1532    1.0000 0.44370  0.46190  0.55178  Biso   1.000  C
  C1533    1.0000 0.17720  0.28040  0.40442  Biso   1.000  C
  C1534    1.0000 0.25120  0.32000  0.39365  Biso   1.000  C
  H1021    1.0000 0.54060  0.51710  0.53540  Biso   1.000  H
  C1535    1.0000 0.53310  0.47280  0.54984  Biso   1.000  C
  C1536    1.0000 0.45870  0.44180  0.56009  Biso   1.000  C
  C1537    1.0000 0.39690  0.45310  0.55420  Biso   1.000  C
  C1538    1.0000 0.16300  0.24460  0.39500  Biso   1.000  C
  H1022    1.0000 0.15590  0.28020  0.41040  Biso   1.000  H
  C1539    1.0000 0.23850  0.28590  0.38479  Biso   1.000  C
  C1540    1.0000 0.29980  0.35640  0.39185  Biso   1.000  C
  H1023    1.0000 0.56200  0.47410  0.54890  Biso   1.000  H
  C1541    1.0000 0.50290  0.44850  0.56031  Biso   1.000  C
  C1542    1.0000 0.42060  0.41200  0.56974  Biso   1.000  C
  H1024    1.0000 0.38690  0.46870  0.54790  Biso   1.000  H
  C1543    1.0000 0.39520  0.46620  0.56650  Biso   1.000  C
  C1544    1.0000 0.36890  0.40240  0.55350  Biso   1.000  C
  C1545    1.0000 0.19570  0.25020  0.38460  Biso   1.000  C
  H1025    1.0000 0.13330  0.21790  0.39540  Biso   1.000  H
  C1546    1.0000 0.27140  0.28880  0.37563  Biso   1.000  C
  H1026    1.0000 0.31030  0.38160  0.39830  Biso   1.000  H
  C1547    1.0000 0.32820  0.33610  0.39145  Biso   1.000  C
  C1548    1.0000 0.29830  0.37320  0.37809  Biso   1.000  C
  O284     1.0000 0.51410  0.42750  0.56906  Biso   1.000  O
  H1027    1.0000 0.43030  0.39650  0.57620  Biso   1.000  H
  C1549    1.0000 0.40860  0.44680  0.57550  Biso   1.000  C
  C1550    1.0000 0.38010  0.37990  0.56240  Biso   1.000  C
  C1551    1.0000 0.38090  0.49630  0.57060  Biso   1.000  C
  C1552    1.0000 0.33090  0.37670  0.54550  Biso   1.000  C
  O285     1.0000 0.17570  0.21310  0.37582  Biso   1.000  O
  H1028    1.0000 0.26000  0.26120  0.37000  Biso   1.000  H
  C1553    1.0000 0.31380  0.30010  0.38274  Biso   1.000  C
  C1554    1.0000 0.28170  0.33400  0.36862  Biso   1.000  C
  C1555    1.0000 0.36790  0.34780  0.39863  Biso   1.000  C
  C1556    1.0000 0.31290  0.41770  0.37436  Biso   1.000  C
  C1557    1.0000 0.55550  0.43550  0.56995  Biso   1.000  C
  C1558    1.0000 0.40860  0.45930  0.58950  Biso   1.000  C
  C1559    1.0000 0.36080  0.33710  0.56417  Biso   1.000  C
  C1560    1.0000 0.38600  0.50830  0.58600  Biso   1.000  C
  H1029    1.0000 0.36870  0.50940  0.56490  Biso   1.000  H
  C1561    1.0000 0.30960  0.33140  0.54640  Biso   1.000  C
  H1030    1.0000 0.32100  0.39150  0.53960  Biso   1.000  H
  C1562    1.0000 0.12880  0.18430  0.37443  Biso   1.000  C
  C1563    1.0000 0.33690  0.27830  0.38140  Biso   1.000  C
  C1564    1.0000 0.28130  0.34450  0.35622  Biso   1.000  C
  H1031    1.0000 0.37900  0.37350  0.40420  Biso   1.000  H
  C1565    1.0000 0.39140  0.32470  0.39810  Biso   1.000  C
  H1032    1.0000 0.32330  0.44210  0.38030  Biso   1.000  H
  C1566    1.0000 0.31170  0.42560  0.36136  Biso   1.000  C
  H1033    1.0000 0.57600  0.46910  0.57110  Biso   1.000  H
  H1034    1.0000 0.56390  0.42710  0.56180  Biso   1.000  H
  C1567    1.0000 0.56530  0.41100  0.58031  Biso   1.000  C
  H1035    1.0000 0.41750  0.44500  0.59580  Biso   1.000  H
  C1568    1.0000 0.39620  0.49040  0.59300  Biso   1.000  C
  H1036    1.0000 0.37280  0.32500  0.57030  Biso   1.000  H
  C1569    1.0000 0.32020  0.30630  0.55700  Biso   1.000  C
  H1037    1.0000 0.37980  0.53150  0.58890  Biso   1.000  H
  H1038    1.0000 0.28680  0.31350  0.54030  Biso   1.000  H
  H1039    1.0000 0.11300  0.20260  0.37400  Biso   1.000  H
  H1040    1.0000 0.11620  0.16300  0.38170  Biso   1.000  H
  C1570    1.0000 0.12160  0.15820  0.36270  Biso   1.000  C
  C1571    1.0000 0.37630  0.29190  0.38880  Biso   1.000  C
  H1041    1.0000 0.32690  0.25350  0.37560  Biso   1.000  H
  C1572    1.0000 0.29250  0.38680  0.35249  Biso   1.000  C
  H1042    1.0000 0.27280  0.32100  0.35000  Biso   1.000  H
  H1043    1.0000 0.41600  0.33060  0.40370  Biso   1.000  H
  H1044    1.0000 0.32340  0.45610  0.35830  Biso   1.000  H
  C1573    1.0000 0.53250  0.38970  0.58958  Biso   1.000  C
  C1574    1.0000 0.60570  0.40780  0.58147  Biso   1.000  C
  H1045    1.0000 0.39630  0.49710  0.60170  Biso   1.000  H
  H1046    1.0000 0.30210  0.27410  0.55860  Biso   1.000  H
  C1575    1.0000 0.07570  0.12300  0.35880  Biso   1.000  C
  C1576    1.0000 0.15380  0.16860  0.35420  Biso   1.000  C
  H1047    1.0000 0.39400  0.27740  0.38720  Biso   1.000  H
  H1048    1.0000 0.28790  0.39190  0.34390  Biso   1.000  H
  H1049    1.0000 0.50480  0.39080  0.58900  Biso   1.000  H
  C1577    1.0000 0.53790  0.36650  0.59991  Biso   1.000  C
  C1578    1.0000 0.61020  0.38540  0.59162  Biso   1.000  C
  H1050    1.0000 0.62930  0.42100  0.57520  Biso   1.000  H
  H1051    1.0000 0.04930  0.11350  0.36400  Biso   1.000  H
  C1579    1.0000 0.07300  0.10400  0.34672  Biso   1.000  C
  C1580    1.0000 0.14890  0.14160  0.34221  Biso   1.000  C
  H1052    1.0000 0.18290  0.19550  0.35560  Biso   1.000  H
  H1053    1.0000 0.51510  0.35330  0.60630  Biso   1.000  H
  C1581    1.0000 0.57870  0.36340  0.60041  Biso   1.000  C
  H1054    1.0000 0.63860  0.38570  0.59250  Biso   1.000  H
  H1055    1.0000 0.04260  0.08280  0.34400  Biso   1.000  H
  C1582    1.0000 0.10450  0.11030  0.33883  Biso   1.000  C
  H1056    1.0000 0.17470  0.14600  0.33740  Biso   1.000  H
  C1583    1.0000 0.58380  0.33650  0.61080  Biso   1.000  C
  C1584    1.0000 0.09700  0.08160  0.32810  Biso   1.000  C
  O286     1.0000 0.05690  0.06350  0.32421  Biso   1.000  O
  Zn51     1.0000 0.04444  0.93212  0.79371  Biso   1.000  Zn
  O287     1.0000 0.00717  0.95163  0.80236  Biso   1.000  O
  O288     1.0000 0.07387  0.91483  0.80699  Biso   1.000  O
  O289     1.0000 0.00797  0.87823  0.78419  Biso   1.000  O
  O290     1.0000 0.09127  0.97393  0.78328  Biso   1.000  O
  Zn52     1.0000 0.96407  0.89163  0.80993  Biso   1.000  Zn
  C1585    1.0000 0.04767  0.89203  0.81604  Biso   1.000  C
  C1586    1.0000 0.96587  0.84683  0.78766  Biso   1.000  C
  O291     1.0000 0.00657  0.87743  0.81867  Biso   1.000  O
  O292     1.0000 0.94087  0.84783  0.79651  Biso   1.000  O
  O293     1.0000 0.91467  0.87243  0.82185  Biso   1.000  O
  O294     1.0000 0.95807  0.94543  0.77944  Biso   1.000  O
  C1587    1.0000 0.07527  0.88253  0.82626  Biso   1.000  C
  C1588    1.0000 0.94327  0.80523  0.77871  Biso   1.000  C
  C1589    1.0000 0.05357  0.85843  0.83777  Biso   1.000  C
  C1590    1.0000 0.11997  0.89513  0.82511  Biso   1.000  C
  C1591    1.0000 0.96607  0.79973  0.76764  Biso   1.000  C
  C1592    1.0000 0.90217  0.76763  0.78206  Biso   1.000  C
  C1593    1.0000 0.07727  0.84973  0.84616  Biso   1.000  C
  H1057    1.0000 0.02217  0.84883  0.83933  Biso   1.000  H
  H1058    1.0000 0.13557  0.91143  0.81763  Biso   1.000  H
  C1594    1.0000 0.14527  0.88633  0.83393  Biso   1.000  C
  C1595    1.0000 0.94537  0.76023  0.76016  Biso   1.000  C
  H1059    1.0000 0.99607  0.82393  0.76543  Biso   1.000  H
  H1060    1.0000 0.88787  0.76733  0.78983  Biso   1.000  H
  C1596    1.0000 0.88047  0.72833  0.77370  Biso   1.000  C
  C1597    1.0000 0.12437  0.86423  0.84516  Biso   1.000  C
  H1061    1.0000 0.06127  0.83223  0.85343  Biso   1.000  H
  H1062    1.0000 0.17657  0.89533  0.83233  Biso   1.000  H
  C1598    1.0000 0.90227  0.72543  0.76311  Biso   1.000  C
  H1063    1.0000 0.96117  0.75753  0.75303  Biso   1.000  H
  H1064    1.0000 0.85037  0.70393  0.77563  Biso   1.000  H
  C1599    1.0000 0.15187  0.85823  0.85515  Biso   1.000  C
  C1600    1.0000 0.87567  0.68353  0.75497  Biso   1.000  C
  H1065    1.0000 0.16467  0.83923  0.85193  Biso   1.000  H
  H1066    1.0000 0.17797  0.88873  0.85763  Biso   1.000  H
  O295     1.0000 0.12407  0.83683  0.86559  Biso   1.000  O
  H1067    1.0000 0.86427  0.65523  0.76013  Biso   1.000  H
  H1068    1.0000 0.84877  0.68373  0.75113  Biso   1.000  H
  O296     1.0000 0.90527  0.68443  0.74546  Biso   1.000  O
  C1601    1.0000 0.13927  0.81563  0.87412  Biso   1.000  C
  C1602    1.0000 0.88887  0.64783  0.73785  Biso   1.000  C
  C1603    1.0000 0.18567  0.82783  0.87440  Biso   1.000  C
  C1604    1.0000 0.11037  0.79523  0.88511  Biso   1.000  C
  C1605    1.0000 0.84387  0.61373  0.73775  Biso   1.000  C
  C1606    1.0000 0.91787  0.65333  0.72698  Biso   1.000  C
  H1069    1.0000 0.20727  0.85043  0.86873  Biso   1.000  H
  C1607    1.0000 0.19977  0.80613  0.88317  Biso   1.000  C
  C1608    1.0000 0.12537  0.77513  0.89342  Biso   1.000  C
  C1609    1.0000 0.06357  0.78643  0.88753  Biso   1.000  C
  C1610    1.0000 0.82967  0.57793  0.72833  Biso   1.000  C
  H1070    1.0000 0.82257  0.61353  0.74373  Biso   1.000  H
  C1611    1.0000 0.90517  0.61923  0.71812  Biso   1.000  C
  C1612    1.0000 0.96647  0.68973  0.72518  Biso   1.000  C
  H1071    1.0000 0.22867  0.80743  0.88223  Biso   1.000  H
  C1613    1.0000 0.16957  0.78183  0.89364  Biso   1.000  C
  C1614    1.0000 0.08727  0.74533  0.90307  Biso   1.000  C
  H1072    1.0000 0.05357  0.80203  0.88123  Biso   1.000  H
  C1615    1.0000 0.06187  0.79953  0.89983  Biso   1.000  C
  C1616    1.0000 0.03557  0.73573  0.88683  Biso   1.000  C
  C1617    1.0000 0.86237  0.58353  0.71793  Biso   1.000  C
  H1073    1.0000 0.79997  0.55123  0.72873  Biso   1.000  H
  C1618    1.0000 0.93807  0.62213  0.70896  Biso   1.000  C
  H1074    1.0000 0.97697  0.71493  0.73163  Biso   1.000  H
  C1619    1.0000 0.99487  0.66943  0.72478  Biso   1.000  C
  C1620    1.0000 0.96497  0.70653  0.71142  Biso   1.000  C
  O297     1.0000 0.18077  0.76083  0.90239  Biso   1.000  O
  H1075    1.0000 0.09697  0.72983  0.90953  Biso   1.000  H
  C1621    1.0000 0.07527  0.78013  0.90883  Biso   1.000  C
  C1622    1.0000 0.04677  0.71323  0.89573  Biso   1.000  C
  C1623    1.0000 0.04757  0.82963  0.90393  Biso   1.000  C
  C1624    1.0000 0.99757  0.71003  0.87883  Biso   1.000  C
  O298     1.0000 0.84237  0.54643  0.70915  Biso   1.000  O
  H1076    1.0000 0.92667  0.59453  0.70333  Biso   1.000  H
  C1625    1.0000 0.98047  0.63343  0.71607  Biso   1.000  C
  C1626    1.0000 0.94837  0.66733  0.70195  Biso   1.000  C
  C1627    1.0000 0.03457  0.68113  0.73196  Biso   1.000  C
  C1628    1.0000 0.97957  0.75103  0.70769  Biso   1.000  C
  C1629    1.0000 0.22217  0.76883  0.90328  Biso   1.000  C
  C1630    1.0000 0.07527  0.79263  0.92283  Biso   1.000  C
  C1631    1.0000 0.02747  0.67043  0.89750  Biso   1.000  C
  C1632    1.0000 0.05267  0.84163  0.91933  Biso   1.000  C
  H1077    1.0000 0.03537  0.84273  0.89823  Biso   1.000  H
  C1633    1.0000 0.97627  0.66473  0.87973  Biso   1.000  C
  H1078    1.0000 0.98767  0.72483  0.87293  Biso   1.000  H
  C1634    1.0000 0.79547  0.51763  0.70776  Biso   1.000  C
  C1635    1.0000 0.00357  0.61163  0.71473  Biso   1.000  C
  C1636    1.0000 0.94797  0.67783  0.68955  Biso   1.000  C
  H1079    1.0000 0.04567  0.70683  0.73753  Biso   1.000  H
  C1637    1.0000 0.05807  0.65803  0.73143  Biso   1.000  C
  H1080    1.0000 0.98997  0.77543  0.71363  Biso   1.000  H
  C1638    1.0000 0.97837  0.75893  0.69469  Biso   1.000  C
  H1081    1.0000 0.24267  0.80243  0.90443  Biso   1.000  H
  H1082    1.0000 0.23057  0.76043  0.89513  Biso   1.000  H
  C1639    1.0000 0.23197  0.74433  0.91364  Biso   1.000  C
  H1083    1.0000 0.08417  0.77833  0.92913  Biso   1.000  H
  C1640    1.0000 0.06287  0.82373  0.92633  Biso   1.000  C
  H1084    1.0000 0.03947  0.65833  0.90363  Biso   1.000  H
  C1641    1.0000 0.98687  0.63963  0.89033  Biso   1.000  C
  H1085    1.0000 0.04647  0.86483  0.92223  Biso   1.000  H
  H1086    1.0000 0.95347  0.64683  0.87363  Biso   1.000  H
  H1087    1.0000 0.77967  0.53593  0.70733  Biso   1.000  H
  H1088    1.0000 0.78287  0.49633  0.71503  Biso   1.000  H
  C1642    1.0000 0.78827  0.49153  0.69603  Biso   1.000  C
  C1643    1.0000 0.04297  0.62523  0.72213  Biso   1.000  C
  H1089    1.0000 0.99357  0.58683  0.70893  Biso   1.000  H
  C1644    1.0000 0.95917  0.72013  0.68582  Biso   1.000  C
  H1090    1.0000 0.93947  0.65433  0.68333  Biso   1.000  H
  H1091    1.0000 0.08267  0.66393  0.73703  Biso   1.000  H
  H1092    1.0000 0.99007  0.78943  0.69163  Biso   1.000  H
  C1645    1.0000 0.19917  0.72303  0.92291  Biso   1.000  C
  C1646    1.0000 0.27237  0.74113  0.91480  Biso   1.000  C
  H1093    1.0000 0.06297  0.83043  0.93503  Biso   1.000  H
  H1094    1.0000 0.96877  0.60743  0.89193  Biso   1.000  H
  C1647    1.0000 0.74237  0.45633  0.69213  Biso   1.000  C
  C1648    1.0000 0.82047  0.50193  0.68753  Biso   1.000  C
  H1095    1.0000 0.06067  0.61073  0.72053  Biso   1.000  H
  H1096    1.0000 0.95457  0.72523  0.67723  Biso   1.000  H
  H1097    1.0000 0.17147  0.72413  0.92233  Biso   1.000  H
  C1649    1.0000 0.20457  0.69983  0.93324  Biso   1.000  C
  C1650    1.0000 0.27687  0.71873  0.92495  Biso   1.000  C
  H1098    1.0000 0.29597  0.75433  0.90853  Biso   1.000  H
  H1099    1.0000 0.71597  0.44683  0.69733  Biso   1.000  H
  C1651    1.0000 0.73967  0.43733  0.68005  Biso   1.000  C
  C1652    1.0000 0.81557  0.47493  0.67554  Biso   1.000  C
  H1100    1.0000 0.84957  0.52883  0.68893  Biso   1.000  H
  H1101    1.0000 0.18177  0.68663  0.93963  Biso   1.000  H
  C1653    1.0000 0.24537  0.69673  0.93374  Biso   1.000  C
  H1102    1.0000 0.30527  0.71903  0.92583  Biso   1.000  H
  H1103    1.0000 0.70927  0.41613  0.67733  Biso   1.000  H
  C1654    1.0000 0.77117  0.44363  0.67216  Biso   1.000  C
  H1104    1.0000 0.84137  0.47933  0.67073  Biso   1.000  H
  C1655    1.0000 0.25047  0.66983  0.94413  Biso   1.000  C
  C1656    1.0000 0.76367  0.41493  0.66143  Biso   1.000  C
  O299     1.0000 0.72357  0.39683  0.65754  Biso   1.000  O
  Zn53     1.0000 0.71110  0.26546  0.12705  Biso   1.000  Zn
  O300     1.0000 0.67383  0.28497  0.13570  Biso   1.000  O
  O301     1.0000 0.74053  0.24817  0.14033  Biso   1.000  O
  O302     1.0000 0.67463  0.21157  0.11753  Biso   1.000  O
  O303     1.0000 0.75793  0.30727  0.11662  Biso   1.000  O
  Zn54     1.0000 0.63073  0.22497  0.14327  Biso   1.000  Zn
  C1657    1.0000 0.71433  0.22537  0.14938  Biso   1.000  C
  C1658    1.0000 0.63253  0.18017  0.12100  Biso   1.000  C
  O304     1.0000 0.67323  0.21077  0.15201  Biso   1.000  O
  O305     1.0000 0.60753  0.18117  0.12985  Biso   1.000  O
  O306     1.0000 0.58133  0.20577  0.15519  Biso   1.000  O
  O307     1.0000 0.62473  0.27877  0.11278  Biso   1.000  O
  C1659    1.0000 0.74193  0.21587  0.15960  Biso   1.000  C
  C1660    1.0000 0.60993  0.13857  0.11205  Biso   1.000  C
  C1661    1.0000 0.72023  0.19177  0.17111  Biso   1.000  C
  C1662    1.0000 0.78663  0.22847  0.15845  Biso   1.000  C
  C1663    1.0000 0.63273  0.13307  0.10098  Biso   1.000  C
  C1664    1.0000 0.56883  0.10097  0.11540  Biso   1.000  C
  C1665    1.0000 0.74393  0.18307  0.17950  Biso   1.000  C
  H1105    1.0000 0.68883  0.18217  0.17267  Biso   1.000  H
  H1106    1.0000 0.80223  0.24477  0.15097  Biso   1.000  H
  C1666    1.0000 0.81193  0.21967  0.16727  Biso   1.000  C
  C1667    1.0000 0.61203  0.09357  0.09350  Biso   1.000  C
  H1107    1.0000 0.66273  0.15727  0.09877  Biso   1.000  H
  H1108    1.0000 0.55453  0.10067  0.12317  Biso   1.000  H
  C1668    1.0000 0.54713  0.06167  0.10704  Biso   1.000  C
  C1669    1.0000 0.79103  0.19757  0.17850  Biso   1.000  C
  H1109    1.0000 0.72793  0.16557  0.18677  Biso   1.000  H
  H1110    1.0000 0.84323  0.22867  0.16567  Biso   1.000  H
  C1670    1.0000 0.56893  0.05877  0.09645  Biso   1.000  C
  H1111    1.0000 0.62783  0.09087  0.08637  Biso   1.000  H
  H1112    1.0000 0.51703  0.03727  0.10897  Biso   1.000  H
  C1671    1.0000 0.81853  0.19157  0.18849  Biso   1.000  C
  C1672    1.0000 0.54233  0.01687  0.08831  Biso   1.000  C
  H1113    1.0000 0.83133  0.17257  0.18527  Biso   1.000  H
  H1114    1.0000 0.84463  0.22207  0.19097  Biso   1.000  H
  O308     1.0000 0.79073  0.17017  0.19893  Biso   1.000  O
  H1115    1.0000 0.53093  0.98857  0.09347  Biso   1.000  H
  H1116    1.0000 0.51543  0.01707  0.08447  Biso   1.000  H
  O309     1.0000 0.57193  0.01777  0.07880  Biso   1.000  O
  C1673    1.0000 0.80593  0.14897  0.20746  Biso   1.000  C
  C1674    1.0000 0.55553  0.98117  0.07119  Biso   1.000  C
  C1675    1.0000 0.85233  0.16117  0.20774  Biso   1.000  C
  C1676    1.0000 0.77703  0.12857  0.21845  Biso   1.000  C
  C1677    1.0000 0.51053  0.94707  0.07109  Biso   1.000  C
  C1678    1.0000 0.58453  0.98667  0.06032  Biso   1.000  C
  H1117    1.0000 0.87393  0.18377  0.20207  Biso   1.000  H
  C1679    1.0000 0.86643  0.13947  0.21651  Biso   1.000  C
  C1680    1.0000 0.79203  0.10847  0.22676  Biso   1.000  C
  C1681    1.0000 0.73023  0.11977  0.22087  Biso   1.000  C
  C1682    1.0000 0.49633  0.91127  0.06167  Biso   1.000  C
  H1118    1.0000 0.48923  0.94687  0.07707  Biso   1.000  H
  C1683    1.0000 0.57183  0.95257  0.05146  Biso   1.000  C
  C1684    1.0000 0.63313  0.02307  0.05852  Biso   1.000  C
  H1119    1.0000 0.89533  0.14077  0.21557  Biso   1.000  H
  C1685    1.0000 0.83623  0.11517  0.22698  Biso   1.000  C
  C1686    1.0000 0.75393  0.07867  0.23641  Biso   1.000  C
  H1120    1.0000 0.72023  0.13537  0.21457  Biso   1.000  H
  C1687    1.0000 0.72853  0.13287  0.23317  Biso   1.000  C
  C1688    1.0000 0.70223  0.06907  0.22017  Biso   1.000  C
  C1689    1.0000 0.52903  0.91687  0.05127  Biso   1.000  C
  H1121    1.0000 0.46663  0.88457  0.06207  Biso   1.000  H
  C1690    1.0000 0.60473  0.95547  0.04230  Biso   1.000  C
  H1122    1.0000 0.64363  0.04827  0.06497  Biso   1.000  H
  C1691    1.0000 0.66153  0.00277  0.05812  Biso   1.000  C
  C1692    1.0000 0.63163  0.03987  0.04476  Biso   1.000  C
  O310     1.0000 0.84743  0.09417  0.23573  Biso   1.000  O
  H1123    1.0000 0.76363  0.06317  0.24287  Biso   1.000  H
  C1693    1.0000 0.74193  0.11347  0.24217  Biso   1.000  C
  C1694    1.0000 0.71343  0.04657  0.22907  Biso   1.000  C
  C1695    1.0000 0.71423  0.16297  0.23727  Biso   1.000  C
  C1696    1.0000 0.66423  0.04337  0.21217  Biso   1.000  C
  O311     1.0000 0.50903  0.87977  0.04249  Biso   1.000  O
  H1124    1.0000 0.59333  0.92787  0.03667  Biso   1.000  H
  C1697    1.0000 0.64713  0.96677  0.04941  Biso   1.000  C
  C1698    1.0000 0.61503  0.00067  0.03529  Biso   1.000  C
  C1699    1.0000 0.70123  0.01447  0.06530  Biso   1.000  C
  C1700    1.0000 0.64623  0.08437  0.04103  Biso   1.000  C
  C1701    1.0000 0.88883  0.10217  0.23662  Biso   1.000  C
  C1702    1.0000 0.74193  0.12597  0.25617  Biso   1.000  C
  C1703    1.0000 0.69413  0.00377  0.23084  Biso   1.000  C
  C1704    1.0000 0.71933  0.17497  0.25267  Biso   1.000  C
  H1125    1.0000 0.70203  0.17607  0.23157  Biso   1.000  H
  C1705    1.0000 0.64293  0.99807  0.21307  Biso   1.000  C
  H1126    1.0000 0.65433  0.05817  0.20627  Biso   1.000  H
  C1706    1.0000 0.46213  0.85097  0.04110  Biso   1.000  C
  C1707    1.0000 0.67023  0.94497  0.04807  Biso   1.000  C
  C1708    1.0000 0.61463  0.01117  0.02289  Biso   1.000  C
  H1127    1.0000 0.71233  0.04017  0.07087  Biso   1.000  H
  C1709    1.0000 0.72473  0.99137  0.06477  Biso   1.000  C
  H1128    1.0000 0.65663  0.10877  0.04697  Biso   1.000  H
  C1710    1.0000 0.64503  0.09227  0.02803  Biso   1.000  C
  H1129    1.0000 0.90933  0.13577  0.23777  Biso   1.000  H
  H1130    1.0000 0.89723  0.09377  0.22847  Biso   1.000  H
  C1711    1.0000 0.89863  0.07767  0.24698  Biso   1.000  C
  H1131    1.0000 0.75083  0.11167  0.26247  Biso   1.000  H
  C1712    1.0000 0.72953  0.15707  0.25967  Biso   1.000  C
  H1132    1.0000 0.70613  0.99167  0.23697  Biso   1.000  H
  C1713    1.0000 0.65353  0.97297  0.22367  Biso   1.000  C
  H1133    1.0000 0.71313  0.19817  0.25557  Biso   1.000  H
  H1134    1.0000 0.62013  0.98017  0.20697  Biso   1.000  H
  H1135    1.0000 0.44633  0.86927  0.04067  Biso   1.000  H
  H1136    1.0000 0.44953  0.82967  0.04837  Biso   1.000  H
  C1714    1.0000 0.45493  0.82487  0.02937  Biso   1.000  C
  C1715    1.0000 0.70963  0.95857  0.05547  Biso   1.000  C
  H1137    1.0000 0.66023  0.92017  0.04227  Biso   1.000  H
  C1716    1.0000 0.62583  0.05347  0.01916  Biso   1.000  C
  H1138    1.0000 0.60613  0.98767  0.01667  Biso   1.000  H
  H1139    1.0000 0.74933  0.99727  0.07037  Biso   1.000  H
  H1140    1.0000 0.65673  0.12277  0.02497  Biso   1.000  H
  C1717    1.0000 0.86583  0.05637  0.25625  Biso   1.000  C
  C1718    1.0000 0.93903  0.07447  0.24814  Biso   1.000  C
  H1141    1.0000 0.72963  0.16377  0.26837  Biso   1.000  H
  H1142    1.0000 0.63543  0.94077  0.22527  Biso   1.000  H
  C1719    1.0000 0.40903  0.78967  0.02547  Biso   1.000  C
  C1720    1.0000 0.48713  0.83527  0.02087  Biso   1.000  C
  H1143    1.0000 0.72733  0.94407  0.05387  Biso   1.000  H
  H1144    1.0000 0.62123  0.05857  0.01057  Biso   1.000  H
  H1145    1.0000 0.83813  0.05747  0.25567  Biso   1.000  H
  C1721    1.0000 0.87123  0.03317  0.26658  Biso   1.000  C
  C1722    1.0000 0.94353  0.05207  0.25829  Biso   1.000  C
  H1146    1.0000 0.96263  0.08767  0.24187  Biso   1.000  H
  H1147    1.0000 0.38263  0.78017  0.03067  Biso   1.000  H
  C1723    1.0000 0.40633  0.77067  0.01339  Biso   1.000  C
  C1724    1.0000 0.48223  0.80827  0.00888  Biso   1.000  C
  H1148    1.0000 0.51623  0.86217  0.02227  Biso   1.000  H
  H1149    1.0000 0.84843  0.01997  0.27297  Biso   1.000  H
  C1725    1.0000 0.91203  0.03007  0.26708  Biso   1.000  C
  H1150    1.0000 0.97193  0.05237  0.25917  Biso   1.000  H
  H1151    1.0000 0.37593  0.74947  0.01067  Biso   1.000  H
  C1726    1.0000 0.43783  0.77697  0.00550  Biso   1.000  C
  H1152    1.0000 0.50803  0.81267  0.00407  Biso   1.000  H
  C1727    1.0000 0.91713  0.00317  0.27747  Biso   1.000  C
  C1728    1.0000 0.43033  0.74827  0.99477  Biso   1.000  C
  O312     1.0000 0.39023  0.73017  0.99088  Biso   1.000  O
  Zn55     1.0000 0.22102  0.62223  0.46038  Biso   1.000  Zn
  O313     1.0000 0.27780  0.65950  0.46903  Biso   1.000  O
  O314     1.0000 0.17430  0.59280  0.47366  Biso   1.000  O
  O315     1.0000 0.20360  0.65870  0.45086  Biso   1.000  O
  O316     1.0000 0.21600  0.57540  0.44995  Biso   1.000  O
  Zn56     1.0000 0.26090  0.70260  0.47660  Biso   1.000  Zn
  C1729    1.0000 0.17770  0.61900  0.48271  Biso   1.000  C
  C1730    1.0000 0.21430  0.70080  0.45433  Biso   1.000  C
  O317     1.0000 0.20420  0.66010  0.48534  Biso   1.000  O
  O318     1.0000 0.24030  0.72580  0.46318  Biso   1.000  O
  O319     1.0000 0.29110  0.75200  0.48852  Biso   1.000  O
  O320     1.0000 0.32070  0.70860  0.44611  Biso   1.000  O
  C1731    1.0000 0.14060  0.59140  0.49293  Biso   1.000  C
  C1732    1.0000 0.19530  0.72340  0.44538  Biso   1.000  C
  C1733    1.0000 0.13820  0.61310  0.50444  Biso   1.000  C
  C1734    1.0000 0.10850  0.54670  0.49178  Biso   1.000  C
  C1735    1.0000 0.16700  0.70060  0.43431  Biso   1.000  C
  C1736    1.0000 0.19880  0.76450  0.44873  Biso   1.000  C
  C1737    1.0000 0.10580  0.58940  0.51283  Biso   1.000  C
  H1153    1.0000 0.16000  0.64450  0.50600  Biso   1.000  H
  H1154    1.0000 0.10920  0.53110  0.48430  Biso   1.000  H
  C1738    1.0000 0.07440  0.52140  0.50060  Biso   1.000  C
  C1739    1.0000 0.14820  0.72130  0.42683  Biso   1.000  C
  H1155    1.0000 0.16120  0.67060  0.43210  Biso   1.000  H
  H1156    1.0000 0.21280  0.77880  0.45650  Biso   1.000  H
  C1740    1.0000 0.18120  0.78620  0.44037  Biso   1.000  C
  C1741    1.0000 0.07320  0.54230  0.51183  Biso   1.000  C
  H1157    1.0000 0.10430  0.60540  0.52010  Biso   1.000  H
  H1158    1.0000 0.05210  0.49010  0.49900  Biso   1.000  H
  C1742    1.0000 0.15650  0.76440  0.42978  Biso   1.000  C
  H1159    1.0000 0.12970  0.70550  0.41970  Biso   1.000  H
  H1160    1.0000 0.18690  0.81630  0.44230  Biso   1.000  H
  C1743    1.0000 0.03970  0.51480  0.52182  Biso   1.000  C
  C1744    1.0000 0.14120  0.79100  0.42164  Biso   1.000  C
  H1161    1.0000 0.00790  0.50200  0.51860  Biso   1.000  H
  H1162    1.0000 0.04410  0.48870  0.52430  Biso   1.000  H
  O321     1.0000 0.04610  0.54260  0.53226  Biso   1.000  O
  H1163    1.0000 0.12430  0.80240  0.42680  Biso   1.000  H
  H1164    1.0000 0.16830  0.81790  0.41780  Biso   1.000  H
  O322     1.0000 0.11250  0.76140  0.41213  Biso   1.000  O
  C1745    1.0000 0.00970  0.52740  0.54079  Biso   1.000  C
  C1746    1.0000 0.09230  0.77780  0.40452  Biso   1.000  C
  C1747    1.0000 0.97550  0.48100  0.54107  Biso   1.000  C
  C1748    1.0000 0.01820  0.55630  0.55178  Biso   1.000  C
  C1749    1.0000 0.10320  0.82280  0.40442  Biso   1.000  C
  C1750    1.0000 0.06880  0.74880  0.39365  Biso   1.000  C
  H1165    1.0000 0.97650  0.45940  0.53540  Biso   1.000  H
  C1751    1.0000 0.93970  0.46690  0.54984  Biso   1.000  C
  C1752    1.0000 0.98310  0.54130  0.56009  Biso   1.000  C
  C1753    1.0000 0.05620  0.60310  0.55420  Biso   1.000  C
  C1754    1.0000 0.08160  0.83700  0.39500  Biso   1.000  C
  H1166    1.0000 0.12430  0.84410  0.41040  Biso   1.000  H
  C1755    1.0000 0.04740  0.76150  0.38479  Biso   1.000  C
  C1756    1.0000 0.05660  0.70020  0.39185  Biso   1.000  C
  H1167    1.0000 0.91210  0.43800  0.54890  Biso   1.000  H
  C1757    1.0000 0.94560  0.49710  0.56031  Biso   1.000  C
  C1758    1.0000 0.99140  0.57940  0.56974  Biso   1.000  C
  H1168    1.0000 0.08180  0.61310  0.54790  Biso   1.000  H
  C1759    1.0000 0.07100  0.60480  0.56650  Biso   1.000  C
  C1760    1.0000 0.03350  0.63110  0.55350  Biso   1.000  C
  C1761    1.0000 0.05450  0.80430  0.38460  Biso   1.000  C
  H1169    1.0000 0.08460  0.86670  0.39540  Biso   1.000  H
  C1762    1.0000 0.01740  0.72860  0.37563  Biso   1.000  C
  H1170    1.0000 0.07130  0.68970  0.39830  Biso   1.000  H
  C1763    1.0000 0.00790  0.67180  0.39145  Biso   1.000  C
  C1764    1.0000 0.07490  0.70170  0.37809  Biso   1.000  C
  O323     1.0000 0.91340  0.48590  0.56906  Biso   1.000  O
  H1171    1.0000 0.96620  0.56970  0.57620  Biso   1.000  H
  C1765    1.0000 0.03820  0.59140  0.57550  Biso   1.000  C
  C1766    1.0000 0.99980  0.61990  0.56240  Biso   1.000  C
  C1767    1.0000 0.11540  0.61910  0.57060  Biso   1.000  C
  C1768    1.0000 0.04580  0.66910  0.54550  Biso   1.000  C
  O324     1.0000 0.03740  0.82430  0.37582  Biso   1.000  O
  H1172    1.0000 0.00120  0.74000  0.37000  Biso   1.000  H
  C1769    1.0000 0.98630  0.68620  0.38274  Biso   1.000  C
  C1770    1.0000 0.05230  0.71830  0.36862  Biso   1.000  C
  C1771    1.0000 0.97990  0.63210  0.39863  Biso   1.000  C
  C1772    1.0000 0.10480  0.68710  0.37436  Biso   1.000  C
  C1773    1.0000 0.88000  0.44450  0.56995  Biso   1.000  C
  C1774    1.0000 0.05070  0.59140  0.58950  Biso   1.000  C
  C1775    1.0000 0.97630  0.63920  0.56417  Biso   1.000  C
  C1776    1.0000 0.12230  0.61400  0.58600  Biso   1.000  C
  H1173    1.0000 0.14070  0.63130  0.56490  Biso   1.000  H
  C1777    1.0000 0.02180  0.69040  0.54640  Biso   1.000  C
  H1174    1.0000 0.07050  0.67900  0.53960  Biso   1.000  H
  C1778    1.0000 0.05550  0.87120  0.37443  Biso   1.000  C
  C1779    1.0000 0.94140  0.66310  0.38140  Biso   1.000  C
  C1780    1.0000 0.06320  0.71870  0.35622  Biso   1.000  C
  H1175    1.0000 0.99450  0.62100  0.40420  Biso   1.000  H
  C1781    1.0000 0.93330  0.60860  0.39810  Biso   1.000  C
  H1176    1.0000 0.11880  0.67670  0.38030  Biso   1.000  H
  C1782    1.0000 0.11390  0.68830  0.36136  Biso   1.000  C
  H1177    1.0000 0.89310  0.42400  0.57110  Biso   1.000  H
  H1178    1.0000 0.86320  0.43610  0.56180  Biso   1.000  H
  C1783    1.0000 0.84570  0.43470  0.58031  Biso   1.000  C
  H1179    1.0000 0.02750  0.58250  0.59580  Biso   1.000  H
  C1784    1.0000 0.09420  0.60380  0.59300  Biso   1.000  C
  H1180    1.0000 0.95220  0.62720  0.57030  Biso   1.000  H
  C1785    1.0000 0.98610  0.67980  0.55700  Biso   1.000  C
  H1181    1.0000 0.15170  0.62020  0.58890  Biso   1.000  H
  H1182    1.0000 0.02670  0.71320  0.54030  Biso   1.000  H
  H1183    1.0000 0.08960  0.88700  0.37400  Biso   1.000  H
  H1184    1.0000 0.04680  0.88380  0.38170  Biso   1.000  H
  C1786    1.0000 0.03660  0.87840  0.36270  Biso   1.000  C
  C1787    1.0000 0.91560  0.62370  0.38880  Biso   1.000  C
  H1185    1.0000 0.92660  0.67310  0.37560  Biso   1.000  H
  C1788    1.0000 0.09430  0.70750  0.35249  Biso   1.000  C
  H1186    1.0000 0.04820  0.72720  0.35000  Biso   1.000  H
  H1187    1.0000 0.91460  0.58400  0.40370  Biso   1.000  H
  H1188    1.0000 0.13270  0.67660  0.35830  Biso   1.000  H
  C1789    1.0000 0.85720  0.46750  0.58958  Biso   1.000  C
  C1790    1.0000 0.80210  0.39430  0.58147  Biso   1.000  C
  H1189    1.0000 0.10080  0.60370  0.60170  Biso   1.000  H
  H1190    1.0000 0.97200  0.69790  0.55860  Biso   1.000  H
  C1791    1.0000 0.04730  0.92430  0.35880  Biso   1.000  C
  C1792    1.0000 0.01480  0.84620  0.35420  Biso   1.000  C
  H1191    1.0000 0.88340  0.60600  0.38720  Biso   1.000  H
  H1192    1.0000 0.10400  0.71210  0.34390  Biso   1.000  H
  H1193    1.0000 0.88600  0.49520  0.58900  Biso   1.000  H
  C1793    1.0000 0.82860  0.46210  0.59991  Biso   1.000  C
  C1794    1.0000 0.77520  0.38980  0.59162  Biso   1.000  C
  H1194    1.0000 0.79170  0.37070  0.57520  Biso   1.000  H
  H1195    1.0000 0.06420  0.95070  0.36400  Biso   1.000  H
  C1795    1.0000 0.03100  0.92700  0.34672  Biso   1.000  C
  C1796    1.0000 0.99270  0.85110  0.34221  Biso   1.000  C
  H1196    1.0000 0.01260  0.81710  0.35560  Biso   1.000  H
  H1197    1.0000 0.83820  0.48490  0.60630  Biso   1.000  H
  C1797    1.0000 0.78470  0.42130  0.60041  Biso   1.000  C
  H1198    1.0000 0.74710  0.36140  0.59250  Biso   1.000  H
  H1199    1.0000 0.04020  0.95740  0.34400  Biso   1.000  H
  C1798    1.0000 0.00580  0.89550  0.33883  Biso   1.000  C
  H1200    1.0000 0.97130  0.82530  0.33740  Biso   1.000  H
  C1799    1.0000 0.75270  0.41620  0.61080  Biso   1.000  C
  C1800    1.0000 0.98460  0.90300  0.32810  Biso   1.000  C
  O325     1.0000 0.00660  0.94310  0.32421  Biso   1.000  O
  Zn57     1.0000 0.88769  0.95556  0.79371  Biso   1.000  Zn
  O326     1.0000 0.94447  0.99283  0.80236  Biso   1.000  O
  O327     1.0000 0.84097  0.92613  0.80699  Biso   1.000  O
  O328     1.0000 0.87027  0.99203  0.78419  Biso   1.000  O
  O329     1.0000 0.88267  0.90873  0.78328  Biso   1.000  O
  Zn58     1.0000 0.92757  0.03593  0.80993  Biso   1.000  Zn
  C1801    1.0000 0.84437  0.95233  0.81604  Biso   1.000  C
  C1802    1.0000 0.88097  0.03413  0.78766  Biso   1.000  C
  O330     1.0000 0.87087  0.99343  0.81867  Biso   1.000  O
  O331     1.0000 0.90697  0.05913  0.79651  Biso   1.000  O
  O332     1.0000 0.95777  0.08533  0.82185  Biso   1.000  O
  O333     1.0000 0.98737  0.04193  0.77944  Biso   1.000  O
  C1803    1.0000 0.80727  0.92473  0.82626  Biso   1.000  C
  C1804    1.0000 0.86197  0.05673  0.77871  Biso   1.000  C
  C1805    1.0000 0.80487  0.94643  0.83777  Biso   1.000  C
  C1806    1.0000 0.77517  0.88003  0.82511  Biso   1.000  C
  C1807    1.0000 0.83367  0.03393  0.76764  Biso   1.000  C
  C1808    1.0000 0.86547  0.09783  0.78206  Biso   1.000  C
  C1809    1.0000 0.77247  0.92273  0.84616  Biso   1.000  C
  H1201    1.0000 0.82667  0.97783  0.83933  Biso   1.000  H
  H1202    1.0000 0.77587  0.86443  0.81763  Biso   1.000  H
  C1810    1.0000 0.74107  0.85473  0.83393  Biso   1.000  C
  C1811    1.0000 0.81487  0.05463  0.76016  Biso   1.000  C
  H1203    1.0000 0.82787  0.00393  0.76543  Biso   1.000  H
  H1204    1.0000 0.87947  0.11213  0.78983  Biso   1.000  H
  C1812    1.0000 0.84787  0.11953  0.77370  Biso   1.000  C
  C1813    1.0000 0.73987  0.87563  0.84516  Biso   1.000  C
  H1205    1.0000 0.77097  0.93873  0.85343  Biso   1.000  H
  H1206    1.0000 0.71877  0.82343  0.83233  Biso   1.000  H
  C1814    1.0000 0.82317  0.09773  0.76311  Biso   1.000  C
  H1207    1.0000 0.79637  0.03883  0.75303  Biso   1.000  H
  H1208    1.0000 0.85357  0.14963  0.77563  Biso   1.000  H
  C1815    1.0000 0.70637  0.84813  0.85515  Biso   1.000  C
  C1816    1.0000 0.80787  0.12433  0.75497  Biso   1.000  C
  H1209    1.0000 0.67457  0.83533  0.85193  Biso   1.000  H
  H1210    1.0000 0.71077  0.82203  0.85763  Biso   1.000  H
  O334     1.0000 0.71277  0.87593  0.86559  Biso   1.000  O
  H1211    1.0000 0.79097  0.13573  0.76013  Biso   1.000  H
  H1212    1.0000 0.83497  0.15123  0.75113  Biso   1.000  H
  O335     1.0000 0.77917  0.09473  0.74546  Biso   1.000  O
  C1817    1.0000 0.67637  0.86073  0.87412  Biso   1.000  C
  C1818    1.0000 0.75897  0.11113  0.73785  Biso   1.000  C
  C1819    1.0000 0.64217  0.81433  0.87440  Biso   1.000  C
  C1820    1.0000 0.68487  0.88963  0.88511  Biso   1.000  C
  C1821    1.0000 0.76987  0.15613  0.73775  Biso   1.000  C
  C1822    1.0000 0.73547  0.08213  0.72698  Biso   1.000  C
  H1213    1.0000 0.64317  0.79273  0.86873  Biso   1.000  H
  C1823    1.0000 0.60637  0.80023  0.88317  Biso   1.000  C
  C1824    1.0000 0.64977  0.87463  0.89342  Biso   1.000  C
  C1825    1.0000 0.72287  0.93643  0.88753  Biso   1.000  C
  C1826    1.0000 0.74827  0.17033  0.72833  Biso   1.000  C
  H1214    1.0000 0.79097  0.17743  0.74373  Biso   1.000  H
  C1827    1.0000 0.71407  0.09483  0.71812  Biso   1.000  C
  C1828    1.0000 0.72327  0.03353  0.72518  Biso   1.000  C
  H1215    1.0000 0.57877  0.77133  0.88223  Biso   1.000  H
  C1829    1.0000 0.61227  0.83043  0.89364  Biso   1.000  C
  C1830    1.0000 0.65807  0.91273  0.90307  Biso   1.000  C
  H1216    1.0000 0.74847  0.94643  0.88123  Biso   1.000  H
  C1831    1.0000 0.73767  0.93813  0.89983  Biso   1.000  C
  C1832    1.0000 0.70017  0.96443  0.88683  Biso   1.000  C
  C1833    1.0000 0.72117  0.13763  0.71793  Biso   1.000  C
  H1217    1.0000 0.75127  0.20003  0.72873  Biso   1.000  H
  C1834    1.0000 0.68407  0.06193  0.70896  Biso   1.000  C
  H1218    1.0000 0.73797  0.02303  0.73163  Biso   1.000  H
  C1835    1.0000 0.67457  0.00513  0.72478  Biso   1.000  C
  C1836    1.0000 0.74157  0.03503  0.71142  Biso   1.000  C
  O336     1.0000 0.58007  0.81923  0.90239  Biso   1.000  O
  H1219    1.0000 0.63287  0.90303  0.90953  Biso   1.000  H
  C1837    1.0000 0.70487  0.92473  0.90883  Biso   1.000  C
  C1838    1.0000 0.66647  0.95323  0.89573  Biso   1.000  C
  C1839    1.0000 0.78207  0.95243  0.90393  Biso   1.000  C
  C1840    1.0000 0.71247  0.00243  0.87883  Biso   1.000  C
  O337     1.0000 0.70407  0.15763  0.70915  Biso   1.000  O
  H1220    1.0000 0.66787  0.07333  0.70333  Biso   1.000  H
  C1841    1.0000 0.65297  0.01953  0.71607  Biso   1.000  C
  C1842    1.0000 0.71897  0.05163  0.70195  Biso   1.000  C
  C1843    1.0000 0.64657  0.96543  0.73196  Biso   1.000  C
  C1844    1.0000 0.77147  0.02043  0.70769  Biso   1.000  C
  C1845    1.0000 0.54667  0.77783  0.90328  Biso   1.000  C
  C1846    1.0000 0.71737  0.92473  0.92283  Biso   1.000  C
  C1847    1.0000 0.64297  0.97253  0.89750  Biso   1.000  C
  C1848    1.0000 0.78897  0.94733  0.91933  Biso   1.000  C
  H1221    1.0000 0.80737  0.96463  0.89823  Biso   1.000  H
  C1849    1.0000 0.68847  0.02373  0.87973  Biso   1.000  C
  H1222    1.0000 0.73717  0.01233  0.87293  Biso   1.000  H
  C1850    1.0000 0.72217  0.20453  0.70776  Biso   1.000  C
  C1851    1.0000 0.60807  0.99643  0.71473  Biso   1.000  C
  C1852    1.0000 0.72987  0.05203  0.68955  Biso   1.000  C
  H1223    1.0000 0.66117  0.95433  0.73753  Biso   1.000  H
  C1853    1.0000 0.59997  0.94193  0.73143  Biso   1.000  C
  H1224    1.0000 0.78547  0.01003  0.71363  Biso   1.000  H
  C1854    1.0000 0.78057  0.02163  0.69469  Biso   1.000  C
  H1225    1.0000 0.55977  0.75733  0.90443  Biso   1.000  H
  H1226    1.0000 0.52987  0.76943  0.89513  Biso   1.000  H
  C1855    1.0000 0.51237  0.76803  0.91364  Biso   1.000  C
  H1227    1.0000 0.69417  0.91583  0.92913  Biso   1.000  H
  C1856    1.0000 0.76087  0.93713  0.92633  Biso   1.000  C
  H1228    1.0000 0.61887  0.96053  0.90363  Biso   1.000  H
  C1857    1.0000 0.65277  0.01313  0.89033  Biso   1.000  C
  H1229    1.0000 0.81837  0.95353  0.92223  Biso   1.000  H
  H1230    1.0000 0.69337  0.04653  0.87363  Biso   1.000  H
  H1231    1.0000 0.75627  0.22033  0.70733  Biso   1.000  H
  H1232    1.0000 0.71347  0.21713  0.71503  Biso   1.000  H
  C1858    1.0000 0.70327  0.21173  0.69603  Biso   1.000  C
  C1859    1.0000 0.58227  0.95703  0.72213  Biso   1.000  C
  H1233    1.0000 0.59327  0.00643  0.70893  Biso   1.000  H
  C1860    1.0000 0.76097  0.04083  0.68582  Biso   1.000  C
  H1234    1.0000 0.71487  0.06053  0.68333  Biso   1.000  H
  H1235    1.0000 0.58127  0.91733  0.73703  Biso   1.000  H
  H1236    1.0000 0.79937  0.00993  0.69163  Biso   1.000  H
  C1861    1.0000 0.52387  0.80083  0.92291  Biso   1.000  C
  C1862    1.0000 0.46877  0.72763  0.91480  Biso   1.000  C
  H1237    1.0000 0.76747  0.93703  0.93503  Biso   1.000  H
  H1238    1.0000 0.63867  0.03123  0.89193  Biso   1.000  H
  C1863    1.0000 0.71397  0.25763  0.69213  Biso   1.000  C
  C1864    1.0000 0.68147  0.17953  0.68753  Biso   1.000  C
  H1239    1.0000 0.55007  0.93933  0.72053  Biso   1.000  H
  H1240    1.0000 0.77067  0.04543  0.67723  Biso   1.000  H
  H1241    1.0000 0.55267  0.82853  0.92233  Biso   1.000  H
  C1865    1.0000 0.49527  0.79543  0.93324  Biso   1.000  C
  C1866    1.0000 0.44187  0.72313  0.92495  Biso   1.000  C
  H1242    1.0000 0.45837  0.70403  0.90853  Biso   1.000  H
  H1243    1.0000 0.73087  0.28403  0.69733  Biso   1.000  H
  C1867    1.0000 0.69767  0.26033  0.68005  Biso   1.000  C
  C1868    1.0000 0.65937  0.18443  0.67554  Biso   1.000  C
  H1244    1.0000 0.67927  0.15043  0.68893  Biso   1.000  H
  H1245    1.0000 0.50487  0.81823  0.93963  Biso   1.000  H
  C1869    1.0000 0.45137  0.75463  0.93374  Biso   1.000  C
  H1246    1.0000 0.41377  0.69473  0.92583  Biso   1.000  H
  H1247    1.0000 0.70687  0.29073  0.67733  Biso   1.000  H
  C1870    1.0000 0.67247  0.22883  0.67216  Biso   1.000  C
  H1248    1.0000 0.63797  0.15863  0.67073  Biso   1.000  H
  C1871    1.0000 0.41937  0.74953  0.94413  Biso   1.000  C
  C1872    1.0000 0.65127  0.23633  0.66143  Biso   1.000  C
  O338     1.0000 0.67327  0.27643  0.65754  Biso   1.000  O
  Zn59     1.0000 0.55435  0.28890  0.12705  Biso   1.000  Zn
  O339     1.0000 0.61113  0.32617  0.13570  Biso   1.000  O
  O340     1.0000 0.50763  0.25947  0.14033  Biso   1.000  O
  O341     1.0000 0.53693  0.32537  0.11753  Biso   1.000  O
  O342     1.0000 0.54933  0.24207  0.11662  Biso   1.000  O
  Zn60     1.0000 0.59423  0.36927  0.14327  Biso   1.000  Zn
  C1873    1.0000 0.51103  0.28567  0.14938  Biso   1.000  C
  C1874    1.0000 0.54763  0.36747  0.12100  Biso   1.000  C
  O343     1.0000 0.53753  0.32677  0.15201  Biso   1.000  O
  O344     1.0000 0.57363  0.39247  0.12985  Biso   1.000  O
  O345     1.0000 0.62443  0.41867  0.15519  Biso   1.000  O
  O346     1.0000 0.65403  0.37527  0.11278  Biso   1.000  O
  C1875    1.0000 0.47393  0.25807  0.15960  Biso   1.000  C
  C1876    1.0000 0.52863  0.39007  0.11205  Biso   1.000  C
  C1877    1.0000 0.47153  0.27977  0.17111  Biso   1.000  C
  C1878    1.0000 0.44183  0.21337  0.15845  Biso   1.000  C
  C1879    1.0000 0.50033  0.36727  0.10098  Biso   1.000  C
  C1880    1.0000 0.53213  0.43117  0.11540  Biso   1.000  C
  C1881    1.0000 0.43913  0.25607  0.17950  Biso   1.000  C
  H1249    1.0000 0.49333  0.31117  0.17267  Biso   1.000  H
  H1250    1.0000 0.44253  0.19777  0.15097  Biso   1.000  H
  C1882    1.0000 0.40773  0.18807  0.16727  Biso   1.000  C
  C1883    1.0000 0.48153  0.38797  0.09350  Biso   1.000  C
  H1251    1.0000 0.49453  0.33727  0.09877  Biso   1.000  H
  H1252    1.0000 0.54613  0.44547  0.12317  Biso   1.000  H
  C1884    1.0000 0.51453  0.45287  0.10704  Biso   1.000  C
  C1885    1.0000 0.40653  0.20897  0.17850  Biso   1.000  C
  H1253    1.0000 0.43763  0.27207  0.18677  Biso   1.000  H
  H1254    1.0000 0.38543  0.15677  0.16567  Biso   1.000  H
  C1886    1.0000 0.48983  0.43107  0.09645  Biso   1.000  C
  H1255    1.0000 0.46303  0.37217  0.08637  Biso   1.000  H
  H1256    1.0000 0.52023  0.48297  0.10897  Biso   1.000  H
  C1887    1.0000 0.37303  0.18147  0.18849  Biso   1.000  C
  C1888    1.0000 0.47453  0.45767  0.08831  Biso   1.000  C
  H1257    1.0000 0.34123  0.16867  0.18527  Biso   1.000  H
  H1258    1.0000 0.37743  0.15537  0.19097  Biso   1.000  H
  O347     1.0000 0.37943  0.20927  0.19893  Biso   1.000  O
  H1259    1.0000 0.45763  0.46907  0.09347  Biso   1.000  H
  H1260    1.0000 0.50163  0.48457  0.08447  Biso   1.000  H
  O348     1.0000 0.44583  0.42807  0.07880  Biso   1.000  O
  C1889    1.0000 0.34303  0.19407  0.20746  Biso   1.000  C
  C1890    1.0000 0.42563  0.44447  0.07119  Biso   1.000  C
  C1891    1.0000 0.30883  0.14767  0.20774  Biso   1.000  C
  C1892    1.0000 0.35153  0.22297  0.21845  Biso   1.000  C
  C1893    1.0000 0.43653  0.48947  0.07109  Biso   1.000  C
  C1894    1.0000 0.40213  0.41547  0.06032  Biso   1.000  C
  H1261    1.0000 0.30983  0.12607  0.20207  Biso   1.000  H
  C1895    1.0000 0.27303  0.13357  0.21651  Biso   1.000  C
  C1896    1.0000 0.31643  0.20797  0.22676  Biso   1.000  C
  C1897    1.0000 0.38953  0.26977  0.22087  Biso   1.000  C
  C1898    1.0000 0.41493  0.50367  0.06167  Biso   1.000  C
  H1262    1.0000 0.45763  0.51077  0.07707  Biso   1.000  H
  C1899    1.0000 0.38073  0.42817  0.05146  Biso   1.000  C
  C1900    1.0000 0.38993  0.36687  0.05852  Biso   1.000  C
  H1263    1.0000 0.24543  0.10467  0.21557  Biso   1.000  H
  C1901    1.0000 0.27893  0.16377  0.22698  Biso   1.000  C
  C1902    1.0000 0.32473  0.24607  0.23641  Biso   1.000  C
  H1264    1.0000 0.41513  0.27977  0.21457  Biso   1.000  H
  C1903    1.0000 0.40433  0.27147  0.23317  Biso   1.000  C
  C1904    1.0000 0.36683  0.29777  0.22017  Biso   1.000  C
  C1905    1.0000 0.38783  0.47097  0.05127  Biso   1.000  C
  H1265    1.0000 0.41793  0.53337  0.06207  Biso   1.000  H
  C1906    1.0000 0.35073  0.39527  0.04230  Biso   1.000  C
  H1266    1.0000 0.40463  0.35637  0.06497  Biso   1.000  H
  C1907    1.0000 0.34123  0.33847  0.05812  Biso   1.000  C
  C1908    1.0000 0.40823  0.36837  0.04476  Biso   1.000  C
  O349     1.0000 0.24673  0.15257  0.23573  Biso   1.000  O
  H1267    1.0000 0.29953  0.23637  0.24287  Biso   1.000  H
  C1909    1.0000 0.37153  0.25807  0.24217  Biso   1.000  C
  C1910    1.0000 0.33313  0.28657  0.22907  Biso   1.000  C
  C1911    1.0000 0.44873  0.28577  0.23727  Biso   1.000  C
  C1912    1.0000 0.37913  0.33577  0.21217  Biso   1.000  C
  O350     1.0000 0.37073  0.49097  0.04249  Biso   1.000  O
  H1268    1.0000 0.33453  0.40667  0.03667  Biso   1.000  H
  C1913    1.0000 0.31963  0.35287  0.04941  Biso   1.000  C
  C1914    1.0000 0.38563  0.38497  0.03529  Biso   1.000  C
  C1915    1.0000 0.31323  0.29877  0.06530  Biso   1.000  C
  C1916    1.0000 0.43813  0.35377  0.04103  Biso   1.000  C
  C1917    1.0000 0.21333  0.11117  0.23662  Biso   1.000  C
  C1918    1.0000 0.38403  0.25807  0.25617  Biso   1.000  C
  C1919    1.0000 0.30963  0.30587  0.23084  Biso   1.000  C
  C1920    1.0000 0.45563  0.28067  0.25267  Biso   1.000  C
  H1269    1.0000 0.47403  0.29797  0.23157  Biso   1.000  H
  C1921    1.0000 0.35513  0.35707  0.21307  Biso   1.000  C
  H1270    1.0000 0.40383  0.34567  0.20627  Biso   1.000  H
  C1922    1.0000 0.38883  0.53787  0.04110  Biso   1.000  C
  C1923    1.0000 0.27473  0.32977  0.04807  Biso   1.000  C
  C1924    1.0000 0.39653  0.38537  0.02289  Biso   1.000  C
  H1271    1.0000 0.32783  0.28767  0.07087  Biso   1.000  H
  C1925    1.0000 0.26663  0.27527  0.06477  Biso   1.000  C
  H1272    1.0000 0.45213  0.34337  0.04697  Biso   1.000  H
  C1926    1.0000 0.44723  0.35497  0.02803  Biso   1.000  C
  H1273    1.0000 0.22643  0.09067  0.23777  Biso   1.000  H
  H1274    1.0000 0.19653  0.10277  0.22847  Biso   1.000  H
  C1927    1.0000 0.17903  0.10137  0.24698  Biso   1.000  C
  H1275    1.0000 0.36083  0.24917  0.26247  Biso   1.000  H
  C1928    1.0000 0.42753  0.27047  0.25967  Biso   1.000  C
  H1276    1.0000 0.28553  0.29387  0.23697  Biso   1.000  H
  C1929    1.0000 0.31943  0.34647  0.22367  Biso   1.000  C
  H1277    1.0000 0.48503  0.28687  0.25557  Biso   1.000  H
  H1278    1.0000 0.36003  0.37987  0.20697  Biso   1.000  H
  H1279    1.0000 0.42293  0.55367  0.04067  Biso   1.000  H
  H1280    1.0000 0.38013  0.55047  0.04837  Biso   1.000  H
  C1930    1.0000 0.36993  0.54507  0.02937  Biso   1.000  C
  C1931    1.0000 0.24893  0.29037  0.05547  Biso   1.000  C
  H1281    1.0000 0.25993  0.33977  0.04227  Biso   1.000  H
  C1932    1.0000 0.42763  0.37417  0.01916  Biso   1.000  C
  H1282    1.0000 0.38153  0.39387  0.01667  Biso   1.000  H
  H1283    1.0000 0.24793  0.25067  0.07037  Biso   1.000  H
  H1284    1.0000 0.46603  0.34327  0.02497  Biso   1.000  H
  C1933    1.0000 0.19053  0.13417  0.25625  Biso   1.000  C
  C1934    1.0000 0.13543  0.06097  0.24814  Biso   1.000  C
  H1285    1.0000 0.43413  0.27037  0.26837  Biso   1.000  H
  H1286    1.0000 0.30533  0.36457  0.22527  Biso   1.000  H
  C1935    1.0000 0.38063  0.59097  0.02547  Biso   1.000  C
  C1936    1.0000 0.34813  0.51287  0.02087  Biso   1.000  C
  H1287    1.0000 0.21673  0.27267  0.05387  Biso   1.000  H
  H1288    1.0000 0.43733  0.37877  0.01057  Biso   1.000  H
  H1289    1.0000 0.21933  0.16187  0.25567  Biso   1.000  H
  C1937    1.0000 0.16193  0.12877  0.26658  Biso   1.000  C
  C1938    1.0000 0.10853  0.05647  0.25829  Biso   1.000  C
  H1290    1.0000 0.12503  0.03737  0.24187  Biso   1.000  H
  H1291    1.0000 0.39753  0.61737  0.03067  Biso   1.000  H
  C1939    1.0000 0.36433  0.59367  0.01339  Biso   1.000  C
  C1940    1.0000 0.32603  0.51777  0.00888  Biso   1.000  C
  H1292    1.0000 0.34593  0.48377  0.02227  Biso   1.000  H
  H1293    1.0000 0.17153  0.15157  0.27297  Biso   1.000  H
  C1941    1.0000 0.11803  0.08797  0.26708  Biso   1.000  C
  H1294    1.0000 0.08043  0.02807  0.25917  Biso   1.000  H
  H1295    1.0000 0.37353  0.62407  0.01067  Biso   1.000  H
  C1942    1.0000 0.33913  0.56217  0.00550  Biso   1.000  C
  H1296    1.0000 0.30463  0.49197  0.00407  Biso   1.000  H
  C1943    1.0000 0.08603  0.08287  0.27747  Biso   1.000  C
  C1944    1.0000 0.31793  0.56967  0.99477  Biso   1.000  C
  O351     1.0000 0.33993  0.60977  0.99088  Biso   1.000  O
  Zn61     1.0000 0.22102  0.59879  0.96038  Biso   1.000  Zn
  O352     1.0000 0.27780  0.61830  0.96903  Biso   1.000  O
  O353     1.0000 0.17430  0.58150  0.97366  Biso   1.000  O
  O354     1.0000 0.20360  0.54490  0.95086  Biso   1.000  O
  O355     1.0000 0.21600  0.64060  0.94995  Biso   1.000  O
  Zn62     1.0000 0.26090  0.55830  0.97660  Biso   1.000  Zn
  C1945    1.0000 0.17770  0.55870  0.98271  Biso   1.000  C
  C1946    1.0000 0.21430  0.51350  0.95433  Biso   1.000  C
  O356     1.0000 0.20420  0.54410  0.98534  Biso   1.000  O
  O357     1.0000 0.24030  0.51450  0.96318  Biso   1.000  O
  O358     1.0000 0.29110  0.53910  0.98852  Biso   1.000  O
  O359     1.0000 0.32070  0.61210  0.94611  Biso   1.000  O
  C1947    1.0000 0.14060  0.54920  0.99293  Biso   1.000  C
  C1948    1.0000 0.19530  0.47190  0.94538  Biso   1.000  C
  C1949    1.0000 0.13820  0.52510  0.00444  Biso   1.000  C
  C1950    1.0000 0.10850  0.56180  0.99178  Biso   1.000  C
  C1951    1.0000 0.16700  0.46640  0.93431  Biso   1.000  C
  C1952    1.0000 0.19880  0.43430  0.94873  Biso   1.000  C
  C1953    1.0000 0.10580  0.51640  0.01283  Biso   1.000  C
  H1297    1.0000 0.16000  0.51550  0.00600  Biso   1.000  H
  H1298    1.0000 0.10920  0.57810  0.98430  Biso   1.000  H
  C1954    1.0000 0.07440  0.55300  0.00060  Biso   1.000  C
  C1955    1.0000 0.14820  0.42690  0.92683  Biso   1.000  C
  H1299    1.0000 0.16120  0.49060  0.93210  Biso   1.000  H
  H1300    1.0000 0.21280  0.43400  0.95650  Biso   1.000  H
  C1956    1.0000 0.18120  0.39500  0.94037  Biso   1.000  C
  C1957    1.0000 0.07320  0.53090  0.01183  Biso   1.000  C
  H1301    1.0000 0.10430  0.49890  0.02010  Biso   1.000  H
  H1302    1.0000 0.05210  0.56200  0.99900  Biso   1.000  H
  C1958    1.0000 0.15650  0.39210  0.92978  Biso   1.000  C
  H1303    1.0000 0.12970  0.42420  0.91970  Biso   1.000  H
  H1304    1.0000 0.18690  0.37060  0.94230  Biso   1.000  H
  C1959    1.0000 0.03970  0.52490  0.02182  Biso   1.000  C
  C1960    1.0000 0.14120  0.35020  0.92164  Biso   1.000  C
  H1305    1.0000 0.00790  0.50590  0.01860  Biso   1.000  H
  H1306    1.0000 0.04410  0.55540  0.02430  Biso   1.000  H
  O360     1.0000 0.04610  0.50350  0.03226  Biso   1.000  O
  H1307    1.0000 0.12430  0.32190  0.92680  Biso   1.000  H
  H1308    1.0000 0.16830  0.35040  0.91780  Biso   1.000  H
  O361     1.0000 0.11250  0.35110  0.91213  Biso   1.000  O
  C1961    1.0000 0.00970  0.48230  0.04079  Biso   1.000  C
  C1962    1.0000 0.09230  0.31450  0.90452  Biso   1.000  C
  C1963    1.0000 0.97550  0.49450  0.04107  Biso   1.000  C
  C1964    1.0000 0.01820  0.46190  0.05178  Biso   1.000  C
  C1965    1.0000 0.10320  0.28040  0.90442  Biso   1.000  C
  C1966    1.0000 0.06880  0.32000  0.89365  Biso   1.000  C
  H1309    1.0000 0.97650  0.51710  0.03540  Biso   1.000  H
  C1967    1.0000 0.93970  0.47280  0.04984  Biso   1.000  C
  C1968    1.0000 0.98310  0.44180  0.06009  Biso   1.000  C
  C1969    1.0000 0.05620  0.45310  0.05420  Biso   1.000  C
  C1970    1.0000 0.08160  0.24460  0.89500  Biso   1.000  C
  H1310    1.0000 0.12430  0.28020  0.91040  Biso   1.000  H
  C1971    1.0000 0.04740  0.28590  0.88479  Biso   1.000  C
  C1972    1.0000 0.05660  0.35640  0.89185  Biso   1.000  C
  H1311    1.0000 0.91210  0.47410  0.04890  Biso   1.000  H
  C1973    1.0000 0.94560  0.44850  0.06031  Biso   1.000  C
  C1974    1.0000 0.99140  0.41200  0.06974  Biso   1.000  C
  H1312    1.0000 0.08180  0.46870  0.04790  Biso   1.000  H
  C1975    1.0000 0.07100  0.46620  0.06650  Biso   1.000  C
  C1976    1.0000 0.03350  0.40240  0.05350  Biso   1.000  C
  C1977    1.0000 0.05450  0.25020  0.88460  Biso   1.000  C
  H1313    1.0000 0.08460  0.21790  0.89540  Biso   1.000  H
  C1978    1.0000 0.01740  0.28880  0.87563  Biso   1.000  C
  H1314    1.0000 0.07130  0.38160  0.89830  Biso   1.000  H
  C1979    1.0000 0.00790  0.33610  0.89145  Biso   1.000  C
  C1980    1.0000 0.07490  0.37320  0.87809  Biso   1.000  C
  O362     1.0000 0.91340  0.42750  0.06906  Biso   1.000  O
  H1315    1.0000 0.96620  0.39650  0.07620  Biso   1.000  H
  C1981    1.0000 0.03820  0.44680  0.07550  Biso   1.000  C
  C1982    1.0000 0.99980  0.37990  0.06240  Biso   1.000  C
  C1983    1.0000 0.11540  0.49630  0.07060  Biso   1.000  C
  C1984    1.0000 0.04580  0.37670  0.04550  Biso   1.000  C
  O363     1.0000 0.03740  0.21310  0.87582  Biso   1.000  O
  H1316    1.0000 0.00120  0.26120  0.87000  Biso   1.000  H
  C1985    1.0000 0.98630  0.30010  0.88274  Biso   1.000  C
  C1986    1.0000 0.05230  0.33400  0.86862  Biso   1.000  C
  C1987    1.0000 0.97990  0.34780  0.89863  Biso   1.000  C
  C1988    1.0000 0.10480  0.41770  0.87436  Biso   1.000  C
  C1989    1.0000 0.88000  0.43550  0.06995  Biso   1.000  C
  C1990    1.0000 0.05070  0.45930  0.08950  Biso   1.000  C
  C1991    1.0000 0.97630  0.33710  0.06417  Biso   1.000  C
  C1992    1.0000 0.12230  0.50830  0.08600  Biso   1.000  C
  H1317    1.0000 0.14070  0.50940  0.06490  Biso   1.000  H
  C1993    1.0000 0.02180  0.33140  0.04640  Biso   1.000  C
  H1318    1.0000 0.07050  0.39150  0.03960  Biso   1.000  H
  C1994    1.0000 0.05550  0.18430  0.87443  Biso   1.000  C
  C1995    1.0000 0.94140  0.27830  0.88140  Biso   1.000  C
  C1996    1.0000 0.06320  0.34450  0.85622  Biso   1.000  C
  H1319    1.0000 0.99450  0.37350  0.90420  Biso   1.000  H
  C1997    1.0000 0.93330  0.32470  0.89810  Biso   1.000  C
  H1320    1.0000 0.11880  0.44210  0.88030  Biso   1.000  H
  C1998    1.0000 0.11390  0.42560  0.86136  Biso   1.000  C
  H1321    1.0000 0.89310  0.46910  0.07110  Biso   1.000  H
  H1322    1.0000 0.86320  0.42710  0.06180  Biso   1.000  H
  C1999    1.0000 0.84570  0.41100  0.08031  Biso   1.000  C
  H1323    1.0000 0.02750  0.44500  0.09580  Biso   1.000  H
  C2000    1.0000 0.09420  0.49040  0.09300  Biso   1.000  C
  H1324    1.0000 0.95220  0.32500  0.07030  Biso   1.000  H
  C2001    1.0000 0.98610  0.30630  0.05700  Biso   1.000  C
  H1325    1.0000 0.15170  0.53150  0.08890  Biso   1.000  H
  H1326    1.0000 0.02670  0.31350  0.04030  Biso   1.000  H
  H1327    1.0000 0.08960  0.20260  0.87400  Biso   1.000  H
  H1328    1.0000 0.04680  0.16300  0.88170  Biso   1.000  H
  C2002    1.0000 0.03660  0.15820  0.86270  Biso   1.000  C
  C2003    1.0000 0.91560  0.29190  0.88880  Biso   1.000  C
  H1329    1.0000 0.92660  0.25350  0.87560  Biso   1.000  H
  C2004    1.0000 0.09430  0.38680  0.85249  Biso   1.000  C
  H1330    1.0000 0.04820  0.32100  0.85000  Biso   1.000  H
  H1331    1.0000 0.91460  0.33060  0.90370  Biso   1.000  H
  H1332    1.0000 0.13270  0.45610  0.85830  Biso   1.000  H
  C2005    1.0000 0.85720  0.38970  0.08958  Biso   1.000  C
  C2006    1.0000 0.80210  0.40780  0.08147  Biso   1.000  C
  H1333    1.0000 0.10080  0.49710  0.10170  Biso   1.000  H
  H1334    1.0000 0.97200  0.27410  0.05860  Biso   1.000  H
  C2007    1.0000 0.04730  0.12300  0.85880  Biso   1.000  C
  C2008    1.0000 0.01480  0.16860  0.85420  Biso   1.000  C
  H1335    1.0000 0.88340  0.27740  0.88720  Biso   1.000  H
  H1336    1.0000 0.10400  0.39190  0.84390  Biso   1.000  H
  H1337    1.0000 0.88600  0.39080  0.08900  Biso   1.000  H
  C2009    1.0000 0.82860  0.36650  0.09991  Biso   1.000  C
  C2010    1.0000 0.77520  0.38540  0.09162  Biso   1.000  C
  H1338    1.0000 0.79170  0.42100  0.07520  Biso   1.000  H
  H1339    1.0000 0.06420  0.11350  0.86400  Biso   1.000  H
  C2011    1.0000 0.03100  0.10400  0.84672  Biso   1.000  C
  C2012    1.0000 0.99270  0.14160  0.84221  Biso   1.000  C
  H1340    1.0000 0.01260  0.19550  0.85560  Biso   1.000  H
  H1341    1.0000 0.83820  0.35330  0.10630  Biso   1.000  H
  C2013    1.0000 0.78470  0.36340  0.10041  Biso   1.000  C
  H1342    1.0000 0.74710  0.38570  0.09250  Biso   1.000  H
  H1343    1.0000 0.04020  0.08280  0.84400  Biso   1.000  H
  C2014    1.0000 0.00580  0.11030  0.83883  Biso   1.000  C
  H1344    1.0000 0.97130  0.14600  0.83740  Biso   1.000  H
  C2015    1.0000 0.75270  0.33650  0.11080  Biso   1.000  C
  C2016    1.0000 0.98460  0.08160  0.82810  Biso   1.000  C
  O364     1.0000 0.00660  0.06350  0.82421  Biso   1.000  O
  Zn63     1.0000 0.88769  0.93212  0.29371  Biso   1.000  Zn
  O365     1.0000 0.94447  0.95163  0.30236  Biso   1.000  O
  O366     1.0000 0.84097  0.91483  0.30699  Biso   1.000  O
  O367     1.0000 0.87027  0.87823  0.28419  Biso   1.000  O
  O368     1.0000 0.88267  0.97393  0.28328  Biso   1.000  O
  Zn64     1.0000 0.92757  0.89163  0.30993  Biso   1.000  Zn
  C2017    1.0000 0.84437  0.89203  0.31604  Biso   1.000  C
  C2018    1.0000 0.88097  0.84683  0.28766  Biso   1.000  C
  O369     1.0000 0.87087  0.87743  0.31867  Biso   1.000  O
  O370     1.0000 0.90697  0.84783  0.29651  Biso   1.000  O
  O371     1.0000 0.95777  0.87243  0.32185  Biso   1.000  O
  O372     1.0000 0.98737  0.94543  0.27944  Biso   1.000  O
  C2019    1.0000 0.80727  0.88253  0.32626  Biso   1.000  C
  C2020    1.0000 0.86197  0.80523  0.27871  Biso   1.000  C
  C2021    1.0000 0.80487  0.85843  0.33777  Biso   1.000  C
  C2022    1.0000 0.77517  0.89513  0.32511  Biso   1.000  C
  C2023    1.0000 0.83367  0.79973  0.26764  Biso   1.000  C
  C2024    1.0000 0.86547  0.76763  0.28206  Biso   1.000  C
  C2025    1.0000 0.77247  0.84973  0.34616  Biso   1.000  C
  H1345    1.0000 0.82667  0.84883  0.33933  Biso   1.000  H
  H1346    1.0000 0.77587  0.91143  0.31763  Biso   1.000  H
  C2026    1.0000 0.74107  0.88633  0.33393  Biso   1.000  C
  C2027    1.0000 0.81487  0.76023  0.26016  Biso   1.000  C
  H1347    1.0000 0.82787  0.82393  0.26543  Biso   1.000  H
  H1348    1.0000 0.87947  0.76733  0.28983  Biso   1.000  H
  C2028    1.0000 0.84787  0.72833  0.27370  Biso   1.000  C
  C2029    1.0000 0.73987  0.86423  0.34516  Biso   1.000  C
  H1349    1.0000 0.77097  0.83223  0.35343  Biso   1.000  H
  H1350    1.0000 0.71877  0.89533  0.33233  Biso   1.000  H
  C2030    1.0000 0.82317  0.72543  0.26311  Biso   1.000  C
  H1351    1.0000 0.79637  0.75753  0.25303  Biso   1.000  H
  H1352    1.0000 0.85357  0.70393  0.27563  Biso   1.000  H
  C2031    1.0000 0.70637  0.85823  0.35515  Biso   1.000  C
  C2032    1.0000 0.80787  0.68353  0.25497  Biso   1.000  C
  H1353    1.0000 0.67457  0.83923  0.35193  Biso   1.000  H
  H1354    1.0000 0.71077  0.88873  0.35763  Biso   1.000  H
  O373     1.0000 0.71277  0.83683  0.36559  Biso   1.000  O
  H1355    1.0000 0.79097  0.65523  0.26013  Biso   1.000  H
  H1356    1.0000 0.83497  0.68373  0.25113  Biso   1.000  H
  O374     1.0000 0.77917  0.68443  0.24546  Biso   1.000  O
  C2033    1.0000 0.67637  0.81563  0.37412  Biso   1.000  C
  C2034    1.0000 0.75897  0.64783  0.23785  Biso   1.000  C
  C2035    1.0000 0.64217  0.82783  0.37440  Biso   1.000  C
  C2036    1.0000 0.68487  0.79523  0.38511  Biso   1.000  C
  C2037    1.0000 0.76987  0.61373  0.23775  Biso   1.000  C
  C2038    1.0000 0.73547  0.65333  0.22698  Biso   1.000  C
  H1357    1.0000 0.64317  0.85043  0.36873  Biso   1.000  H
  C2039    1.0000 0.60637  0.80613  0.38317  Biso   1.000  C
  C2040    1.0000 0.64977  0.77513  0.39342  Biso   1.000  C
  C2041    1.0000 0.72287  0.78643  0.38753  Biso   1.000  C
  C2042    1.0000 0.74827  0.57793  0.22833  Biso   1.000  C
  H1358    1.0000 0.79097  0.61353  0.24373  Biso   1.000  H
  C2043    1.0000 0.71407  0.61923  0.21812  Biso   1.000  C
  C2044    1.0000 0.72327  0.68973  0.22518  Biso   1.000  C
  H1359    1.0000 0.57877  0.80743  0.38223  Biso   1.000  H
  C2045    1.0000 0.61227  0.78183  0.39364  Biso   1.000  C
  C2046    1.0000 0.65807  0.74533  0.40307  Biso   1.000  C
  H1360    1.0000 0.74847  0.80203  0.38123  Biso   1.000  H
  C2047    1.0000 0.73767  0.79953  0.39983  Biso   1.000  C
  C2048    1.0000 0.70017  0.73573  0.38683  Biso   1.000  C
  C2049    1.0000 0.72117  0.58353  0.21793  Biso   1.000  C
  H1361    1.0000 0.75127  0.55123  0.22873  Biso   1.000  H
  C2050    1.0000 0.68407  0.62213  0.20896  Biso   1.000  C
  H1362    1.0000 0.73797  0.71493  0.23163  Biso   1.000  H
  C2051    1.0000 0.67457  0.66943  0.22478  Biso   1.000  C
  C2052    1.0000 0.74157  0.70653  0.21142  Biso   1.000  C
  O375     1.0000 0.58007  0.76083  0.40239  Biso   1.000  O
  H1363    1.0000 0.63287  0.72983  0.40953  Biso   1.000  H
  C2053    1.0000 0.70487  0.78013  0.40883  Biso   1.000  C
  C2054    1.0000 0.66647  0.71323  0.39573  Biso   1.000  C
  C2055    1.0000 0.78207  0.82963  0.40393  Biso   1.000  C
  C2056    1.0000 0.71247  0.71003  0.37883  Biso   1.000  C
  O376     1.0000 0.70407  0.54643  0.20915  Biso   1.000  O
  H1364    1.0000 0.66787  0.59453  0.20333  Biso   1.000  H
  C2057    1.0000 0.65297  0.63343  0.21607  Biso   1.000  C
  C2058    1.0000 0.71897  0.66733  0.20195  Biso   1.000  C
  C2059    1.0000 0.64657  0.68113  0.23196  Biso   1.000  C
  C2060    1.0000 0.77147  0.75103  0.20769  Biso   1.000  C
  C2061    1.0000 0.54667  0.76883  0.40328  Biso   1.000  C
  C2062    1.0000 0.71737  0.79263  0.42283  Biso   1.000  C
  C2063    1.0000 0.64297  0.67043  0.39750  Biso   1.000  C
  C2064    1.0000 0.78897  0.84163  0.41933  Biso   1.000  C
  H1365    1.0000 0.80737  0.84273  0.39823  Biso   1.000  H
  C2065    1.0000 0.68847  0.66473  0.37973  Biso   1.000  C
  H1366    1.0000 0.73717  0.72483  0.37293  Biso   1.000  H
  C2066    1.0000 0.72217  0.51763  0.20776  Biso   1.000  C
  C2067    1.0000 0.60807  0.61163  0.21473  Biso   1.000  C
  C2068    1.0000 0.72987  0.67783  0.18955  Biso   1.000  C
  H1367    1.0000 0.66117  0.70683  0.23753  Biso   1.000  H
  C2069    1.0000 0.59997  0.65803  0.23143  Biso   1.000  C
  H1368    1.0000 0.78547  0.77543  0.21363  Biso   1.000  H
  C2070    1.0000 0.78057  0.75893  0.19469  Biso   1.000  C
  H1369    1.0000 0.55977  0.80243  0.40443  Biso   1.000  H
  H1370    1.0000 0.52987  0.76043  0.39513  Biso   1.000  H
  C2071    1.0000 0.51237  0.74433  0.41364  Biso   1.000  C
  H1371    1.0000 0.69417  0.77833  0.42913  Biso   1.000  H
  C2072    1.0000 0.76087  0.82373  0.42633  Biso   1.000  C
  H1372    1.0000 0.61887  0.65833  0.40363  Biso   1.000  H
  C2073    1.0000 0.65277  0.63963  0.39033  Biso   1.000  C
  H1373    1.0000 0.81837  0.86483  0.42223  Biso   1.000  H
  H1374    1.0000 0.69337  0.64683  0.37363  Biso   1.000  H
  H1375    1.0000 0.75627  0.53593  0.20733  Biso   1.000  H
  H1376    1.0000 0.71347  0.49633  0.21503  Biso   1.000  H
  C2074    1.0000 0.70327  0.49153  0.19603  Biso   1.000  C
  C2075    1.0000 0.58227  0.62523  0.22213  Biso   1.000  C
  H1377    1.0000 0.59327  0.58683  0.20893  Biso   1.000  H
  C2076    1.0000 0.76097  0.72013  0.18582  Biso   1.000  C
  H1378    1.0000 0.71487  0.65433  0.18333  Biso   1.000  H
  H1379    1.0000 0.58127  0.66393  0.23703  Biso   1.000  H
  H1380    1.0000 0.79937  0.78943  0.19163  Biso   1.000  H
  C2077    1.0000 0.52387  0.72303  0.42291  Biso   1.000  C
  C2078    1.0000 0.46877  0.74113  0.41480  Biso   1.000  C
  H1381    1.0000 0.76747  0.83043  0.43503  Biso   1.000  H
  H1382    1.0000 0.63867  0.60743  0.39193  Biso   1.000  H
  C2079    1.0000 0.71397  0.45633  0.19213  Biso   1.000  C
  C2080    1.0000 0.68147  0.50193  0.18753  Biso   1.000  C
  H1383    1.0000 0.55007  0.61073  0.22053  Biso   1.000  H
  H1384    1.0000 0.77067  0.72523  0.17723  Biso   1.000  H
  H1385    1.0000 0.55267  0.72413  0.42233  Biso   1.000  H
  C2081    1.0000 0.49527  0.69983  0.43324  Biso   1.000  C
  C2082    1.0000 0.44187  0.71873  0.42495  Biso   1.000  C
  H1386    1.0000 0.45837  0.75433  0.40853  Biso   1.000  H
  H1387    1.0000 0.73087  0.44683  0.19733  Biso   1.000  H
  C2083    1.0000 0.69767  0.43733  0.18005  Biso   1.000  C
  C2084    1.0000 0.65937  0.47493  0.17554  Biso   1.000  C
  H1388    1.0000 0.67927  0.52883  0.18893  Biso   1.000  H
  H1389    1.0000 0.50487  0.68663  0.43963  Biso   1.000  H
  C2085    1.0000 0.45137  0.69673  0.43374  Biso   1.000  C
  H1390    1.0000 0.41377  0.71903  0.42583  Biso   1.000  H
  H1391    1.0000 0.70687  0.41613  0.17733  Biso   1.000  H
  C2086    1.0000 0.67247  0.44363  0.17216  Biso   1.000  C
  H1392    1.0000 0.63797  0.47933  0.17073  Biso   1.000  H
  C2087    1.0000 0.41937  0.66983  0.44413  Biso   1.000  C
  C2088    1.0000 0.65127  0.41493  0.16143  Biso   1.000  C
  O377     1.0000 0.67327  0.39683  0.15754  Biso   1.000  O
  Zn65     1.0000 0.55435  0.26546  0.62705  Biso   1.000  Zn
  O378     1.0000 0.61113  0.28497  0.63570  Biso   1.000  O
  O379     1.0000 0.50763  0.24817  0.64033  Biso   1.000  O
  O380     1.0000 0.53693  0.21157  0.61753  Biso   1.000  O
  O381     1.0000 0.54933  0.30727  0.61662  Biso   1.000  O
  Zn66     1.0000 0.59423  0.22497  0.64327  Biso   1.000  Zn
  C2089    1.0000 0.51103  0.22537  0.64938  Biso   1.000  C
  C2090    1.0000 0.54763  0.18017  0.62100  Biso   1.000  C
  O382     1.0000 0.53753  0.21077  0.65201  Biso   1.000  O
  O383     1.0000 0.57363  0.18117  0.62985  Biso   1.000  O
  O384     1.0000 0.62443  0.20577  0.65519  Biso   1.000  O
  O385     1.0000 0.65403  0.27877  0.61278  Biso   1.000  O
  C2091    1.0000 0.47393  0.21587  0.65960  Biso   1.000  C
  C2092    1.0000 0.52863  0.13857  0.61205  Biso   1.000  C
  C2093    1.0000 0.47153  0.19177  0.67111  Biso   1.000  C
  C2094    1.0000 0.44183  0.22847  0.65845  Biso   1.000  C
  C2095    1.0000 0.50033  0.13307  0.60098  Biso   1.000  C
  C2096    1.0000 0.53213  0.10097  0.61540  Biso   1.000  C
  C2097    1.0000 0.43913  0.18307  0.67950  Biso   1.000  C
  H1393    1.0000 0.49333  0.18217  0.67267  Biso   1.000  H
  H1394    1.0000 0.44253  0.24477  0.65097  Biso   1.000  H
  C2098    1.0000 0.40773  0.21967  0.66727  Biso   1.000  C
  C2099    1.0000 0.48153  0.09357  0.59350  Biso   1.000  C
  H1395    1.0000 0.49453  0.15727  0.59877  Biso   1.000  H
  H1396    1.0000 0.54613  0.10067  0.62317  Biso   1.000  H
  C2100    1.0000 0.51453  0.06167  0.60704  Biso   1.000  C
  C2101    1.0000 0.40653  0.19757  0.67850  Biso   1.000  C
  H1397    1.0000 0.43763  0.16557  0.68677  Biso   1.000  H
  H1398    1.0000 0.38543  0.22867  0.66567  Biso   1.000  H
  C2102    1.0000 0.48983  0.05877  0.59645  Biso   1.000  C
  H1399    1.0000 0.46303  0.09087  0.58637  Biso   1.000  H
  H1400    1.0000 0.52023  0.03727  0.60897  Biso   1.000  H
  C2103    1.0000 0.37303  0.19157  0.68849  Biso   1.000  C
  C2104    1.0000 0.47453  0.01687  0.58831  Biso   1.000  C
  H1401    1.0000 0.34123  0.17257  0.68527  Biso   1.000  H
  H1402    1.0000 0.37743  0.22207  0.69097  Biso   1.000  H
  O386     1.0000 0.37943  0.17017  0.69893  Biso   1.000  O
  H1403    1.0000 0.45763  0.98857  0.59347  Biso   1.000  H
  H1404    1.0000 0.50163  0.01707  0.58447  Biso   1.000  H
  O387     1.0000 0.44583  0.01777  0.57880  Biso   1.000  O
  C2105    1.0000 0.34303  0.14897  0.70746  Biso   1.000  C
  C2106    1.0000 0.42563  0.98117  0.57119  Biso   1.000  C
  C2107    1.0000 0.30883  0.16117  0.70774  Biso   1.000  C
  C2108    1.0000 0.35153  0.12857  0.71845  Biso   1.000  C
  C2109    1.0000 0.43653  0.94707  0.57109  Biso   1.000  C
  C2110    1.0000 0.40213  0.98667  0.56032  Biso   1.000  C
  H1405    1.0000 0.30983  0.18377  0.70207  Biso   1.000  H
  C2111    1.0000 0.27303  0.13947  0.71651  Biso   1.000  C
  C2112    1.0000 0.31643  0.10847  0.72676  Biso   1.000  C
  C2113    1.0000 0.38953  0.11977  0.72087  Biso   1.000  C
  C2114    1.0000 0.41493  0.91127  0.56167  Biso   1.000  C
  H1406    1.0000 0.45763  0.94687  0.57707  Biso   1.000  H
  C2115    1.0000 0.38073  0.95257  0.55146  Biso   1.000  C
  C2116    1.0000 0.38993  0.02307  0.55852  Biso   1.000  C
  H1407    1.0000 0.24543  0.14077  0.71557  Biso   1.000  H
  C2117    1.0000 0.27893  0.11517  0.72698  Biso   1.000  C
  C2118    1.0000 0.32473  0.07867  0.73641  Biso   1.000  C
  H1408    1.0000 0.41513  0.13537  0.71457  Biso   1.000  H
  C2119    1.0000 0.40433  0.13287  0.73317  Biso   1.000  C
  C2120    1.0000 0.36683  0.06907  0.72017  Biso   1.000  C
  C2121    1.0000 0.38783  0.91687  0.55127  Biso   1.000  C
  H1409    1.0000 0.41793  0.88457  0.56207  Biso   1.000  H
  C2122    1.0000 0.35073  0.95547  0.54230  Biso   1.000  C
  H1410    1.0000 0.40463  0.04827  0.56497  Biso   1.000  H
  C2123    1.0000 0.34123  0.00277  0.55812  Biso   1.000  C
  C2124    1.0000 0.40823  0.03987  0.54476  Biso   1.000  C
  O388     1.0000 0.24673  0.09417  0.73573  Biso   1.000  O
  H1411    1.0000 0.29953  0.06317  0.74287  Biso   1.000  H
  C2125    1.0000 0.37153  0.11347  0.74217  Biso   1.000  C
  C2126    1.0000 0.33313  0.04657  0.72907  Biso   1.000  C
  C2127    1.0000 0.44873  0.16297  0.73727  Biso   1.000  C
  C2128    1.0000 0.37913  0.04337  0.71217  Biso   1.000  C
  O389     1.0000 0.37073  0.87977  0.54249  Biso   1.000  O
  H1412    1.0000 0.33453  0.92787  0.53667  Biso   1.000  H
  C2129    1.0000 0.31963  0.96677  0.54941  Biso   1.000  C
  C2130    1.0000 0.38563  0.00067  0.53529  Biso   1.000  C
  C2131    1.0000 0.31323  0.01447  0.56530  Biso   1.000  C
  C2132    1.0000 0.43813  0.08437  0.54103  Biso   1.000  C
  C2133    1.0000 0.21333  0.10217  0.73662  Biso   1.000  C
  C2134    1.0000 0.38403  0.12597  0.75617  Biso   1.000  C
  C2135    1.0000 0.30963  0.00377  0.73084  Biso   1.000  C
  C2136    1.0000 0.45563  0.17497  0.75267  Biso   1.000  C
  H1413    1.0000 0.47403  0.17607  0.73157  Biso   1.000  H
  C2137    1.0000 0.35513  0.99807  0.71307  Biso   1.000  C
  H1414    1.0000 0.40383  0.05817  0.70627  Biso   1.000  H
  C2138    1.0000 0.38883  0.85097  0.54110  Biso   1.000  C
  C2139    1.0000 0.27473  0.94497  0.54807  Biso   1.000  C
  C2140    1.0000 0.39653  0.01117  0.52289  Biso   1.000  C
  H1415    1.0000 0.32783  0.04017  0.57087  Biso   1.000  H
  C2141    1.0000 0.26663  0.99137  0.56477  Biso   1.000  C
  H1416    1.0000 0.45213  0.10877  0.54697  Biso   1.000  H
  C2142    1.0000 0.44723  0.09227  0.52803  Biso   1.000  C
  H1417    1.0000 0.22643  0.13577  0.73777  Biso   1.000  H
  H1418    1.0000 0.19653  0.09377  0.72847  Biso   1.000  H
  C2143    1.0000 0.17903  0.07767  0.74698  Biso   1.000  C
  H1419    1.0000 0.36083  0.11167  0.76247  Biso   1.000  H
  C2144    1.0000 0.42753  0.15707  0.75967  Biso   1.000  C
  H1420    1.0000 0.28553  0.99167  0.73697  Biso   1.000  H
  C2145    1.0000 0.31943  0.97297  0.72367  Biso   1.000  C
  H1421    1.0000 0.48503  0.19817  0.75557  Biso   1.000  H
  H1422    1.0000 0.36003  0.98017  0.70697  Biso   1.000  H
  H1423    1.0000 0.42293  0.86927  0.54067  Biso   1.000  H
  H1424    1.0000 0.38013  0.82967  0.54837  Biso   1.000  H
  C2146    1.0000 0.36993  0.82487  0.52937  Biso   1.000  C
  C2147    1.0000 0.24893  0.95857  0.55547  Biso   1.000  C
  H1425    1.0000 0.25993  0.92017  0.54227  Biso   1.000  H
  C2148    1.0000 0.42763  0.05347  0.51916  Biso   1.000  C
  H1426    1.0000 0.38153  0.98767  0.51667  Biso   1.000  H
  H1427    1.0000 0.24793  0.99727  0.57037  Biso   1.000  H
  H1428    1.0000 0.46603  0.12277  0.52497  Biso   1.000  H
  C2149    1.0000 0.19053  0.05637  0.75625  Biso   1.000  C
  C2150    1.0000 0.13543  0.07447  0.74814  Biso   1.000  C
  H1429    1.0000 0.43413  0.16377  0.76837  Biso   1.000  H
  H1430    1.0000 0.30533  0.94077  0.72527  Biso   1.000  H
  C2151    1.0000 0.38063  0.78967  0.52547  Biso   1.000  C
  C2152    1.0000 0.34813  0.83527  0.52087  Biso   1.000  C
  H1431    1.0000 0.21673  0.94407  0.55387  Biso   1.000  H
  H1432    1.0000 0.43733  0.05857  0.51057  Biso   1.000  H
  H1433    1.0000 0.21933  0.05747  0.75567  Biso   1.000  H
  C2153    1.0000 0.16193  0.03317  0.76658  Biso   1.000  C
  C2154    1.0000 0.10853  0.05207  0.75829  Biso   1.000  C
  H1434    1.0000 0.12503  0.08767  0.74187  Biso   1.000  H
  H1435    1.0000 0.39753  0.78017  0.53067  Biso   1.000  H
  C2155    1.0000 0.36433  0.77067  0.51339  Biso   1.000  C
  C2156    1.0000 0.32603  0.80827  0.50888  Biso   1.000  C
  H1436    1.0000 0.34593  0.86217  0.52227  Biso   1.000  H
  H1437    1.0000 0.17153  0.01997  0.77297  Biso   1.000  H
  C2157    1.0000 0.11803  0.03007  0.76708  Biso   1.000  C
  H1438    1.0000 0.08043  0.05237  0.75917  Biso   1.000  H
  H1439    1.0000 0.37353  0.74947  0.51067  Biso   1.000  H
  C2158    1.0000 0.33913  0.77697  0.50550  Biso   1.000  C
  H1440    1.0000 0.30463  0.81267  0.50407  Biso   1.000  H
  C2159    1.0000 0.08603  0.00317  0.77747  Biso   1.000  C
  C2160    1.0000 0.31793  0.74827  0.49477  Biso   1.000  C
  O390     1.0000 0.33993  0.73017  0.49088  Biso   1.000  O
  Zn67     1.0000 0.40121  0.62223  0.96038  Biso   1.000  Zn
  O391     1.0000 0.38170  0.65950  0.96903  Biso   1.000  O
  O392     1.0000 0.41850  0.59280  0.97366  Biso   1.000  O
  O393     1.0000 0.45510  0.65870  0.95086  Biso   1.000  O
  O394     1.0000 0.35940  0.57540  0.94995  Biso   1.000  O
  Zn68     1.0000 0.44170  0.70260  0.97660  Biso   1.000  Zn
  C2161    1.0000 0.44130  0.61900  0.98271  Biso   1.000  C
  C2162    1.0000 0.48650  0.70080  0.95433  Biso   1.000  C
  O395     1.0000 0.45590  0.66010  0.98534  Biso   1.000  O
  O396     1.0000 0.48550  0.72580  0.96318  Biso   1.000  O
  O397     1.0000 0.46090  0.75200  0.98852  Biso   1.000  O
  O398     1.0000 0.38790  0.70860  0.94611  Biso   1.000  O
  C2163    1.0000 0.45080  0.59140  0.99293  Biso   1.000  C
  C2164    1.0000 0.52810  0.72340  0.94538  Biso   1.000  C
  C2165    1.0000 0.47490  0.61310  0.00444  Biso   1.000  C
  C2166    1.0000 0.43820  0.54670  0.99178  Biso   1.000  C
  C2167    1.0000 0.53360  0.70060  0.93431  Biso   1.000  C
  C2168    1.0000 0.56570  0.76450  0.94873  Biso   1.000  C
  C2169    1.0000 0.48360  0.58940  0.01283  Biso   1.000  C
  H1441    1.0000 0.48450  0.64450  0.00600  Biso   1.000  H
  H1442    1.0000 0.42190  0.53110  0.98430  Biso   1.000  H
  C2170    1.0000 0.44700  0.52140  0.00060  Biso   1.000  C
  C2171    1.0000 0.57310  0.72130  0.92683  Biso   1.000  C
  H1443    1.0000 0.50940  0.67060  0.93210  Biso   1.000  H
  H1444    1.0000 0.56600  0.77880  0.95650  Biso   1.000  H
  C2172    1.0000 0.60500  0.78620  0.94037  Biso   1.000  C
  C2173    1.0000 0.46910  0.54230  0.01183  Biso   1.000  C
  H1445    1.0000 0.50110  0.60540  0.02010  Biso   1.000  H
  H1446    1.0000 0.43800  0.49010  0.99900  Biso   1.000  H
  C2174    1.0000 0.60790  0.76440  0.92978  Biso   1.000  C
  H1447    1.0000 0.57580  0.70550  0.91970  Biso   1.000  H
  H1448    1.0000 0.62940  0.81630  0.94230  Biso   1.000  H
  C2175    1.0000 0.47510  0.51480  0.02182  Biso   1.000  C
  C2176    1.0000 0.64980  0.79100  0.92164  Biso   1.000  C
  H1449    1.0000 0.49410  0.50200  0.01860  Biso   1.000  H
  H1450    1.0000 0.44460  0.48870  0.02430  Biso   1.000  H
  O399     1.0000 0.49650  0.54260  0.03226  Biso   1.000  O
  H1451    1.0000 0.67810  0.80240  0.92680  Biso   1.000  H
  H1452    1.0000 0.64960  0.81790  0.91780  Biso   1.000  H
  O400     1.0000 0.64890  0.76140  0.91213  Biso   1.000  O
  C2177    1.0000 0.51770  0.52740  0.04079  Biso   1.000  C
  C2178    1.0000 0.68550  0.77780  0.90452  Biso   1.000  C
  C2179    1.0000 0.50550  0.48100  0.04107  Biso   1.000  C
  C2180    1.0000 0.53810  0.55630  0.05178  Biso   1.000  C
  C2181    1.0000 0.71960  0.82280  0.90442  Biso   1.000  C
  C2182    1.0000 0.68000  0.74880  0.89365  Biso   1.000  C
  H1453    1.0000 0.48290  0.45940  0.03540  Biso   1.000  H
  C2183    1.0000 0.52720  0.46690  0.04984  Biso   1.000  C
  C2184    1.0000 0.55820  0.54130  0.06009  Biso   1.000  C
  C2185    1.0000 0.54690  0.60310  0.05420  Biso   1.000  C
  C2186    1.0000 0.75540  0.83700  0.89500  Biso   1.000  C
  H1454    1.0000 0.71980  0.84410  0.91040  Biso   1.000  H
  C2187    1.0000 0.71410  0.76150  0.88479  Biso   1.000  C
  C2188    1.0000 0.64360  0.70020  0.89185  Biso   1.000  C
  H1455    1.0000 0.52590  0.43800  0.04890  Biso   1.000  H
  C2189    1.0000 0.55150  0.49710  0.06031  Biso   1.000  C
  C2190    1.0000 0.58800  0.57940  0.06974  Biso   1.000  C
  H1456    1.0000 0.53130  0.61310  0.04790  Biso   1.000  H
  C2191    1.0000 0.53380  0.60480  0.06650  Biso   1.000  C
  C2192    1.0000 0.59760  0.63110  0.05350  Biso   1.000  C
  C2193    1.0000 0.74980  0.80430  0.88460  Biso   1.000  C
  H1457    1.0000 0.78210  0.86670  0.89540  Biso   1.000  H
  C2194    1.0000 0.71120  0.72860  0.87563  Biso   1.000  C
  H1458    1.0000 0.61840  0.68970  0.89830  Biso   1.000  H
  C2195    1.0000 0.66390  0.67180  0.89145  Biso   1.000  C
  C2196    1.0000 0.62680  0.70170  0.87809  Biso   1.000  C
  O401     1.0000 0.57250  0.48590  0.06906  Biso   1.000  O
  H1459    1.0000 0.60350  0.56970  0.07620  Biso   1.000  H
  C2197    1.0000 0.55320  0.59140  0.07550  Biso   1.000  C
  C2198    1.0000 0.62010  0.61990  0.06240  Biso   1.000  C
  C2199    1.0000 0.50370  0.61910  0.07060  Biso   1.000  C
  C2200    1.0000 0.62330  0.66910  0.04550  Biso   1.000  C
  O402     1.0000 0.78690  0.82430  0.87582  Biso   1.000  O
  H1460    1.0000 0.73880  0.74000  0.87000  Biso   1.000  H
  C2201    1.0000 0.69990  0.68620  0.88274  Biso   1.000  C
  C2202    1.0000 0.66600  0.71830  0.86862  Biso   1.000  C
  C2203    1.0000 0.65220  0.63210  0.89863  Biso   1.000  C
  C2204    1.0000 0.58230  0.68710  0.87436  Biso   1.000  C
  C2205    1.0000 0.56450  0.44450  0.06995  Biso   1.000  C
  C2206    1.0000 0.54070  0.59140  0.08950  Biso   1.000  C
  C2207    1.0000 0.66290  0.63920  0.06417  Biso   1.000  C
  C2208    1.0000 0.49170  0.61400  0.08600  Biso   1.000  C
  H1461    1.0000 0.49060  0.63130  0.06490  Biso   1.000  H
  C2209    1.0000 0.66860  0.69040  0.04640  Biso   1.000  C
  H1462    1.0000 0.60850  0.67900  0.03960  Biso   1.000  H
  C2210    1.0000 0.81570  0.87120  0.87443  Biso   1.000  C
  C2211    1.0000 0.72170  0.66310  0.88140  Biso   1.000  C
  C2212    1.0000 0.65550  0.71870  0.85622  Biso   1.000  C
  H1463    1.0000 0.62650  0.62100  0.90420  Biso   1.000  H
  C2213    1.0000 0.67530  0.60860  0.89810  Biso   1.000  C
  H1464    1.0000 0.55790  0.67670  0.88030  Biso   1.000  H
  C2214    1.0000 0.57440  0.68830  0.86136  Biso   1.000  C
  H1465    1.0000 0.53090  0.42400  0.07110  Biso   1.000  H
  H1466    1.0000 0.57290  0.43610  0.06180  Biso   1.000  H
  C2215    1.0000 0.58900  0.43470  0.08031  Biso   1.000  C
  H1467    1.0000 0.55500  0.58250  0.09580  Biso   1.000  H
  C2216    1.0000 0.50960  0.60380  0.09300  Biso   1.000  C
  H1468    1.0000 0.67500  0.62720  0.07030  Biso   1.000  H
  C2217    1.0000 0.69370  0.67980  0.05700  Biso   1.000  C
  H1469    1.0000 0.46850  0.62020  0.08890  Biso   1.000  H
  H1470    1.0000 0.68650  0.71320  0.04030  Biso   1.000  H
  H1471    1.0000 0.79740  0.88700  0.87400  Biso   1.000  H
  H1472    1.0000 0.83700  0.88380  0.88170  Biso   1.000  H
  C2218    1.0000 0.84180  0.87840  0.86270  Biso   1.000  C
  C2219    1.0000 0.70810  0.62370  0.88880  Biso   1.000  C
  H1473    1.0000 0.74650  0.67310  0.87560  Biso   1.000  H
  C2220    1.0000 0.61320  0.70750  0.85249  Biso   1.000  C
  H1474    1.0000 0.67900  0.72720  0.85000  Biso   1.000  H
  H1475    1.0000 0.66940  0.58400  0.90370  Biso   1.000  H
  H1476    1.0000 0.54390  0.67660  0.85830  Biso   1.000  H
  C2221    1.0000 0.61030  0.46750  0.08958  Biso   1.000  C
  C2222    1.0000 0.59220  0.39430  0.08147  Biso   1.000  C
  H1477    1.0000 0.50290  0.60370  0.10170  Biso   1.000  H
  H1478    1.0000 0.72590  0.69790  0.05860  Biso   1.000  H
  C2223    1.0000 0.87700  0.92430  0.85880  Biso   1.000  C
  C2224    1.0000 0.83140  0.84620  0.85420  Biso   1.000  C
  H1479    1.0000 0.72260  0.60600  0.88720  Biso   1.000  H
  H1480    1.0000 0.60810  0.71210  0.84390  Biso   1.000  H
  H1481    1.0000 0.60920  0.49520  0.08900  Biso   1.000  H
  C2225    1.0000 0.63350  0.46210  0.09991  Biso   1.000  C
  C2226    1.0000 0.61460  0.38980  0.09162  Biso   1.000  C
  H1482    1.0000 0.57900  0.37070  0.07520  Biso   1.000  H
  H1483    1.0000 0.88650  0.95070  0.86400  Biso   1.000  H
  C2227    1.0000 0.89600  0.92700  0.84672  Biso   1.000  C
  C2228    1.0000 0.85840  0.85110  0.84221  Biso   1.000  C
  H1484    1.0000 0.80450  0.81710  0.85560  Biso   1.000  H
  H1485    1.0000 0.64670  0.48490  0.10630  Biso   1.000  H
  C2229    1.0000 0.63660  0.42130  0.10041  Biso   1.000  C
  H1486    1.0000 0.61430  0.36140  0.09250  Biso   1.000  H
  H1487    1.0000 0.91720  0.95740  0.84400  Biso   1.000  H
  C2230    1.0000 0.88970  0.89550  0.83883  Biso   1.000  C
  H1488    1.0000 0.85400  0.82530  0.83740  Biso   1.000  H
  C2231    1.0000 0.66350  0.41620  0.11080  Biso   1.000  C
  C2232    1.0000 0.91840  0.90300  0.82810  Biso   1.000  C
  O403     1.0000 0.93650  0.94310  0.82421  Biso   1.000  O
  Zn69     1.0000 0.06788  0.95556  0.29371  Biso   1.000  Zn
  O404     1.0000 0.04837  0.99283  0.30236  Biso   1.000  O
  O405     1.0000 0.08517  0.92613  0.30699  Biso   1.000  O
  O406     1.0000 0.12177  0.99203  0.28419  Biso   1.000  O
  O407     1.0000 0.02607  0.90873  0.28328  Biso   1.000  O
  Zn70     1.0000 0.10837  0.03593  0.30993  Biso   1.000  Zn
  C2233    1.0000 0.10797  0.95233  0.31604  Biso   1.000  C
  C2234    1.0000 0.15317  0.03413  0.28766  Biso   1.000  C
  O408     1.0000 0.12257  0.99343  0.31867  Biso   1.000  O
  O409     1.0000 0.15217  0.05913  0.29651  Biso   1.000  O
  O410     1.0000 0.12757  0.08533  0.32185  Biso   1.000  O
  O411     1.0000 0.05457  0.04193  0.27944  Biso   1.000  O
  C2235    1.0000 0.11747  0.92473  0.32626  Biso   1.000  C
  C2236    1.0000 0.19477  0.05673  0.27871  Biso   1.000  C
  C2237    1.0000 0.14157  0.94643  0.33777  Biso   1.000  C
  C2238    1.0000 0.10487  0.88003  0.32511  Biso   1.000  C
  C2239    1.0000 0.20027  0.03393  0.26764  Biso   1.000  C
  C2240    1.0000 0.23237  0.09783  0.28206  Biso   1.000  C
  C2241    1.0000 0.15027  0.92273  0.34616  Biso   1.000  C
  H1489    1.0000 0.15117  0.97783  0.33933  Biso   1.000  H
  H1490    1.0000 0.08857  0.86443  0.31763  Biso   1.000  H
  C2242    1.0000 0.11367  0.85473  0.33393  Biso   1.000  C
  C2243    1.0000 0.23977  0.05463  0.26016  Biso   1.000  C
  H1491    1.0000 0.17607  0.00393  0.26543  Biso   1.000  H
  H1492    1.0000 0.23267  0.11213  0.28983  Biso   1.000  H
  C2244    1.0000 0.27167  0.11953  0.27370  Biso   1.000  C
  C2245    1.0000 0.13577  0.87563  0.34516  Biso   1.000  C
  H1493    1.0000 0.16777  0.93873  0.35343  Biso   1.000  H
  H1494    1.0000 0.10467  0.82343  0.33233  Biso   1.000  H
  C2246    1.0000 0.27457  0.09773  0.26311  Biso   1.000  C
  H1495    1.0000 0.24247  0.03883  0.25303  Biso   1.000  H
  H1496    1.0000 0.29607  0.14963  0.27563  Biso   1.000  H
  C2247    1.0000 0.14177  0.84813  0.35515  Biso   1.000  C
  C2248    1.0000 0.31647  0.12433  0.25497  Biso   1.000  C
  H1497    1.0000 0.16077  0.83533  0.35193  Biso   1.000  H
  H1498    1.0000 0.11127  0.82203  0.35763  Biso   1.000  H
  O412     1.0000 0.16317  0.87593  0.36559  Biso   1.000  O
  H1499    1.0000 0.34477  0.13573  0.26013  Biso   1.000  H
  H1500    1.0000 0.31627  0.15123  0.25113  Biso   1.000  H
  O413     1.0000 0.31557  0.09473  0.24546  Biso   1.000  O
  C2249    1.0000 0.18437  0.86073  0.37412  Biso   1.000  C
  C2250    1.0000 0.35217  0.11113  0.23785  Biso   1.000  C
  C2251    1.0000 0.17217  0.81433  0.37440  Biso   1.000  C
  C2252    1.0000 0.20477  0.88963  0.38511  Biso   1.000  C
  C2253    1.0000 0.38627  0.15613  0.23775  Biso   1.000  C
  C2254    1.0000 0.34667  0.08213  0.22698  Biso   1.000  C
  H1501    1.0000 0.14957  0.79273  0.36873  Biso   1.000  H
  C2255    1.0000 0.19387  0.80023  0.38317  Biso   1.000  C
  C2256    1.0000 0.22487  0.87463  0.39342  Biso   1.000  C
  C2257    1.0000 0.21357  0.93643  0.38753  Biso   1.000  C
  C2258    1.0000 0.42207  0.17033  0.22833  Biso   1.000  C
  H1502    1.0000 0.38647  0.17743  0.24373  Biso   1.000  H
  C2259    1.0000 0.38077  0.09483  0.21812  Biso   1.000  C
  C2260    1.0000 0.31027  0.03353  0.22518  Biso   1.000  C
  H1503    1.0000 0.19257  0.77133  0.38223  Biso   1.000  H
  C2261    1.0000 0.21817  0.83043  0.39364  Biso   1.000  C
  C2262    1.0000 0.25467  0.91273  0.40307  Biso   1.000  C
  H1504    1.0000 0.19797  0.94643  0.38123  Biso   1.000  H
  C2263    1.0000 0.20047  0.93813  0.39983  Biso   1.000  C
  C2264    1.0000 0.26427  0.96443  0.38683  Biso   1.000  C
  C2265    1.0000 0.41647  0.13763  0.21793  Biso   1.000  C
  H1505    1.0000 0.44877  0.20003  0.22873  Biso   1.000  H
  C2266    1.0000 0.37787  0.06193  0.20896  Biso   1.000  C
  H1506    1.0000 0.28507  0.02303  0.23163  Biso   1.000  H
  C2267    1.0000 0.33057  0.00513  0.22478  Biso   1.000  C
  C2268    1.0000 0.29347  0.03503  0.21142  Biso   1.000  C
  O414     1.0000 0.23917  0.81923  0.40239  Biso   1.000  O
  H1507    1.0000 0.27017  0.90303  0.40953  Biso   1.000  H
  C2269    1.0000 0.21987  0.92473  0.40883  Biso   1.000  C
  C2270    1.0000 0.28677  0.95323  0.39573  Biso   1.000  C
  C2271    1.0000 0.17037  0.95243  0.40393  Biso   1.000  C
  C2272    1.0000 0.28997  0.00243  0.37883  Biso   1.000  C
  O415     1.0000 0.45357  0.15763  0.20915  Biso   1.000  O
  H1508    1.0000 0.40547  0.07333  0.20333  Biso   1.000  H
  C2273    1.0000 0.36657  0.01953  0.21607  Biso   1.000  C
  C2274    1.0000 0.33267  0.05163  0.20195  Biso   1.000  C
  C2275    1.0000 0.31887  0.96543  0.23196  Biso   1.000  C
  C2276    1.0000 0.24897  0.02043  0.20769  Biso   1.000  C
  C2277    1.0000 0.23117  0.77783  0.40328  Biso   1.000  C
  C2278    1.0000 0.20737  0.92473  0.42283  Biso   1.000  C
  C2279    1.0000 0.32957  0.97253  0.39750  Biso   1.000  C
  C2280    1.0000 0.15837  0.94733  0.41933  Biso   1.000  C
  H1509    1.0000 0.15727  0.96463  0.39823  Biso   1.000  H
  C2281    1.0000 0.33527  0.02373  0.37973  Biso   1.000  C
  H1510    1.0000 0.27517  0.01233  0.37293  Biso   1.000  H
  C2282    1.0000 0.48237  0.20453  0.20776  Biso   1.000  C
  C2283    1.0000 0.38837  0.99643  0.21473  Biso   1.000  C
  C2284    1.0000 0.32217  0.05203  0.18955  Biso   1.000  C
  H1511    1.0000 0.29317  0.95433  0.23753  Biso   1.000  H
  C2285    1.0000 0.34197  0.94193  0.23143  Biso   1.000  C
  H1512    1.0000 0.22457  0.01003  0.21363  Biso   1.000  H
  C2286    1.0000 0.24107  0.02163  0.19469  Biso   1.000  C
  H1513    1.0000 0.19757  0.75733  0.40443  Biso   1.000  H
  H1514    1.0000 0.23957  0.76943  0.39513  Biso   1.000  H
  C2287    1.0000 0.25567  0.76803  0.41364  Biso   1.000  C
  H1515    1.0000 0.22167  0.91583  0.42913  Biso   1.000  H
  C2288    1.0000 0.17627  0.93713  0.42633  Biso   1.000  C
  H1516    1.0000 0.34167  0.96053  0.40363  Biso   1.000  H
  C2289    1.0000 0.36037  0.01313  0.39033  Biso   1.000  C
  H1517    1.0000 0.13517  0.95353  0.42223  Biso   1.000  H
  H1518    1.0000 0.35317  0.04653  0.37363  Biso   1.000  H
  H1519    1.0000 0.46407  0.22033  0.20733  Biso   1.000  H
  H1520    1.0000 0.50367  0.21713  0.21503  Biso   1.000  H
  C2290    1.0000 0.50847  0.21173  0.19603  Biso   1.000  C
  C2291    1.0000 0.37477  0.95703  0.22213  Biso   1.000  C
  H1521    1.0000 0.41317  0.00643  0.20893  Biso   1.000  H
  C2292    1.0000 0.27987  0.04083  0.18582  Biso   1.000  C
  H1522    1.0000 0.34567  0.06053  0.18333  Biso   1.000  H
  H1523    1.0000 0.33607  0.91733  0.23703  Biso   1.000  H
  H1524    1.0000 0.21057  0.00993  0.19163  Biso   1.000  H
  C2293    1.0000 0.27697  0.80083  0.42291  Biso   1.000  C
  C2294    1.0000 0.25887  0.72763  0.41480  Biso   1.000  C
  H1525    1.0000 0.16957  0.93703  0.43503  Biso   1.000  H
  H1526    1.0000 0.39257  0.03123  0.39193  Biso   1.000  H
  C2295    1.0000 0.54367  0.25763  0.19213  Biso   1.000  C
  C2296    1.0000 0.49807  0.17953  0.18753  Biso   1.000  C
  H1527    1.0000 0.38927  0.93933  0.22053  Biso   1.000  H
  H1528    1.0000 0.27477  0.04543  0.17723  Biso   1.000  H
  H1529    1.0000 0.27587  0.82853  0.42233  Biso   1.000  H
  C2297    1.0000 0.30017  0.79543  0.43324  Biso   1.000  C
  C2298    1.0000 0.28127  0.72313  0.42495  Biso   1.000  C
  H1530    1.0000 0.24567  0.70403  0.40853  Biso   1.000  H
  H1531    1.0000 0.55317  0.28403  0.19733  Biso   1.000  H
  C2299    1.0000 0.56267  0.26033  0.18005  Biso   1.000  C
  C2300    1.0000 0.52507  0.18443  0.17554  Biso   1.000  C
  H1532    1.0000 0.47117  0.15043  0.18893  Biso   1.000  H
  H1533    1.0000 0.31337  0.81823  0.43963  Biso   1.000  H
  C2301    1.0000 0.30327  0.75463  0.43374  Biso   1.000  C
  H1534    1.0000 0.28097  0.69473  0.42583  Biso   1.000  H
  H1535    1.0000 0.58387  0.29073  0.17733  Biso   1.000  H
  C2302    1.0000 0.55637  0.22883  0.17216  Biso   1.000  C
  H1536    1.0000 0.52067  0.15863  0.17073  Biso   1.000  H
  C2303    1.0000 0.33017  0.74953  0.44413  Biso   1.000  C
  C2304    1.0000 0.58507  0.23633  0.16143  Biso   1.000  C
  O416     1.0000 0.60317  0.27643  0.15754  Biso   1.000  O
  Zn71     1.0000 0.73454  0.28890  0.62705  Biso   1.000  Zn
  O417     1.0000 0.71503  0.32617  0.63570  Biso   1.000  O
  O418     1.0000 0.75183  0.25947  0.64033  Biso   1.000  O
  O419     1.0000 0.78843  0.32537  0.61753  Biso   1.000  O
  O420     1.0000 0.69273  0.24207  0.61662  Biso   1.000  O
  Zn72     1.0000 0.77503  0.36927  0.64327  Biso   1.000  Zn
  C2305    1.0000 0.77463  0.28567  0.64938  Biso   1.000  C
  C2306    1.0000 0.81983  0.36747  0.62100  Biso   1.000  C
  O421     1.0000 0.78923  0.32677  0.65201  Biso   1.000  O
  O422     1.0000 0.81883  0.39247  0.62985  Biso   1.000  O
  O423     1.0000 0.79423  0.41867  0.65519  Biso   1.000  O
  O424     1.0000 0.72123  0.37527  0.61278  Biso   1.000  O
  C2307    1.0000 0.78413  0.25807  0.65960  Biso   1.000  C
  C2308    1.0000 0.86143  0.39007  0.61205  Biso   1.000  C
  C2309    1.0000 0.80823  0.27977  0.67111  Biso   1.000  C
  C2310    1.0000 0.77153  0.21337  0.65845  Biso   1.000  C
  C2311    1.0000 0.86693  0.36727  0.60098  Biso   1.000  C
  C2312    1.0000 0.89903  0.43117  0.61540  Biso   1.000  C
  C2313    1.0000 0.81693  0.25607  0.67950  Biso   1.000  C
  H1537    1.0000 0.81783  0.31117  0.67267  Biso   1.000  H
  H1538    1.0000 0.75523  0.19777  0.65097  Biso   1.000  H
  C2314    1.0000 0.78033  0.18807  0.66727  Biso   1.000  C
  C2315    1.0000 0.90643  0.38797  0.59350  Biso   1.000  C
  H1539    1.0000 0.84273  0.33727  0.59877  Biso   1.000  H
  H1540    1.0000 0.89933  0.44547  0.62317  Biso   1.000  H
  C2316    1.0000 0.93833  0.45287  0.60704  Biso   1.000  C
  C2317    1.0000 0.80243  0.20897  0.67850  Biso   1.000  C
  H1541    1.0000 0.83443  0.27207  0.68677  Biso   1.000  H
  H1542    1.0000 0.77133  0.15677  0.66567  Biso   1.000  H
  C2318    1.0000 0.94123  0.43107  0.59645  Biso   1.000  C
  H1543    1.0000 0.90913  0.37217  0.58637  Biso   1.000  H
  H1544    1.0000 0.96273  0.48297  0.60897  Biso   1.000  H
  C2319    1.0000 0.80843  0.18147  0.68849  Biso   1.000  C
  C2320    1.0000 0.98313  0.45767  0.58831  Biso   1.000  C
  H1545    1.0000 0.82743  0.16867  0.68527  Biso   1.000  H
  H1546    1.0000 0.77793  0.15537  0.69097  Biso   1.000  H
  O425     1.0000 0.82983  0.20927  0.69893  Biso   1.000  O
  H1547    1.0000 0.01143  0.46907  0.59347  Biso   1.000  H
  H1548    1.0000 0.98293  0.48457  0.58447  Biso   1.000  H
  O426     1.0000 0.98223  0.42807  0.57880  Biso   1.000  O
  C2321    1.0000 0.85103  0.19407  0.70746  Biso   1.000  C
  C2322    1.0000 0.01883  0.44447  0.57119  Biso   1.000  C
  C2323    1.0000 0.83883  0.14767  0.70774  Biso   1.000  C
  C2324    1.0000 0.87143  0.22297  0.71845  Biso   1.000  C
  C2325    1.0000 0.05293  0.48947  0.57109  Biso   1.000  C
  C2326    1.0000 0.01333  0.41547  0.56032  Biso   1.000  C
  H1549    1.0000 0.81623  0.12607  0.70207  Biso   1.000  H
  C2327    1.0000 0.86053  0.13357  0.71651  Biso   1.000  C
  C2328    1.0000 0.89153  0.20797  0.72676  Biso   1.000  C
  C2329    1.0000 0.88023  0.26977  0.72087  Biso   1.000  C
  C2330    1.0000 0.08873  0.50367  0.56167  Biso   1.000  C
  H1550    1.0000 0.05313  0.51077  0.57707  Biso   1.000  H
  C2331    1.0000 0.04743  0.42817  0.55146  Biso   1.000  C
  C2332    1.0000 0.97693  0.36687  0.55852  Biso   1.000  C
  H1551    1.0000 0.85923  0.10467  0.71557  Biso   1.000  H
  C2333    1.0000 0.88483  0.16377  0.72698  Biso   1.000  C
  C2334    1.0000 0.92133  0.24607  0.73641  Biso   1.000  C
  H1552    1.0000 0.86463  0.27977  0.71457  Biso   1.000  H
  C2335    1.0000 0.86713  0.27147  0.73317  Biso   1.000  C
  C2336    1.0000 0.93093  0.29777  0.72017  Biso   1.000  C
  C2337    1.0000 0.08313  0.47097  0.55127  Biso   1.000  C
  H1553    1.0000 0.11543  0.53337  0.56207  Biso   1.000  H
  C2338    1.0000 0.04453  0.39527  0.54230  Biso   1.000  C
  H1554    1.0000 0.95173  0.35637  0.56497  Biso   1.000  H
  C2339    1.0000 0.99723  0.33847  0.55812  Biso   1.000  C
  C2340    1.0000 0.96013  0.36837  0.54476  Biso   1.000  C
  O427     1.0000 0.90583  0.15257  0.73573  Biso   1.000  O
  H1555    1.0000 0.93683  0.23637  0.74287  Biso   1.000  H
  C2341    1.0000 0.88653  0.25807  0.74217  Biso   1.000  C
  C2342    1.0000 0.95343  0.28657  0.72907  Biso   1.000  C
  C2343    1.0000 0.83703  0.28577  0.73727  Biso   1.000  C
  C2344    1.0000 0.95663  0.33577  0.71217  Biso   1.000  C
  O428     1.0000 0.12023  0.49097  0.54249  Biso   1.000  O
  H1556    1.0000 0.07213  0.40667  0.53667  Biso   1.000  H
  C2345    1.0000 0.03323  0.35287  0.54941  Biso   1.000  C
  C2346    1.0000 0.99933  0.38497  0.53529  Biso   1.000  C
  C2347    1.0000 0.98553  0.29877  0.56530  Biso   1.000  C
  C2348    1.0000 0.91563  0.35377  0.54103  Biso   1.000  C
  C2349    1.0000 0.89783  0.11117  0.73662  Biso   1.000  C
  C2350    1.0000 0.87403  0.25807  0.75617  Biso   1.000  C
  C2351    1.0000 0.99623  0.30587  0.73084  Biso   1.000  C
  C2352    1.0000 0.82503  0.28067  0.75267  Biso   1.000  C
  H1557    1.0000 0.82393  0.29797  0.73157  Biso   1.000  H
  C2353    1.0000 0.00193  0.35707  0.71307  Biso   1.000  C
  H1558    1.0000 0.94183  0.34567  0.70627  Biso   1.000  H
  C2354    1.0000 0.14903  0.53787  0.54110  Biso   1.000  C
  C2355    1.0000 0.05503  0.32977  0.54807  Biso   1.000  C
  C2356    1.0000 0.98883  0.38537  0.52289  Biso   1.000  C
  H1559    1.0000 0.95983  0.28767  0.57087  Biso   1.000  H
  C2357    1.0000 0.00863  0.27527  0.56477  Biso   1.000  C
  H1560    1.0000 0.89123  0.34337  0.54697  Biso   1.000  H
  C2358    1.0000 0.90773  0.35497  0.52803  Biso   1.000  C
  H1561    1.0000 0.86423  0.09067  0.73777  Biso   1.000  H
  H1562    1.0000 0.90623  0.10277  0.72847  Biso   1.000  H
  C2359    1.0000 0.92233  0.10137  0.74698  Biso   1.000  C
  H1563    1.0000 0.88833  0.24917  0.76247  Biso   1.000  H
  C2360    1.0000 0.84293  0.27047  0.75967  Biso   1.000  C
  H1564    1.0000 0.00833  0.29387  0.73697  Biso   1.000  H
  C2361    1.0000 0.02703  0.34647  0.72367  Biso   1.000  C
  H1565    1.0000 0.80183  0.28687  0.75557  Biso   1.000  H
  H1566    1.0000 0.01983  0.37987  0.70697  Biso   1.000  H
  H1567    1.0000 0.13073  0.55367  0.54067  Biso   1.000  H
  H1568    1.0000 0.17033  0.55047  0.54837  Biso   1.000  H
  C2362    1.0000 0.17513  0.54507  0.52937  Biso   1.000  C
  C2363    1.0000 0.04143  0.29037  0.55547  Biso   1.000  C
  H1569    1.0000 0.07983  0.33977  0.54227  Biso   1.000  H
  C2364    1.0000 0.94653  0.37417  0.51916  Biso   1.000  C
  H1570    1.0000 0.01233  0.39387  0.51667  Biso   1.000  H
  H1571    1.0000 0.00273  0.25067  0.57037  Biso   1.000  H
  H1572    1.0000 0.87723  0.34327  0.52497  Biso   1.000  H
  C2365    1.0000 0.94363  0.13417  0.75625  Biso   1.000  C
  C2366    1.0000 0.92553  0.06097  0.74814  Biso   1.000  C
  H1573    1.0000 0.83623  0.27037  0.76837  Biso   1.000  H
  H1574    1.0000 0.05923  0.36457  0.72527  Biso   1.000  H
  C2367    1.0000 0.21033  0.59097  0.52547  Biso   1.000  C
  C2368    1.0000 0.16473  0.51287  0.52087  Biso   1.000  C
  H1575    1.0000 0.05593  0.27267  0.55387  Biso   1.000  H
  H1576    1.0000 0.94143  0.37877  0.51057  Biso   1.000  H
  H1577    1.0000 0.94253  0.16187  0.75567  Biso   1.000  H
  C2369    1.0000 0.96683  0.12877  0.76658  Biso   1.000  C
  C2370    1.0000 0.94793  0.05647  0.75829  Biso   1.000  C
  H1578    1.0000 0.91233  0.03737  0.74187  Biso   1.000  H
  H1579    1.0000 0.21983  0.61737  0.53067  Biso   1.000  H
  C2371    1.0000 0.22933  0.59367  0.51339  Biso   1.000  C
  C2372    1.0000 0.19173  0.51777  0.50888  Biso   1.000  C
  H1580    1.0000 0.13783  0.48377  0.52227  Biso   1.000  H
  H1581    1.0000 0.98003  0.15157  0.77297  Biso   1.000  H
  C2373    1.0000 0.96993  0.08797  0.76708  Biso   1.000  C
  H1582    1.0000 0.94763  0.02807  0.75917  Biso   1.000  H
  H1583    1.0000 0.25053  0.62407  0.51067  Biso   1.000  H
  C2374    1.0000 0.22303  0.56217  0.50550  Biso   1.000  C
  H1584    1.0000 0.18733  0.49197  0.50407  Biso   1.000  H
  C2375    1.0000 0.99683  0.08287  0.77747  Biso   1.000  C
  C2376    1.0000 0.25173  0.56967  0.49477  Biso   1.000  C
  O429     1.0000 0.26983  0.60977  0.49088  Biso   1.000  O
  Zn73     1.0000 0.37777  0.77898  0.96038  Biso   1.000  Zn
  O430     1.0000 0.34050  0.72220  0.96903  Biso   1.000  O
  O431     1.0000 0.40720  0.82570  0.97366  Biso   1.000  O
  O432     1.0000 0.34130  0.79640  0.95086  Biso   1.000  O
  O433     1.0000 0.42460  0.78400  0.94995  Biso   1.000  O
  Zn74     1.0000 0.29740  0.73910  0.97660  Biso   1.000  Zn
  C2377    1.0000 0.38100  0.82230  0.98271  Biso   1.000  C
  C2378    1.0000 0.29920  0.78570  0.95433  Biso   1.000  C
  O434     1.0000 0.33990  0.79580  0.98534  Biso   1.000  O
  O435     1.0000 0.27420  0.75970  0.96318  Biso   1.000  O
  O436     1.0000 0.24800  0.70890  0.98852  Biso   1.000  O
  O437     1.0000 0.29140  0.67930  0.94611  Biso   1.000  O
  C2379    1.0000 0.40860  0.85940  0.99293  Biso   1.000  C
  C2380    1.0000 0.27660  0.80470  0.94538  Biso   1.000  C
  C2381    1.0000 0.38690  0.86180  0.00444  Biso   1.000  C
  C2382    1.0000 0.45330  0.89150  0.99178  Biso   1.000  C
  C2383    1.0000 0.29940  0.83300  0.93431  Biso   1.000  C
  C2384    1.0000 0.23550  0.80120  0.94873  Biso   1.000  C
  C2385    1.0000 0.41060  0.89420  0.01283  Biso   1.000  C
  H1585    1.0000 0.35550  0.84000  0.00600  Biso   1.000  H
  H1586    1.0000 0.46890  0.89080  0.98430  Biso   1.000  H
  C2386    1.0000 0.47860  0.92560  0.00060  Biso   1.000  C
  C2387    1.0000 0.27870  0.85180  0.92683  Biso   1.000  C
  H1587    1.0000 0.32940  0.83880  0.93210  Biso   1.000  H
  H1588    1.0000 0.22120  0.78720  0.95650  Biso   1.000  H
  C2388    1.0000 0.21380  0.81880  0.94037  Biso   1.000  C
  C2389    1.0000 0.45770  0.92680  0.01183  Biso   1.000  C
  H1589    1.0000 0.39460  0.89570  0.02010  Biso   1.000  H
  H1590    1.0000 0.50990  0.94790  0.99900  Biso   1.000  H
  C2390    1.0000 0.23560  0.84350  0.92978  Biso   1.000  C
  H1591    1.0000 0.29450  0.87030  0.91970  Biso   1.000  H
  H1592    1.0000 0.18370  0.81310  0.94230  Biso   1.000  H
  C2391    1.0000 0.48520  0.96030  0.02182  Biso   1.000  C
  C2392    1.0000 0.20900  0.85880  0.92164  Biso   1.000  C
  H1593    1.0000 0.49800  0.99210  0.01860  Biso   1.000  H
  H1594    1.0000 0.51130  0.95590  0.02430  Biso   1.000  H
  O438     1.0000 0.45740  0.95390  0.03226  Biso   1.000  O
  H1595    1.0000 0.19760  0.87570  0.92680  Biso   1.000  H
  H1596    1.0000 0.18210  0.83170  0.91780  Biso   1.000  H
  O439     1.0000 0.23860  0.88750  0.91213  Biso   1.000  O
  C2393    1.0000 0.47260  0.99030  0.04079  Biso   1.000  C
  C2394    1.0000 0.22220  0.90770  0.90452  Biso   1.000  C
  C2395    1.0000 0.51900  0.02450  0.04107  Biso   1.000  C
  C2396    1.0000 0.44370  0.98180  0.05178  Biso   1.000  C
  C2397    1.0000 0.17720  0.89680  0.90442  Biso   1.000  C
  C2398    1.0000 0.25120  0.93120  0.89365  Biso   1.000  C
  H1597    1.0000 0.54060  0.02350  0.03540  Biso   1.000  H
  C2399    1.0000 0.53310  0.06030  0.04984  Biso   1.000  C
  C2400    1.0000 0.45870  0.01690  0.06009  Biso   1.000  C
  C2401    1.0000 0.39690  0.94380  0.05420  Biso   1.000  C
  C2402    1.0000 0.16300  0.91840  0.89500  Biso   1.000  C
  H1598    1.0000 0.15590  0.87570  0.91040  Biso   1.000  H
  C2403    1.0000 0.23850  0.95260  0.88479  Biso   1.000  C
  C2404    1.0000 0.29980  0.94340  0.89185  Biso   1.000  C
  H1599    1.0000 0.56200  0.08790  0.04890  Biso   1.000  H
  C2405    1.0000 0.50290  0.05440  0.06031  Biso   1.000  C
  C2406    1.0000 0.42060  0.00860  0.06974  Biso   1.000  C
  H1600    1.0000 0.38690  0.91820  0.04790  Biso   1.000  H
  C2407    1.0000 0.39520  0.92900  0.06650  Biso   1.000  C
  C2408    1.0000 0.36890  0.96650  0.05350  Biso   1.000  C
  C2409    1.0000 0.19570  0.94550  0.88460  Biso   1.000  C
  H1601    1.0000 0.13330  0.91540  0.89540  Biso   1.000  H
  C2410    1.0000 0.27140  0.98260  0.87563  Biso   1.000  C
  H1602    1.0000 0.31030  0.92870  0.89830  Biso   1.000  H
  C2411    1.0000 0.32820  0.99210  0.89145  Biso   1.000  C
  C2412    1.0000 0.29830  0.92510  0.87809  Biso   1.000  C
  O440     1.0000 0.51410  0.08660  0.06906  Biso   1.000  O
  H1603    1.0000 0.43030  0.03380  0.07620  Biso   1.000  H
  C2413    1.0000 0.40860  0.96180  0.07550  Biso   1.000  C
  C2414    1.0000 0.38010  0.00020  0.06240  Biso   1.000  C
  C2415    1.0000 0.38090  0.88460  0.07060  Biso   1.000  C
  C2416    1.0000 0.33090  0.95420  0.04550  Biso   1.000  C
  O441     1.0000 0.17570  0.96260  0.87582  Biso   1.000  O
  H1604    1.0000 0.26000  0.99880  0.87000  Biso   1.000  H
  C2417    1.0000 0.31380  0.01370  0.88274  Biso   1.000  C
  C2418    1.0000 0.28170  0.94770  0.86862  Biso   1.000  C
  C2419    1.0000 0.36790  0.02010  0.89863  Biso   1.000  C
  C2420    1.0000 0.31290  0.89520  0.87436  Biso   1.000  C
  C2421    1.0000 0.55550  0.12000  0.06995  Biso   1.000  C
  C2422    1.0000 0.40860  0.94930  0.08950  Biso   1.000  C
  C2423    1.0000 0.36080  0.02370  0.06417  Biso   1.000  C
  C2424    1.0000 0.38600  0.87770  0.08600  Biso   1.000  C
  H1605    1.0000 0.36870  0.85930  0.06490  Biso   1.000  H
  C2425    1.0000 0.30960  0.97820  0.04640  Biso   1.000  C
  H1606    1.0000 0.32100  0.92950  0.03960  Biso   1.000  H
  C2426    1.0000 0.12880  0.94450  0.87443  Biso   1.000  C
  C2427    1.0000 0.33690  0.05860  0.88140  Biso   1.000  C
  C2428    1.0000 0.28130  0.93680  0.85622  Biso   1.000  C
  H1607    1.0000 0.37900  0.00550  0.90420  Biso   1.000  H
  C2429    1.0000 0.39140  0.06670  0.89810  Biso   1.000  C
  H1608    1.0000 0.32330  0.88120  0.88030  Biso   1.000  H
  C2430    1.0000 0.31170  0.88610  0.86136  Biso   1.000  C
  H1609    1.0000 0.57600  0.10690  0.07110  Biso   1.000  H
  H1610    1.0000 0.56390  0.13680  0.06180  Biso   1.000  H
  C2431    1.0000 0.56530  0.15430  0.08031  Biso   1.000  C
  H1611    1.0000 0.41750  0.97250  0.09580  Biso   1.000  H
  C2432    1.0000 0.39620  0.90580  0.09300  Biso   1.000  C
  H1612    1.0000 0.37280  0.04780  0.07030  Biso   1.000  H
  C2433    1.0000 0.32020  0.01390  0.05700  Biso   1.000  C
  H1613    1.0000 0.37980  0.84830  0.08890  Biso   1.000  H
  H1614    1.0000 0.28680  0.97330  0.04030  Biso   1.000  H
  H1615    1.0000 0.11300  0.91040  0.87400  Biso   1.000  H
  H1616    1.0000 0.11620  0.95320  0.88170  Biso   1.000  H
  C2434    1.0000 0.12160  0.96340  0.86270  Biso   1.000  C
  C2435    1.0000 0.37630  0.08440  0.88880  Biso   1.000  C
  H1617    1.0000 0.32690  0.07340  0.87560  Biso   1.000  H
  C2436    1.0000 0.29250  0.90570  0.85249  Biso   1.000  C
  H1618    1.0000 0.27280  0.95180  0.85000  Biso   1.000  H
  H1619    1.0000 0.41600  0.08540  0.90370  Biso   1.000  H
  H1620    1.0000 0.32340  0.86730  0.85830  Biso   1.000  H
  C2437    1.0000 0.53250  0.14280  0.08958  Biso   1.000  C
  C2438    1.0000 0.60570  0.19790  0.08147  Biso   1.000  C
  H1621    1.0000 0.39630  0.89920  0.10170  Biso   1.000  H
  H1622    1.0000 0.30210  0.02800  0.05860  Biso   1.000  H
  C2439    1.0000 0.07570  0.95270  0.85880  Biso   1.000  C
  C2440    1.0000 0.15380  0.98520  0.85420  Biso   1.000  C
  H1623    1.0000 0.39400  0.11660  0.88720  Biso   1.000  H
  H1624    1.0000 0.28790  0.89600  0.84390  Biso   1.000  H
  H1625    1.0000 0.50480  0.11400  0.08900  Biso   1.000  H
  C2441    1.0000 0.53790  0.17140  0.09991  Biso   1.000  C
  C2442    1.0000 0.61020  0.22480  0.09162  Biso   1.000  C
  H1626    1.0000 0.62930  0.20830  0.07520  Biso   1.000  H
  H1627    1.0000 0.04930  0.93580  0.86400  Biso   1.000  H
  C2443    1.0000 0.07300  0.96900  0.84672  Biso   1.000  C
  C2444    1.0000 0.14890  0.00730  0.84221  Biso   1.000  C
  H1628    1.0000 0.18290  0.98740  0.85560  Biso   1.000  H
  H1629    1.0000 0.51510  0.16180  0.10630  Biso   1.000  H
  C2445    1.0000 0.57870  0.21530  0.10041  Biso   1.000  C
  H1630    1.0000 0.63860  0.25290  0.09250  Biso   1.000  H
  H1631    1.0000 0.04260  0.95980  0.84400  Biso   1.000  H
  C2446    1.0000 0.10450  0.99420  0.83883  Biso   1.000  C
  H1632    1.0000 0.17470  0.02870  0.83740  Biso   1.000  H
  C2447    1.0000 0.58380  0.24730  0.11080  Biso   1.000  C
  C2448    1.0000 0.09700  0.01540  0.82810  Biso   1.000  C
  O442     1.0000 0.05690  0.99340  0.82421  Biso   1.000  O
  Zn75     1.0000 0.04444  0.11231  0.29371  Biso   1.000  Zn
  O443     1.0000 0.00717  0.05553  0.30236  Biso   1.000  O
  O444     1.0000 0.07387  0.15903  0.30699  Biso   1.000  O
  O445     1.0000 0.00797  0.12973  0.28419  Biso   1.000  O
  O446     1.0000 0.09127  0.11733  0.28328  Biso   1.000  O
  Zn76     1.0000 0.96407  0.07243  0.30993  Biso   1.000  Zn
  C2449    1.0000 0.04767  0.15563  0.31604  Biso   1.000  C
  C2450    1.0000 0.96587  0.11903  0.28766  Biso   1.000  C
  O447     1.0000 0.00657  0.12913  0.31867  Biso   1.000  O
  O448     1.0000 0.94087  0.09303  0.29651  Biso   1.000  O
  O449     1.0000 0.91467  0.04223  0.32185  Biso   1.000  O
  O450     1.0000 0.95807  0.01263  0.27944  Biso   1.000  O
  C2451    1.0000 0.07527  0.19273  0.32626  Biso   1.000  C
  C2452    1.0000 0.94327  0.13803  0.27871  Biso   1.000  C
  C2453    1.0000 0.05357  0.19513  0.33777  Biso   1.000  C
  C2454    1.0000 0.11997  0.22483  0.32511  Biso   1.000  C
  C2455    1.0000 0.96607  0.16633  0.26764  Biso   1.000  C
  C2456    1.0000 0.90217  0.13453  0.28206  Biso   1.000  C
  C2457    1.0000 0.07727  0.22753  0.34616  Biso   1.000  C
  H1633    1.0000 0.02217  0.17333  0.33933  Biso   1.000  H
  H1634    1.0000 0.13557  0.22413  0.31763  Biso   1.000  H
  C2458    1.0000 0.14527  0.25893  0.33393  Biso   1.000  C
  C2459    1.0000 0.94537  0.18513  0.26016  Biso   1.000  C
  H1635    1.0000 0.99607  0.17213  0.26543  Biso   1.000  H
  H1636    1.0000 0.88787  0.12053  0.28983  Biso   1.000  H
  C2460    1.0000 0.88047  0.15213  0.27370  Biso   1.000  C
  C2461    1.0000 0.12437  0.26013  0.34516  Biso   1.000  C
  H1637    1.0000 0.06127  0.22903  0.35343  Biso   1.000  H
  H1638    1.0000 0.17657  0.28123  0.33233  Biso   1.000  H
  C2462    1.0000 0.90227  0.17683  0.26311  Biso   1.000  C
  H1639    1.0000 0.96117  0.20363  0.25303  Biso   1.000  H
  H1640    1.0000 0.85037  0.14643  0.27563  Biso   1.000  H
  C2463    1.0000 0.15187  0.29363  0.35515  Biso   1.000  C
  C2464    1.0000 0.87567  0.19213  0.25497  Biso   1.000  C
  H1641    1.0000 0.16467  0.32543  0.35193  Biso   1.000  H
  H1642    1.0000 0.17797  0.28923  0.35763  Biso   1.000  H
  O451     1.0000 0.12407  0.28723  0.36559  Biso   1.000  O
  H1643    1.0000 0.86427  0.20903  0.26013  Biso   1.000  H
  H1644    1.0000 0.84877  0.16503  0.25113  Biso   1.000  H
  O452     1.0000 0.90527  0.22083  0.24546  Biso   1.000  O
  C2465    1.0000 0.13927  0.32363  0.37412  Biso   1.000  C
  C2466    1.0000 0.88887  0.24103  0.23785  Biso   1.000  C
  C2467    1.0000 0.18567  0.35783  0.37440  Biso   1.000  C
  C2468    1.0000 0.11037  0.31513  0.38511  Biso   1.000  C
  C2469    1.0000 0.84387  0.23013  0.23775  Biso   1.000  C
  C2470    1.0000 0.91787  0.26453  0.22698  Biso   1.000  C
  H1645    1.0000 0.20727  0.35683  0.36873  Biso   1.000  H
  C2471    1.0000 0.19977  0.39363  0.38317  Biso   1.000  C
  C2472    1.0000 0.12537  0.35023  0.39342  Biso   1.000  C
  C2473    1.0000 0.06357  0.27713  0.38753  Biso   1.000  C
  C2474    1.0000 0.82967  0.25173  0.22833  Biso   1.000  C
  H1646    1.0000 0.82257  0.20903  0.24373  Biso   1.000  H
  C2475    1.0000 0.90517  0.28593  0.21812  Biso   1.000  C
  C2476    1.0000 0.96647  0.27673  0.22518  Biso   1.000  C
  H1647    1.0000 0.22867  0.42123  0.38223  Biso   1.000  H
  C2477    1.0000 0.16957  0.38773  0.39364  Biso   1.000  C
  C2478    1.0000 0.08727  0.34193  0.40307  Biso   1.000  C
  H1648    1.0000 0.05357  0.25153  0.38123  Biso   1.000  H
  C2479    1.0000 0.06187  0.26233  0.39983  Biso   1.000  C
  C2480    1.0000 0.03557  0.29983  0.38683  Biso   1.000  C
  C2481    1.0000 0.86237  0.27883  0.21793  Biso   1.000  C
  H1649    1.0000 0.79997  0.24873  0.22873  Biso   1.000  H
  C2482    1.0000 0.93807  0.31593  0.20896  Biso   1.000  C
  H1650    1.0000 0.97697  0.26203  0.23163  Biso   1.000  H
  C2483    1.0000 0.99487  0.32543  0.22478  Biso   1.000  C
  C2484    1.0000 0.96497  0.25843  0.21142  Biso   1.000  C
  O453     1.0000 0.18077  0.41993  0.40239  Biso   1.000  O
  H1651    1.0000 0.09697  0.36713  0.40953  Biso   1.000  H
  C2485    1.0000 0.07527  0.29513  0.40883  Biso   1.000  C
  C2486    1.0000 0.04677  0.33353  0.39573  Biso   1.000  C
  C2487    1.0000 0.04757  0.21793  0.40393  Biso   1.000  C
  C2488    1.0000 0.99757  0.28753  0.37883  Biso   1.000  C
  O454     1.0000 0.84237  0.29593  0.20915  Biso   1.000  O
  H1652    1.0000 0.92667  0.33213  0.20333  Biso   1.000  H
  C2489    1.0000 0.98047  0.34703  0.21607  Biso   1.000  C
  C2490    1.0000 0.94837  0.28103  0.20195  Biso   1.000  C
  C2491    1.0000 0.03457  0.35343  0.23196  Biso   1.000  C
  C2492    1.0000 0.97957  0.22853  0.20769  Biso   1.000  C
  C2493    1.0000 0.22217  0.45333  0.40328  Biso   1.000  C
  C2494    1.0000 0.07527  0.28263  0.42283  Biso   1.000  C
  C2495    1.0000 0.02747  0.35703  0.39750  Biso   1.000  C
  C2496    1.0000 0.05267  0.21103  0.41933  Biso   1.000  C
  H1653    1.0000 0.03537  0.19263  0.39823  Biso   1.000  H
  C2497    1.0000 0.97627  0.31153  0.37973  Biso   1.000  C
  H1654    1.0000 0.98767  0.26283  0.37293  Biso   1.000  H
  C2498    1.0000 0.79547  0.27783  0.20776  Biso   1.000  C
  C2499    1.0000 0.00357  0.39193  0.21473  Biso   1.000  C
  C2500    1.0000 0.94797  0.27013  0.18955  Biso   1.000  C
  H1655    1.0000 0.04567  0.33883  0.23753  Biso   1.000  H
  C2501    1.0000 0.05807  0.40003  0.23143  Biso   1.000  C
  H1656    1.0000 0.98997  0.21453  0.21363  Biso   1.000  H
  C2502    1.0000 0.97837  0.21943  0.19469  Biso   1.000  C
  H1657    1.0000 0.24267  0.44023  0.40443  Biso   1.000  H
  H1658    1.0000 0.23057  0.47013  0.39513  Biso   1.000  H
  C2503    1.0000 0.23197  0.48763  0.41364  Biso   1.000  C
  H1659    1.0000 0.08417  0.30583  0.42913  Biso   1.000  H
  C2504    1.0000 0.06287  0.23913  0.42633  Biso   1.000  C
  H1660    1.0000 0.03947  0.38113  0.40363  Biso   1.000  H
  C2505    1.0000 0.98687  0.34723  0.39033  Biso   1.000  C
  H1661    1.0000 0.04647  0.18163  0.42223  Biso   1.000  H
  H1662    1.0000 0.95347  0.30663  0.37363  Biso   1.000  H
  H1663    1.0000 0.77967  0.24373  0.20733  Biso   1.000  H
  H1664    1.0000 0.78287  0.28653  0.21503  Biso   1.000  H
  C2506    1.0000 0.78827  0.29673  0.19603  Biso   1.000  C
  C2507    1.0000 0.04297  0.41773  0.22213  Biso   1.000  C
  H1665    1.0000 0.99357  0.40673  0.20893  Biso   1.000  H
  C2508    1.0000 0.95917  0.23903  0.18582  Biso   1.000  C
  H1666    1.0000 0.93947  0.28513  0.18333  Biso   1.000  H
  H1667    1.0000 0.08267  0.41873  0.23703  Biso   1.000  H
  H1668    1.0000 0.99007  0.20063  0.19163  Biso   1.000  H
  C2509    1.0000 0.19917  0.47613  0.42291  Biso   1.000  C
  C2510    1.0000 0.27237  0.53123  0.41480  Biso   1.000  C
  H1669    1.0000 0.06297  0.23253  0.43503  Biso   1.000  H
  H1670    1.0000 0.96877  0.36133  0.39193  Biso   1.000  H
  C2511    1.0000 0.74237  0.28603  0.19213  Biso   1.000  C
  C2512    1.0000 0.82047  0.31853  0.18753  Biso   1.000  C
  H1671    1.0000 0.06067  0.44993  0.22053  Biso   1.000  H
  H1672    1.0000 0.95457  0.22933  0.17723  Biso   1.000  H
  H1673    1.0000 0.17147  0.44733  0.42233  Biso   1.000  H
  C2513    1.0000 0.20457  0.50473  0.43324  Biso   1.000  C
  C2514    1.0000 0.27687  0.55813  0.42495  Biso   1.000  C
  H1674    1.0000 0.29597  0.54163  0.40853  Biso   1.000  H
  H1675    1.0000 0.71597  0.26913  0.19733  Biso   1.000  H
  C2515    1.0000 0.73967  0.30233  0.18005  Biso   1.000  C
  C2516    1.0000 0.81557  0.34063  0.17554  Biso   1.000  C
  H1676    1.0000 0.84957  0.32073  0.18893  Biso   1.000  H
  H1677    1.0000 0.18177  0.49513  0.43963  Biso   1.000  H
  C2517    1.0000 0.24537  0.54863  0.43374  Biso   1.000  C
  H1678    1.0000 0.30527  0.58623  0.42583  Biso   1.000  H
  H1679    1.0000 0.70927  0.29313  0.17733  Biso   1.000  H
  C2518    1.0000 0.77117  0.32753  0.17216  Biso   1.000  C
  H1680    1.0000 0.84137  0.36203  0.17073  Biso   1.000  H
  C2519    1.0000 0.25047  0.58063  0.44413  Biso   1.000  C
  C2520    1.0000 0.76367  0.34873  0.16143  Biso   1.000  C
  O455     1.0000 0.72357  0.32673  0.15754  Biso   1.000  O
  Zn77     1.0000 0.71110  0.44565  0.62705  Biso   1.000  Zn
  O456     1.0000 0.67383  0.38887  0.63570  Biso   1.000  O
  O457     1.0000 0.74053  0.49237  0.64033  Biso   1.000  O
  O458     1.0000 0.67463  0.46307  0.61753  Biso   1.000  O
  O459     1.0000 0.75793  0.45067  0.61662  Biso   1.000  O
  Zn78     1.0000 0.63073  0.40577  0.64327  Biso   1.000  Zn
  C2521    1.0000 0.71433  0.48897  0.64938  Biso   1.000  C
  C2522    1.0000 0.63253  0.45237  0.62100  Biso   1.000  C
  O460     1.0000 0.67323  0.46247  0.65201  Biso   1.000  O
  O461     1.0000 0.60753  0.42637  0.62985  Biso   1.000  O
  O462     1.0000 0.58133  0.37557  0.65519  Biso   1.000  O
  O463     1.0000 0.62473  0.34597  0.61278  Biso   1.000  O
  C2523    1.0000 0.74193  0.52607  0.65960  Biso   1.000  C
  C2524    1.0000 0.60993  0.47137  0.61205  Biso   1.000  C
  C2525    1.0000 0.72023  0.52847  0.67111  Biso   1.000  C
  C2526    1.0000 0.78663  0.55817  0.65845  Biso   1.000  C
  C2527    1.0000 0.63273  0.49967  0.60098  Biso   1.000  C
  C2528    1.0000 0.56883  0.46787  0.61540  Biso   1.000  C
  C2529    1.0000 0.74393  0.56087  0.67950  Biso   1.000  C
  H1681    1.0000 0.68883  0.50667  0.67267  Biso   1.000  H
  H1682    1.0000 0.80223  0.55747  0.65097  Biso   1.000  H
  C2530    1.0000 0.81193  0.59227  0.66727  Biso   1.000  C
  C2531    1.0000 0.61203  0.51847  0.59350  Biso   1.000  C
  H1683    1.0000 0.66273  0.50547  0.59877  Biso   1.000  H
  H1684    1.0000 0.55453  0.45387  0.62317  Biso   1.000  H
  C2532    1.0000 0.54713  0.48547  0.60704  Biso   1.000  C
  C2533    1.0000 0.79103  0.59347  0.67850  Biso   1.000  C
  H1685    1.0000 0.72793  0.56237  0.68677  Biso   1.000  H
  H1686    1.0000 0.84323  0.61457  0.66567  Biso   1.000  H
  C2534    1.0000 0.56893  0.51017  0.59645  Biso   1.000  C
  H1687    1.0000 0.62783  0.53697  0.58637  Biso   1.000  H
  H1688    1.0000 0.51703  0.47977  0.60897  Biso   1.000  H
  C2535    1.0000 0.81853  0.62697  0.68849  Biso   1.000  C
  C2536    1.0000 0.54233  0.52547  0.58831  Biso   1.000  C
  H1689    1.0000 0.83133  0.65877  0.68527  Biso   1.000  H
  H1690    1.0000 0.84463  0.62257  0.69097  Biso   1.000  H
  O464     1.0000 0.79073  0.62057  0.69893  Biso   1.000  O
  H1691    1.0000 0.53093  0.54237  0.59347  Biso   1.000  H
  H1692    1.0000 0.51543  0.49837  0.58447  Biso   1.000  H
  O465     1.0000 0.57193  0.55417  0.57880  Biso   1.000  O
  C2537    1.0000 0.80593  0.65697  0.70746  Biso   1.000  C
  C2538    1.0000 0.55553  0.57437  0.57119  Biso   1.000  C
  C2539    1.0000 0.85233  0.69117  0.70774  Biso   1.000  C
  C2540    1.0000 0.77703  0.64847  0.71845  Biso   1.000  C
  C2541    1.0000 0.51053  0.56347  0.57109  Biso   1.000  C
  C2542    1.0000 0.58453  0.59787  0.56032  Biso   1.000  C
  H1693    1.0000 0.87393  0.69017  0.70207  Biso   1.000  H
  C2543    1.0000 0.86643  0.72697  0.71651  Biso   1.000  C
  C2544    1.0000 0.79203  0.68357  0.72676  Biso   1.000  C
  C2545    1.0000 0.73023  0.61047  0.72087  Biso   1.000  C
  C2546    1.0000 0.49633  0.58507  0.56167  Biso   1.000  C
  H1694    1.0000 0.48923  0.54237  0.57707  Biso   1.000  H
  C2547    1.0000 0.57183  0.61927  0.55146  Biso   1.000  C
  C2548    1.0000 0.63313  0.61007  0.55852  Biso   1.000  C
  H1695    1.0000 0.89533  0.75457  0.71557  Biso   1.000  H
  C2549    1.0000 0.83623  0.72107  0.72698  Biso   1.000  C
  C2550    1.0000 0.75393  0.67527  0.73641  Biso   1.000  C
  H1696    1.0000 0.72023  0.58487  0.71457  Biso   1.000  H
  C2551    1.0000 0.72853  0.59567  0.73317  Biso   1.000  C
  C2552    1.0000 0.70223  0.63317  0.72017  Biso   1.000  C
  C2553    1.0000 0.52903  0.61217  0.55127  Biso   1.000  C
  H1697    1.0000 0.46663  0.58207  0.56207  Biso   1.000  H
  C2554    1.0000 0.60473  0.64927  0.54230  Biso   1.000  C
  H1698    1.0000 0.64363  0.59537  0.56497  Biso   1.000  H
  C2555    1.0000 0.66153  0.65877  0.55812  Biso   1.000  C
  C2556    1.0000 0.63163  0.59177  0.54476  Biso   1.000  C
  O466     1.0000 0.84743  0.75327  0.73573  Biso   1.000  O
  H1699    1.0000 0.76363  0.70047  0.74287  Biso   1.000  H
  C2557    1.0000 0.74193  0.62847  0.74217  Biso   1.000  C
  C2558    1.0000 0.71343  0.66687  0.72907  Biso   1.000  C
  C2559    1.0000 0.71423  0.55127  0.73727  Biso   1.000  C
  C2560    1.0000 0.66423  0.62087  0.71217  Biso   1.000  C
  O467     1.0000 0.50903  0.62927  0.54249  Biso   1.000  O
  H1700    1.0000 0.59333  0.66547  0.53667  Biso   1.000  H
  C2561    1.0000 0.64713  0.68037  0.54941  Biso   1.000  C
  C2562    1.0000 0.61503  0.61437  0.53529  Biso   1.000  C
  C2563    1.0000 0.70123  0.68677  0.56530  Biso   1.000  C
  C2564    1.0000 0.64623  0.56187  0.54103  Biso   1.000  C
  C2565    1.0000 0.88883  0.78667  0.73662  Biso   1.000  C
  C2566    1.0000 0.74193  0.61597  0.75617  Biso   1.000  C
  C2567    1.0000 0.69413  0.69037  0.73084  Biso   1.000  C
  C2568    1.0000 0.71933  0.54437  0.75267  Biso   1.000  C
  H1701    1.0000 0.70203  0.52597  0.73157  Biso   1.000  H
  C2569    1.0000 0.64293  0.64487  0.71307  Biso   1.000  C
  H1702    1.0000 0.65433  0.59617  0.70627  Biso   1.000  H
  C2570    1.0000 0.46213  0.61117  0.54110  Biso   1.000  C
  C2571    1.0000 0.67023  0.72527  0.54807  Biso   1.000  C
  C2572    1.0000 0.61463  0.60347  0.52289  Biso   1.000  C
  H1703    1.0000 0.71233  0.67217  0.57087  Biso   1.000  H
  C2573    1.0000 0.72473  0.73337  0.56477  Biso   1.000  C
  H1704    1.0000 0.65663  0.54787  0.54697  Biso   1.000  H
  C2574    1.0000 0.64503  0.55277  0.52803  Biso   1.000  C
  H1705    1.0000 0.90933  0.77357  0.73777  Biso   1.000  H
  H1706    1.0000 0.89723  0.80347  0.72847  Biso   1.000  H
  C2575    1.0000 0.89863  0.82097  0.74698  Biso   1.000  C
  H1707    1.0000 0.75083  0.63917  0.76247  Biso   1.000  H
  C2576    1.0000 0.72953  0.57247  0.75967  Biso   1.000  C
  H1708    1.0000 0.70613  0.71447  0.73697  Biso   1.000  H
  C2577    1.0000 0.65353  0.68057  0.72367  Biso   1.000  C
  H1709    1.0000 0.71313  0.51497  0.75557  Biso   1.000  H
  H1710    1.0000 0.62013  0.63997  0.70697  Biso   1.000  H
  H1711    1.0000 0.44633  0.57707  0.54067  Biso   1.000  H
  H1712    1.0000 0.44953  0.61987  0.54837  Biso   1.000  H
  C2578    1.0000 0.45493  0.63007  0.52937  Biso   1.000  C
  C2579    1.0000 0.70963  0.75107  0.55547  Biso   1.000  C
  H1713    1.0000 0.66023  0.74007  0.54227  Biso   1.000  H
  C2580    1.0000 0.62583  0.57237  0.51916  Biso   1.000  C
  H1714    1.0000 0.60613  0.61847  0.51667  Biso   1.000  H
  H1715    1.0000 0.74933  0.75207  0.57037  Biso   1.000  H
  H1716    1.0000 0.65673  0.53397  0.52497  Biso   1.000  H
  C2581    1.0000 0.86583  0.80947  0.75625  Biso   1.000  C
  C2582    1.0000 0.93903  0.86457  0.74814  Biso   1.000  C
  H1717    1.0000 0.72963  0.56587  0.76837  Biso   1.000  H
  H1718    1.0000 0.63543  0.69467  0.72527  Biso   1.000  H
  C2583    1.0000 0.40903  0.61937  0.52547  Biso   1.000  C
  C2584    1.0000 0.48713  0.65187  0.52087  Biso   1.000  C
  H1719    1.0000 0.72733  0.78327  0.55387  Biso   1.000  H
  H1720    1.0000 0.62123  0.56267  0.51057  Biso   1.000  H
  H1721    1.0000 0.83813  0.78067  0.75567  Biso   1.000  H
  C2585    1.0000 0.87123  0.83807  0.76658  Biso   1.000  C
  C2586    1.0000 0.94353  0.89147  0.75829  Biso   1.000  C
  H1722    1.0000 0.96263  0.87497  0.74187  Biso   1.000  H
  H1723    1.0000 0.38263  0.60247  0.53067  Biso   1.000  H
  C2587    1.0000 0.40633  0.63567  0.51339  Biso   1.000  C
  C2588    1.0000 0.48223  0.67397  0.50888  Biso   1.000  C
  H1724    1.0000 0.51623  0.65407  0.52227  Biso   1.000  H
  H1725    1.0000 0.84843  0.82847  0.77297  Biso   1.000  H
  C2589    1.0000 0.91203  0.88197  0.76708  Biso   1.000  C
  H1726    1.0000 0.97193  0.91957  0.75917  Biso   1.000  H
  H1727    1.0000 0.37593  0.62647  0.51067  Biso   1.000  H
  C2590    1.0000 0.43783  0.66087  0.50550  Biso   1.000  C
  H1728    1.0000 0.50803  0.69537  0.50407  Biso   1.000  H
  C2591    1.0000 0.91713  0.91397  0.77747  Biso   1.000  C
  C2592    1.0000 0.43033  0.68207  0.49477  Biso   1.000  C
  O468     1.0000 0.39023  0.66007  0.49088  Biso   1.000  O
  Zn79     1.0000 0.33333  0.66667  0.45781  Biso   1.000  Zn
  Zn80     1.0000 0.00000  0.00000  0.79114  Biso   1.000  Zn
  Zn81     1.0000 0.66667  0.33333  0.12448  Biso   1.000  Zn
  Zn82     1.0000 0.33333  0.66667  0.95781  Biso   1.000  Zn
  Zn83     1.0000 0.00000  0.00000  0.29114  Biso   1.000  Zn
  Zn84     1.0000 0.66667  0.33333  0.62448  Biso   1.000  Zn
