data_image0
_cell_length_a       37.322
_cell_length_b       72.64
_cell_length_c       7.074
_cell_angle_alpha    90
_cell_angle_beta     90
_cell_angle_gamma    90

_symmetry_space_group_name_H-M    "P 1"
_symmetry_int_tables_number       1

loop_
  _symmetry_equiv_pos_as_xyz
  'x, y, z'

loop_
  _atom_site_label
  _atom_site_occupancy
  _atom_site_fract_x
  _atom_site_fract_y
  _atom_site_fract_z
  _atom_site_thermal_displace_type
  _atom_site_B_iso_or_equiv
  _atom_site_type_symbol
  Cd1      1.0000 0.38144  0.06951  0.49306  Biso   1.000  Cd
  C1       1.0000 0.15460  0.06193  0.37500  Biso   1.000  C
  C2       1.0000 0.17810  0.06366  0.19760  Biso   1.000  C
  H1       1.0000 0.17520  0.05300  0.11620  Biso   1.000  H
  H2       1.0000 0.17200  0.07470  0.12680  Biso   1.000  H
  C3       1.0000 0.24030  0.06633  0.13750  Biso   1.000  C
  C4       1.0000 0.23520  0.06900  0.94500  Biso   1.000  C
  H3       1.0000 0.21210  0.06980  0.89670  Biso   1.000  H
  C5       1.0000 0.26440  0.07050  0.82600  Biso   1.000  C
  H4       1.0000 0.26090  0.07230  0.69700  Biso   1.000  H
  C6       1.0000 0.29870  0.06943  0.89680  Biso   1.000  C
  C7       1.0000 0.30390  0.06668  0.08970  Biso   1.000  C
  H5       1.0000 0.32700  0.06590  0.13830  Biso   1.000  H
  C8       1.0000 0.27450  0.06510  0.20970  Biso   1.000  C
  H6       1.0000 0.27800  0.06320  0.33850  Biso   1.000  H
  C9       1.0000 0.33110  0.06798  0.76380  Biso   1.000  C
  C10      1.0000 0.16250  0.04100  0.43900  Biso   1.000  C
  H7       1.0000 0.15370  0.03240  0.34540  Biso   1.000  H
  H8       1.0000 0.18800  0.03910  0.45670  Biso   1.000  H
  C11      1.0000 0.14040  0.02060  0.65400  Biso   1.000  C
  C12      1.0000 0.14580  0.00560  0.53500  Biso   1.000  C
  H9       1.0000 0.15280  0.00750  0.41010  Biso   1.000  H
  C13      1.0000 0.14070  0.98780  0.60200  Biso   1.000  C
  H10      1.0000 0.14430  0.97780  0.52250  Biso   1.000  H
  C14      1.0000 0.13020  0.98504  0.78700  Biso   1.000  C
  C15      1.0000 0.12480  0.00010  0.90700  Biso   1.000  C
  H11      1.0000 0.11780  0.99820  0.03150  Biso   1.000  H
  C16      1.0000 0.12990  0.01780  0.84000  Biso   1.000  C
  H12      1.0000 0.12630  0.02780  0.91950  Biso   1.000  H
  C17      1.0000 0.12530  0.96701  0.86900  Biso   1.000  C
  C18      1.0000 0.16300  0.07352  0.55500  Biso   1.000  C
  H13      1.0000 0.14530  0.07150  0.65380  Biso   1.000  H
  H14      1.0000 0.18670  0.07090  0.60410  Biso   1.000  H
  C19      1.0000 0.15520  0.10430  0.64400  Biso   1.000  C
  C20      1.0000 0.16130  0.10160  0.83400  Biso   1.000  C
  H15      1.0000 0.17030  0.09030  0.87560  Biso   1.000  H
  C21      1.0000 0.15430  0.11530  0.96300  Biso   1.000  C
  H16      1.0000 0.15860  0.11330  0.09060  Biso   1.000  H
  C22      1.0000 0.14090  0.13210  0.90200  Biso   1.000  C
  C23      1.0000 0.13500  0.13480  0.71100  Biso   1.000  C
  H17      1.0000 0.12630  0.14600  0.66870  Biso   1.000  H
  C24      1.0000 0.14170  0.12100  0.58300  Biso   1.000  C
  H18      1.0000 0.13730  0.12300  0.45550  Biso   1.000  H
  C25      1.0000 0.13480  0.14856  0.02600  Biso   1.000  C
  C26      1.0000 0.11400  0.06480  0.32200  Biso   1.000  C
  H19      1.0000 0.09950  0.05720  0.40440  Biso   1.000  H
  H20      1.0000 0.10760  0.07750  0.34550  Biso   1.000  H
  C27      1.0000 0.07070  0.06160  0.08100  Biso   1.000  C
  C28      1.0000 0.04390  0.06930  0.18800  Biso   1.000  C
  H21      1.0000 0.04920  0.07400  0.30710  Biso   1.000  H
  C29      1.0000 0.00930  0.06990  0.12200  Biso   1.000  C
  H22      1.0000 0.99140  0.07510  0.19600  Biso   1.000  H
  C30      1.0000 0.00100  0.06280  0.94600  Biso   1.000  C
  C31      1.0000 0.02800  0.05510  0.83800  Biso   1.000  C
  H23      1.0000 0.02270  0.05030  0.71930  Biso   1.000  H
  C32      1.0000 0.06240  0.05450  0.90400  Biso   1.000  C
  H24      1.0000 0.08040  0.04940  0.82950  Biso   1.000  H
  C33      1.0000 0.96320  0.06310  0.88600  Biso   1.000  C
  O1       1.0000 0.21417  0.06472  0.26720  Biso   1.000  O
  O2       1.0000 0.36160  0.06743  0.81260  Biso   1.000  O
  O3       1.0000 0.32280  0.06945  0.58330  Biso   1.000  O
  O4       1.0000 0.14450  0.03929  0.60500  Biso   1.000  O
  O5       1.0000 0.11730  0.96529  0.03290  Biso   1.000  O
  O6       1.0000 0.12610  0.95312  0.76450  Biso   1.000  O
  O7       1.0000 0.16060  0.09172  0.47780  Biso   1.000  O
  O8       1.0000 0.13340  0.14660  0.20600  Biso   1.000  O
  O9       1.0000 0.13370  0.16441  0.95620  Biso   1.000  O
  O10      1.0000 0.10620  0.06083  0.14740  Biso   1.000  O
  O11      1.0000 0.94030  0.06752  0.02110  Biso   1.000  O
  O12      1.0000 0.95540  0.06137  0.70450  Biso   1.000  O
  Cd2      1.0000 0.40744  0.06273  0.03402  Biso   1.000  Cd
  Cd3      1.0000 0.38144  0.56951  0.99306  Biso   1.000  Cd
  C34      1.0000 0.15460  0.56193  0.87500  Biso   1.000  C
  C35      1.0000 0.17810  0.56366  0.69760  Biso   1.000  C
  H25      1.0000 0.17520  0.55300  0.61620  Biso   1.000  H
  H26      1.0000 0.17200  0.57470  0.62680  Biso   1.000  H
  C36      1.0000 0.24030  0.56633  0.63750  Biso   1.000  C
  C37      1.0000 0.23520  0.56900  0.44500  Biso   1.000  C
  H27      1.0000 0.21210  0.56980  0.39670  Biso   1.000  H
  C38      1.0000 0.26440  0.57050  0.32600  Biso   1.000  C
  H28      1.0000 0.26090  0.57230  0.19700  Biso   1.000  H
  C39      1.0000 0.29870  0.56943  0.39680  Biso   1.000  C
  C40      1.0000 0.30390  0.56668  0.58970  Biso   1.000  C
  H29      1.0000 0.32700  0.56590  0.63830  Biso   1.000  H
  C41      1.0000 0.27450  0.56510  0.70970  Biso   1.000  C
  H30      1.0000 0.27800  0.56320  0.83850  Biso   1.000  H
  C42      1.0000 0.33110  0.56798  0.26380  Biso   1.000  C
  C43      1.0000 0.16250  0.54100  0.93900  Biso   1.000  C
  H31      1.0000 0.15370  0.53240  0.84540  Biso   1.000  H
  H32      1.0000 0.18800  0.53910  0.95670  Biso   1.000  H
  C44      1.0000 0.14040  0.52060  0.15400  Biso   1.000  C
  C45      1.0000 0.14580  0.50560  0.03500  Biso   1.000  C
  H33      1.0000 0.15280  0.50750  0.91010  Biso   1.000  H
  C46      1.0000 0.14070  0.48780  0.10200  Biso   1.000  C
  H34      1.0000 0.14430  0.47780  0.02250  Biso   1.000  H
  C47      1.0000 0.13020  0.48504  0.28700  Biso   1.000  C
  C48      1.0000 0.12480  0.50010  0.40700  Biso   1.000  C
  H35      1.0000 0.11780  0.49820  0.53150  Biso   1.000  H
  C49      1.0000 0.12990  0.51780  0.34000  Biso   1.000  C
  H36      1.0000 0.12630  0.52780  0.41950  Biso   1.000  H
  C50      1.0000 0.12530  0.46701  0.36900  Biso   1.000  C
  C51      1.0000 0.16300  0.57352  0.05500  Biso   1.000  C
  H37      1.0000 0.14530  0.57150  0.15380  Biso   1.000  H
  H38      1.0000 0.18670  0.57090  0.10410  Biso   1.000  H
  C52      1.0000 0.15520  0.60430  0.14400  Biso   1.000  C
  C53      1.0000 0.16130  0.60160  0.33400  Biso   1.000  C
  H39      1.0000 0.17030  0.59030  0.37560  Biso   1.000  H
  C54      1.0000 0.15430  0.61530  0.46300  Biso   1.000  C
  H40      1.0000 0.15860  0.61330  0.59060  Biso   1.000  H
  C55      1.0000 0.14090  0.63210  0.40200  Biso   1.000  C
  C56      1.0000 0.13500  0.63480  0.21100  Biso   1.000  C
  H41      1.0000 0.12630  0.64600  0.16870  Biso   1.000  H
  C57      1.0000 0.14170  0.62100  0.08300  Biso   1.000  C
  H42      1.0000 0.13730  0.62300  0.95550  Biso   1.000  H
  C58      1.0000 0.13480  0.64856  0.52600  Biso   1.000  C
  C59      1.0000 0.11400  0.56480  0.82200  Biso   1.000  C
  H43      1.0000 0.09950  0.55720  0.90440  Biso   1.000  H
  H44      1.0000 0.10760  0.57750  0.84550  Biso   1.000  H
  C60      1.0000 0.07070  0.56160  0.58100  Biso   1.000  C
  C61      1.0000 0.04390  0.56930  0.68800  Biso   1.000  C
  H45      1.0000 0.04920  0.57400  0.80710  Biso   1.000  H
  C62      1.0000 0.00930  0.56990  0.62200  Biso   1.000  C
  H46      1.0000 0.99140  0.57510  0.69600  Biso   1.000  H
  C63      1.0000 0.00100  0.56280  0.44600  Biso   1.000  C
  C64      1.0000 0.02800  0.55510  0.33800  Biso   1.000  C
  H47      1.0000 0.02270  0.55030  0.21930  Biso   1.000  H
  C65      1.0000 0.06240  0.55450  0.40400  Biso   1.000  C
  H48      1.0000 0.08040  0.54940  0.32950  Biso   1.000  H
  C66      1.0000 0.96320  0.56310  0.38600  Biso   1.000  C
  O13      1.0000 0.21417  0.56472  0.76720  Biso   1.000  O
  O14      1.0000 0.36160  0.56743  0.31260  Biso   1.000  O
  O15      1.0000 0.32280  0.56945  0.08330  Biso   1.000  O
  O16      1.0000 0.14450  0.53929  0.10500  Biso   1.000  O
  O17      1.0000 0.11730  0.46529  0.53290  Biso   1.000  O
  O18      1.0000 0.12610  0.45312  0.26450  Biso   1.000  O
  O19      1.0000 0.16060  0.59172  0.97780  Biso   1.000  O
  O20      1.0000 0.13340  0.64660  0.70600  Biso   1.000  O
  O21      1.0000 0.13370  0.66441  0.45620  Biso   1.000  O
  O22      1.0000 0.10620  0.56083  0.64740  Biso   1.000  O
  O23      1.0000 0.94030  0.56752  0.52110  Biso   1.000  O
  O24      1.0000 0.95540  0.56137  0.20450  Biso   1.000  O
  Cd4      1.0000 0.40744  0.56273  0.53402  Biso   1.000  Cd
  Cd5      1.0000 0.88144  0.06951  0.99306  Biso   1.000  Cd
  C67      1.0000 0.65460  0.06193  0.87500  Biso   1.000  C
  C68      1.0000 0.67810  0.06366  0.69760  Biso   1.000  C
  H49      1.0000 0.67520  0.05300  0.61620  Biso   1.000  H
  H50      1.0000 0.67200  0.07470  0.62680  Biso   1.000  H
  C69      1.0000 0.74030  0.06633  0.63750  Biso   1.000  C
  C70      1.0000 0.73520  0.06900  0.44500  Biso   1.000  C
  H51      1.0000 0.71210  0.06980  0.39670  Biso   1.000  H
  C71      1.0000 0.76440  0.07050  0.32600  Biso   1.000  C
  H52      1.0000 0.76090  0.07230  0.19700  Biso   1.000  H
  C72      1.0000 0.79870  0.06943  0.39680  Biso   1.000  C
  C73      1.0000 0.80390  0.06668  0.58970  Biso   1.000  C
  H53      1.0000 0.82700  0.06590  0.63830  Biso   1.000  H
  C74      1.0000 0.77450  0.06510  0.70970  Biso   1.000  C
  H54      1.0000 0.77800  0.06320  0.83850  Biso   1.000  H
  C75      1.0000 0.83110  0.06798  0.26380  Biso   1.000  C
  C76      1.0000 0.66250  0.04100  0.93900  Biso   1.000  C
  H55      1.0000 0.65370  0.03240  0.84540  Biso   1.000  H
  H56      1.0000 0.68800  0.03910  0.95670  Biso   1.000  H
  C77      1.0000 0.64040  0.02060  0.15400  Biso   1.000  C
  C78      1.0000 0.64580  0.00560  0.03500  Biso   1.000  C
  H57      1.0000 0.65280  0.00750  0.91010  Biso   1.000  H
  C79      1.0000 0.64070  0.98780  0.10200  Biso   1.000  C
  H58      1.0000 0.64430  0.97780  0.02250  Biso   1.000  H
  C80      1.0000 0.63020  0.98504  0.28700  Biso   1.000  C
  C81      1.0000 0.62480  0.00010  0.40700  Biso   1.000  C
  H59      1.0000 0.61780  0.99820  0.53150  Biso   1.000  H
  C82      1.0000 0.62990  0.01780  0.34000  Biso   1.000  C
  H60      1.0000 0.62630  0.02780  0.41950  Biso   1.000  H
  C83      1.0000 0.62530  0.96701  0.36900  Biso   1.000  C
  C84      1.0000 0.66300  0.07352  0.05500  Biso   1.000  C
  H61      1.0000 0.64530  0.07150  0.15380  Biso   1.000  H
  H62      1.0000 0.68670  0.07090  0.10410  Biso   1.000  H
  C85      1.0000 0.65520  0.10430  0.14400  Biso   1.000  C
  C86      1.0000 0.66130  0.10160  0.33400  Biso   1.000  C
  H63      1.0000 0.67030  0.09030  0.37560  Biso   1.000  H
  C87      1.0000 0.65430  0.11530  0.46300  Biso   1.000  C
  H64      1.0000 0.65860  0.11330  0.59060  Biso   1.000  H
  C88      1.0000 0.64090  0.13210  0.40200  Biso   1.000  C
  C89      1.0000 0.63500  0.13480  0.21100  Biso   1.000  C
  H65      1.0000 0.62630  0.14600  0.16870  Biso   1.000  H
  C90      1.0000 0.64170  0.12100  0.08300  Biso   1.000  C
  H66      1.0000 0.63730  0.12300  0.95550  Biso   1.000  H
  C91      1.0000 0.63480  0.14856  0.52600  Biso   1.000  C
  C92      1.0000 0.61400  0.06480  0.82200  Biso   1.000  C
  H67      1.0000 0.59950  0.05720  0.90440  Biso   1.000  H
  H68      1.0000 0.60760  0.07750  0.84550  Biso   1.000  H
  C93      1.0000 0.57070  0.06160  0.58100  Biso   1.000  C
  C94      1.0000 0.54390  0.06930  0.68800  Biso   1.000  C
  H69      1.0000 0.54920  0.07400  0.80710  Biso   1.000  H
  C95      1.0000 0.50930  0.06990  0.62200  Biso   1.000  C
  H70      1.0000 0.49140  0.07510  0.69600  Biso   1.000  H
  C96      1.0000 0.50100  0.06280  0.44600  Biso   1.000  C
  C97      1.0000 0.52800  0.05510  0.33800  Biso   1.000  C
  H71      1.0000 0.52270  0.05030  0.21930  Biso   1.000  H
  C98      1.0000 0.56240  0.05450  0.40400  Biso   1.000  C
  H72      1.0000 0.58040  0.04940  0.32950  Biso   1.000  H
  C99      1.0000 0.46320  0.06310  0.38600  Biso   1.000  C
  O25      1.0000 0.71417  0.06472  0.76720  Biso   1.000  O
  O26      1.0000 0.86160  0.06743  0.31260  Biso   1.000  O
  O27      1.0000 0.82280  0.06945  0.08330  Biso   1.000  O
  O28      1.0000 0.64450  0.03929  0.10500  Biso   1.000  O
  O29      1.0000 0.61730  0.96529  0.53290  Biso   1.000  O
  O30      1.0000 0.62610  0.95312  0.26450  Biso   1.000  O
  O31      1.0000 0.66060  0.09172  0.97780  Biso   1.000  O
  O32      1.0000 0.63340  0.14660  0.70600  Biso   1.000  O
  O33      1.0000 0.63370  0.16441  0.45620  Biso   1.000  O
  O34      1.0000 0.60620  0.06083  0.64740  Biso   1.000  O
  O35      1.0000 0.44030  0.06752  0.52110  Biso   1.000  O
  O36      1.0000 0.45540  0.06137  0.20450  Biso   1.000  O
  Cd6      1.0000 0.90744  0.06273  0.53402  Biso   1.000  Cd
  Cd7      1.0000 0.88144  0.56951  0.49306  Biso   1.000  Cd
  C100     1.0000 0.65460  0.56193  0.37500  Biso   1.000  C
  C101     1.0000 0.67810  0.56366  0.19760  Biso   1.000  C
  H73      1.0000 0.67520  0.55300  0.11620  Biso   1.000  H
  H74      1.0000 0.67200  0.57470  0.12680  Biso   1.000  H
  C102     1.0000 0.74030  0.56633  0.13750  Biso   1.000  C
  C103     1.0000 0.73520  0.56900  0.94500  Biso   1.000  C
  H75      1.0000 0.71210  0.56980  0.89670  Biso   1.000  H
  C104     1.0000 0.76440  0.57050  0.82600  Biso   1.000  C
  H76      1.0000 0.76090  0.57230  0.69700  Biso   1.000  H
  C105     1.0000 0.79870  0.56943  0.89680  Biso   1.000  C
  C106     1.0000 0.80390  0.56668  0.08970  Biso   1.000  C
  H77      1.0000 0.82700  0.56590  0.13830  Biso   1.000  H
  C107     1.0000 0.77450  0.56510  0.20970  Biso   1.000  C
  H78      1.0000 0.77800  0.56320  0.33850  Biso   1.000  H
  C108     1.0000 0.83110  0.56798  0.76380  Biso   1.000  C
  C109     1.0000 0.66250  0.54100  0.43900  Biso   1.000  C
  H79      1.0000 0.65370  0.53240  0.34540  Biso   1.000  H
  H80      1.0000 0.68800  0.53910  0.45670  Biso   1.000  H
  C110     1.0000 0.64040  0.52060  0.65400  Biso   1.000  C
  C111     1.0000 0.64580  0.50560  0.53500  Biso   1.000  C
  H81      1.0000 0.65280  0.50750  0.41010  Biso   1.000  H
  C112     1.0000 0.64070  0.48780  0.60200  Biso   1.000  C
  H82      1.0000 0.64430  0.47780  0.52250  Biso   1.000  H
  C113     1.0000 0.63020  0.48504  0.78700  Biso   1.000  C
  C114     1.0000 0.62480  0.50010  0.90700  Biso   1.000  C
  H83      1.0000 0.61780  0.49820  0.03150  Biso   1.000  H
  C115     1.0000 0.62990  0.51780  0.84000  Biso   1.000  C
  H84      1.0000 0.62630  0.52780  0.91950  Biso   1.000  H
  C116     1.0000 0.62530  0.46701  0.86900  Biso   1.000  C
  C117     1.0000 0.66300  0.57352  0.55500  Biso   1.000  C
  H85      1.0000 0.64530  0.57150  0.65380  Biso   1.000  H
  H86      1.0000 0.68670  0.57090  0.60410  Biso   1.000  H
  C118     1.0000 0.65520  0.60430  0.64400  Biso   1.000  C
  C119     1.0000 0.66130  0.60160  0.83400  Biso   1.000  C
  H87      1.0000 0.67030  0.59030  0.87560  Biso   1.000  H
  C120     1.0000 0.65430  0.61530  0.96300  Biso   1.000  C
  H88      1.0000 0.65860  0.61330  0.09060  Biso   1.000  H
  C121     1.0000 0.64090  0.63210  0.90200  Biso   1.000  C
  C122     1.0000 0.63500  0.63480  0.71100  Biso   1.000  C
  H89      1.0000 0.62630  0.64600  0.66870  Biso   1.000  H
  C123     1.0000 0.64170  0.62100  0.58300  Biso   1.000  C
  H90      1.0000 0.63730  0.62300  0.45550  Biso   1.000  H
  C124     1.0000 0.63480  0.64856  0.02600  Biso   1.000  C
  C125     1.0000 0.61400  0.56480  0.32200  Biso   1.000  C
  H91      1.0000 0.59950  0.55720  0.40440  Biso   1.000  H
  H92      1.0000 0.60760  0.57750  0.34550  Biso   1.000  H
  C126     1.0000 0.57070  0.56160  0.08100  Biso   1.000  C
  C127     1.0000 0.54390  0.56930  0.18800  Biso   1.000  C
  H93      1.0000 0.54920  0.57400  0.30710  Biso   1.000  H
  C128     1.0000 0.50930  0.56990  0.12200  Biso   1.000  C
  H94      1.0000 0.49140  0.57510  0.19600  Biso   1.000  H
  C129     1.0000 0.50100  0.56280  0.94600  Biso   1.000  C
  C130     1.0000 0.52800  0.55510  0.83800  Biso   1.000  C
  H95      1.0000 0.52270  0.55030  0.71930  Biso   1.000  H
  C131     1.0000 0.56240  0.55450  0.90400  Biso   1.000  C
  H96      1.0000 0.58040  0.54940  0.82950  Biso   1.000  H
  C132     1.0000 0.46320  0.56310  0.88600  Biso   1.000  C
  O37      1.0000 0.71417  0.56472  0.26720  Biso   1.000  O
  O38      1.0000 0.86160  0.56743  0.81260  Biso   1.000  O
  O39      1.0000 0.82280  0.56945  0.58330  Biso   1.000  O
  O40      1.0000 0.64450  0.53929  0.60500  Biso   1.000  O
  O41      1.0000 0.61730  0.46529  0.03290  Biso   1.000  O
  O42      1.0000 0.62610  0.45312  0.76450  Biso   1.000  O
  O43      1.0000 0.66060  0.59172  0.47780  Biso   1.000  O
  O44      1.0000 0.63340  0.64660  0.20600  Biso   1.000  O
  O45      1.0000 0.63370  0.66441  0.95620  Biso   1.000  O
  O46      1.0000 0.60620  0.56083  0.14740  Biso   1.000  O
  O47      1.0000 0.44030  0.56752  0.02110  Biso   1.000  O
  O48      1.0000 0.45540  0.56137  0.70450  Biso   1.000  O
  Cd8      1.0000 0.90744  0.56273  0.03402  Biso   1.000  Cd
  Cd9      1.0000 0.61856  0.93049  0.49306  Biso   1.000  Cd
  C133     1.0000 0.84540  0.93807  0.37500  Biso   1.000  C
  C134     1.0000 0.82190  0.93634  0.19760  Biso   1.000  C
  H97      1.0000 0.82480  0.94700  0.11620  Biso   1.000  H
  H98      1.0000 0.82800  0.92530  0.12680  Biso   1.000  H
  C135     1.0000 0.75970  0.93367  0.13750  Biso   1.000  C
  C136     1.0000 0.76480  0.93100  0.94500  Biso   1.000  C
  H99      1.0000 0.78790  0.93020  0.89670  Biso   1.000  H
  C137     1.0000 0.73560  0.92950  0.82600  Biso   1.000  C
  H100     1.0000 0.73910  0.92770  0.69700  Biso   1.000  H
  C138     1.0000 0.70130  0.93057  0.89680  Biso   1.000  C
  C139     1.0000 0.69610  0.93332  0.08970  Biso   1.000  C
  H101     1.0000 0.67300  0.93410  0.13830  Biso   1.000  H
  C140     1.0000 0.72550  0.93490  0.20970  Biso   1.000  C
  H102     1.0000 0.72200  0.93680  0.33850  Biso   1.000  H
  C141     1.0000 0.66890  0.93202  0.76380  Biso   1.000  C
  C142     1.0000 0.83750  0.95900  0.43900  Biso   1.000  C
  H103     1.0000 0.84630  0.96760  0.34540  Biso   1.000  H
  H104     1.0000 0.81200  0.96090  0.45670  Biso   1.000  H
  C143     1.0000 0.85960  0.97940  0.65400  Biso   1.000  C
  C144     1.0000 0.85420  0.99440  0.53500  Biso   1.000  C
  H105     1.0000 0.84720  0.99250  0.41010  Biso   1.000  H
  C145     1.0000 0.85930  0.01220  0.60200  Biso   1.000  C
  H106     1.0000 0.85570  0.02220  0.52250  Biso   1.000  H
  C146     1.0000 0.86980  0.01496  0.78700  Biso   1.000  C
  C147     1.0000 0.87520  0.99990  0.90700  Biso   1.000  C
  H107     1.0000 0.88220  0.00180  0.03150  Biso   1.000  H
  C148     1.0000 0.87010  0.98220  0.84000  Biso   1.000  C
  H108     1.0000 0.87370  0.97220  0.91950  Biso   1.000  H
  C149     1.0000 0.87470  0.03299  0.86900  Biso   1.000  C
  C150     1.0000 0.83700  0.92648  0.55500  Biso   1.000  C
  H109     1.0000 0.85470  0.92850  0.65380  Biso   1.000  H
  H110     1.0000 0.81330  0.92910  0.60410  Biso   1.000  H
  C151     1.0000 0.84480  0.89570  0.64400  Biso   1.000  C
  C152     1.0000 0.83870  0.89840  0.83400  Biso   1.000  C
  H111     1.0000 0.82970  0.90970  0.87560  Biso   1.000  H
  C153     1.0000 0.84570  0.88470  0.96300  Biso   1.000  C
  H112     1.0000 0.84140  0.88670  0.09060  Biso   1.000  H
  C154     1.0000 0.85910  0.86790  0.90200  Biso   1.000  C
  C155     1.0000 0.86500  0.86520  0.71100  Biso   1.000  C
  H113     1.0000 0.87370  0.85400  0.66870  Biso   1.000  H
  C156     1.0000 0.85830  0.87900  0.58300  Biso   1.000  C
  H114     1.0000 0.86270  0.87700  0.45550  Biso   1.000  H
  C157     1.0000 0.86520  0.85144  0.02600  Biso   1.000  C
  C158     1.0000 0.88600  0.93520  0.32200  Biso   1.000  C
  H115     1.0000 0.90050  0.94280  0.40440  Biso   1.000  H
  H116     1.0000 0.89240  0.92250  0.34550  Biso   1.000  H
  C159     1.0000 0.92930  0.93840  0.08100  Biso   1.000  C
  C160     1.0000 0.95610  0.93070  0.18800  Biso   1.000  C
  H117     1.0000 0.95080  0.92600  0.30710  Biso   1.000  H
  C161     1.0000 0.99070  0.93010  0.12200  Biso   1.000  C
  H118     1.0000 0.00860  0.92490  0.19600  Biso   1.000  H
  C162     1.0000 0.99900  0.93720  0.94600  Biso   1.000  C
  C163     1.0000 0.97200  0.94490  0.83800  Biso   1.000  C
  H119     1.0000 0.97730  0.94970  0.71930  Biso   1.000  H
  C164     1.0000 0.93760  0.94550  0.90400  Biso   1.000  C
  H120     1.0000 0.91960  0.95060  0.82950  Biso   1.000  H
  C165     1.0000 0.03680  0.93690  0.88600  Biso   1.000  C
  O49      1.0000 0.78583  0.93528  0.26720  Biso   1.000  O
  O50      1.0000 0.63840  0.93257  0.81260  Biso   1.000  O
  O51      1.0000 0.67720  0.93055  0.58330  Biso   1.000  O
  O52      1.0000 0.85550  0.96071  0.60500  Biso   1.000  O
  O53      1.0000 0.88270  0.03471  0.03290  Biso   1.000  O
  O54      1.0000 0.87390  0.04688  0.76450  Biso   1.000  O
  O55      1.0000 0.83940  0.90828  0.47780  Biso   1.000  O
  O56      1.0000 0.86660  0.85340  0.20600  Biso   1.000  O
  O57      1.0000 0.86630  0.83559  0.95620  Biso   1.000  O
  O58      1.0000 0.89380  0.93917  0.14740  Biso   1.000  O
  O59      1.0000 0.05970  0.93248  0.02110  Biso   1.000  O
  O60      1.0000 0.04460  0.93863  0.70450  Biso   1.000  O
  Cd10     1.0000 0.59256  0.93727  0.03402  Biso   1.000  Cd
  Cd11     1.0000 0.61856  0.43049  0.99306  Biso   1.000  Cd
  C166     1.0000 0.84540  0.43807  0.87500  Biso   1.000  C
  C167     1.0000 0.82190  0.43634  0.69760  Biso   1.000  C
  H121     1.0000 0.82480  0.44700  0.61620  Biso   1.000  H
  H122     1.0000 0.82800  0.42530  0.62680  Biso   1.000  H
  C168     1.0000 0.75970  0.43367  0.63750  Biso   1.000  C
  C169     1.0000 0.76480  0.43100  0.44500  Biso   1.000  C
  H123     1.0000 0.78790  0.43020  0.39670  Biso   1.000  H
  C170     1.0000 0.73560  0.42950  0.32600  Biso   1.000  C
  H124     1.0000 0.73910  0.42770  0.19700  Biso   1.000  H
  C171     1.0000 0.70130  0.43057  0.39680  Biso   1.000  C
  C172     1.0000 0.69610  0.43332  0.58970  Biso   1.000  C
  H125     1.0000 0.67300  0.43410  0.63830  Biso   1.000  H
  C173     1.0000 0.72550  0.43490  0.70970  Biso   1.000  C
  H126     1.0000 0.72200  0.43680  0.83850  Biso   1.000  H
  C174     1.0000 0.66890  0.43202  0.26380  Biso   1.000  C
  C175     1.0000 0.83750  0.45900  0.93900  Biso   1.000  C
  H127     1.0000 0.84630  0.46760  0.84540  Biso   1.000  H
  H128     1.0000 0.81200  0.46090  0.95670  Biso   1.000  H
  C176     1.0000 0.85960  0.47940  0.15400  Biso   1.000  C
  C177     1.0000 0.85420  0.49440  0.03500  Biso   1.000  C
  H129     1.0000 0.84720  0.49250  0.91010  Biso   1.000  H
  C178     1.0000 0.85930  0.51220  0.10200  Biso   1.000  C
  H130     1.0000 0.85570  0.52220  0.02250  Biso   1.000  H
  C179     1.0000 0.86980  0.51496  0.28700  Biso   1.000  C
  C180     1.0000 0.87520  0.49990  0.40700  Biso   1.000  C
  H131     1.0000 0.88220  0.50180  0.53150  Biso   1.000  H
  C181     1.0000 0.87010  0.48220  0.34000  Biso   1.000  C
  H132     1.0000 0.87370  0.47220  0.41950  Biso   1.000  H
  C182     1.0000 0.87470  0.53299  0.36900  Biso   1.000  C
  C183     1.0000 0.83700  0.42648  0.05500  Biso   1.000  C
  H133     1.0000 0.85470  0.42850  0.15380  Biso   1.000  H
  H134     1.0000 0.81330  0.42910  0.10410  Biso   1.000  H
  C184     1.0000 0.84480  0.39570  0.14400  Biso   1.000  C
  C185     1.0000 0.83870  0.39840  0.33400  Biso   1.000  C
  H135     1.0000 0.82970  0.40970  0.37560  Biso   1.000  H
  C186     1.0000 0.84570  0.38470  0.46300  Biso   1.000  C
  H136     1.0000 0.84140  0.38670  0.59060  Biso   1.000  H
  C187     1.0000 0.85910  0.36790  0.40200  Biso   1.000  C
  C188     1.0000 0.86500  0.36520  0.21100  Biso   1.000  C
  H137     1.0000 0.87370  0.35400  0.16870  Biso   1.000  H
  C189     1.0000 0.85830  0.37900  0.08300  Biso   1.000  C
  H138     1.0000 0.86270  0.37700  0.95550  Biso   1.000  H
  C190     1.0000 0.86520  0.35144  0.52600  Biso   1.000  C
  C191     1.0000 0.88600  0.43520  0.82200  Biso   1.000  C
  H139     1.0000 0.90050  0.44280  0.90440  Biso   1.000  H
  H140     1.0000 0.89240  0.42250  0.84550  Biso   1.000  H
  C192     1.0000 0.92930  0.43840  0.58100  Biso   1.000  C
  C193     1.0000 0.95610  0.43070  0.68800  Biso   1.000  C
  H141     1.0000 0.95080  0.42600  0.80710  Biso   1.000  H
  C194     1.0000 0.99070  0.43010  0.62200  Biso   1.000  C
  H142     1.0000 0.00860  0.42490  0.69600  Biso   1.000  H
  C195     1.0000 0.99900  0.43720  0.44600  Biso   1.000  C
  C196     1.0000 0.97200  0.44490  0.33800  Biso   1.000  C
  H143     1.0000 0.97730  0.44970  0.21930  Biso   1.000  H
  C197     1.0000 0.93760  0.44550  0.40400  Biso   1.000  C
  H144     1.0000 0.91960  0.45060  0.32950  Biso   1.000  H
  C198     1.0000 0.03680  0.43690  0.38600  Biso   1.000  C
  O61      1.0000 0.78583  0.43528  0.76720  Biso   1.000  O
  O62      1.0000 0.63840  0.43257  0.31260  Biso   1.000  O
  O63      1.0000 0.67720  0.43055  0.08330  Biso   1.000  O
  O64      1.0000 0.85550  0.46071  0.10500  Biso   1.000  O
  O65      1.0000 0.88270  0.53471  0.53290  Biso   1.000  O
  O66      1.0000 0.87390  0.54688  0.26450  Biso   1.000  O
  O67      1.0000 0.83940  0.40828  0.97780  Biso   1.000  O
  O68      1.0000 0.86660  0.35340  0.70600  Biso   1.000  O
  O69      1.0000 0.86630  0.33559  0.45620  Biso   1.000  O
  O70      1.0000 0.89380  0.43917  0.64740  Biso   1.000  O
  O71      1.0000 0.05970  0.43248  0.52110  Biso   1.000  O
  O72      1.0000 0.04460  0.43863  0.20450  Biso   1.000  O
  Cd12     1.0000 0.59256  0.43727  0.53402  Biso   1.000  Cd
  Cd13     1.0000 0.11856  0.93049  0.99306  Biso   1.000  Cd
  C199     1.0000 0.34540  0.93807  0.87500  Biso   1.000  C
  C200     1.0000 0.32190  0.93634  0.69760  Biso   1.000  C
  H145     1.0000 0.32480  0.94700  0.61620  Biso   1.000  H
  H146     1.0000 0.32800  0.92530  0.62680  Biso   1.000  H
  C201     1.0000 0.25970  0.93367  0.63750  Biso   1.000  C
  C202     1.0000 0.26480  0.93100  0.44500  Biso   1.000  C
  H147     1.0000 0.28790  0.93020  0.39670  Biso   1.000  H
  C203     1.0000 0.23560  0.92950  0.32600  Biso   1.000  C
  H148     1.0000 0.23910  0.92770  0.19700  Biso   1.000  H
  C204     1.0000 0.20130  0.93057  0.39680  Biso   1.000  C
  C205     1.0000 0.19610  0.93332  0.58970  Biso   1.000  C
  H149     1.0000 0.17300  0.93410  0.63830  Biso   1.000  H
  C206     1.0000 0.22550  0.93490  0.70970  Biso   1.000  C
  H150     1.0000 0.22200  0.93680  0.83850  Biso   1.000  H
  C207     1.0000 0.16890  0.93202  0.26380  Biso   1.000  C
  C208     1.0000 0.33750  0.95900  0.93900  Biso   1.000  C
  H151     1.0000 0.34630  0.96760  0.84540  Biso   1.000  H
  H152     1.0000 0.31200  0.96090  0.95670  Biso   1.000  H
  C209     1.0000 0.35960  0.97940  0.15400  Biso   1.000  C
  C210     1.0000 0.35420  0.99440  0.03500  Biso   1.000  C
  H153     1.0000 0.34720  0.99250  0.91010  Biso   1.000  H
  C211     1.0000 0.35930  0.01220  0.10200  Biso   1.000  C
  H154     1.0000 0.35570  0.02220  0.02250  Biso   1.000  H
  C212     1.0000 0.36980  0.01496  0.28700  Biso   1.000  C
  C213     1.0000 0.37520  0.99990  0.40700  Biso   1.000  C
  H155     1.0000 0.38220  0.00180  0.53150  Biso   1.000  H
  C214     1.0000 0.37010  0.98220  0.34000  Biso   1.000  C
  H156     1.0000 0.37370  0.97220  0.41950  Biso   1.000  H
  C215     1.0000 0.37470  0.03299  0.36900  Biso   1.000  C
  C216     1.0000 0.33700  0.92648  0.05500  Biso   1.000  C
  H157     1.0000 0.35470  0.92850  0.15380  Biso   1.000  H
  H158     1.0000 0.31330  0.92910  0.10410  Biso   1.000  H
  C217     1.0000 0.34480  0.89570  0.14400  Biso   1.000  C
  C218     1.0000 0.33870  0.89840  0.33400  Biso   1.000  C
  H159     1.0000 0.32970  0.90970  0.37560  Biso   1.000  H
  C219     1.0000 0.34570  0.88470  0.46300  Biso   1.000  C
  H160     1.0000 0.34140  0.88670  0.59060  Biso   1.000  H
  C220     1.0000 0.35910  0.86790  0.40200  Biso   1.000  C
  C221     1.0000 0.36500  0.86520  0.21100  Biso   1.000  C
  H161     1.0000 0.37370  0.85400  0.16870  Biso   1.000  H
  C222     1.0000 0.35830  0.87900  0.08300  Biso   1.000  C
  H162     1.0000 0.36270  0.87700  0.95550  Biso   1.000  H
  C223     1.0000 0.36520  0.85144  0.52600  Biso   1.000  C
  C224     1.0000 0.38600  0.93520  0.82200  Biso   1.000  C
  H163     1.0000 0.40050  0.94280  0.90440  Biso   1.000  H
  H164     1.0000 0.39240  0.92250  0.84550  Biso   1.000  H
  C225     1.0000 0.42930  0.93840  0.58100  Biso   1.000  C
  C226     1.0000 0.45610  0.93070  0.68800  Biso   1.000  C
  H165     1.0000 0.45080  0.92600  0.80710  Biso   1.000  H
  C227     1.0000 0.49070  0.93010  0.62200  Biso   1.000  C
  H166     1.0000 0.50860  0.92490  0.69600  Biso   1.000  H
  C228     1.0000 0.49900  0.93720  0.44600  Biso   1.000  C
  C229     1.0000 0.47200  0.94490  0.33800  Biso   1.000  C
  H167     1.0000 0.47730  0.94970  0.21930  Biso   1.000  H
  C230     1.0000 0.43760  0.94550  0.40400  Biso   1.000  C
  H168     1.0000 0.41960  0.95060  0.32950  Biso   1.000  H
  C231     1.0000 0.53680  0.93690  0.38600  Biso   1.000  C
  O73      1.0000 0.28583  0.93528  0.76720  Biso   1.000  O
  O74      1.0000 0.13840  0.93257  0.31260  Biso   1.000  O
  O75      1.0000 0.17720  0.93055  0.08330  Biso   1.000  O
  O76      1.0000 0.35550  0.96071  0.10500  Biso   1.000  O
  O77      1.0000 0.38270  0.03471  0.53290  Biso   1.000  O
  O78      1.0000 0.37390  0.04688  0.26450  Biso   1.000  O
  O79      1.0000 0.33940  0.90828  0.97780  Biso   1.000  O
  O80      1.0000 0.36660  0.85340  0.70600  Biso   1.000  O
  O81      1.0000 0.36630  0.83559  0.45620  Biso   1.000  O
  O82      1.0000 0.39380  0.93917  0.64740  Biso   1.000  O
  O83      1.0000 0.55970  0.93248  0.52110  Biso   1.000  O
  O84      1.0000 0.54460  0.93863  0.20450  Biso   1.000  O
  Cd14     1.0000 0.09256  0.93727  0.53402  Biso   1.000  Cd
  Cd15     1.0000 0.11856  0.43049  0.49306  Biso   1.000  Cd
  C232     1.0000 0.34540  0.43807  0.37500  Biso   1.000  C
  C233     1.0000 0.32190  0.43634  0.19760  Biso   1.000  C
  H169     1.0000 0.32480  0.44700  0.11620  Biso   1.000  H
  H170     1.0000 0.32800  0.42530  0.12680  Biso   1.000  H
  C234     1.0000 0.25970  0.43367  0.13750  Biso   1.000  C
  C235     1.0000 0.26480  0.43100  0.94500  Biso   1.000  C
  H171     1.0000 0.28790  0.43020  0.89670  Biso   1.000  H
  C236     1.0000 0.23560  0.42950  0.82600  Biso   1.000  C
  H172     1.0000 0.23910  0.42770  0.69700  Biso   1.000  H
  C237     1.0000 0.20130  0.43057  0.89680  Biso   1.000  C
  C238     1.0000 0.19610  0.43332  0.08970  Biso   1.000  C
  H173     1.0000 0.17300  0.43410  0.13830  Biso   1.000  H
  C239     1.0000 0.22550  0.43490  0.20970  Biso   1.000  C
  H174     1.0000 0.22200  0.43680  0.33850  Biso   1.000  H
  C240     1.0000 0.16890  0.43202  0.76380  Biso   1.000  C
  C241     1.0000 0.33750  0.45900  0.43900  Biso   1.000  C
  H175     1.0000 0.34630  0.46760  0.34540  Biso   1.000  H
  H176     1.0000 0.31200  0.46090  0.45670  Biso   1.000  H
  C242     1.0000 0.35960  0.47940  0.65400  Biso   1.000  C
  C243     1.0000 0.35420  0.49440  0.53500  Biso   1.000  C
  H177     1.0000 0.34720  0.49250  0.41010  Biso   1.000  H
  C244     1.0000 0.35930  0.51220  0.60200  Biso   1.000  C
  H178     1.0000 0.35570  0.52220  0.52250  Biso   1.000  H
  C245     1.0000 0.36980  0.51496  0.78700  Biso   1.000  C
  C246     1.0000 0.37520  0.49990  0.90700  Biso   1.000  C
  H179     1.0000 0.38220  0.50180  0.03150  Biso   1.000  H
  C247     1.0000 0.37010  0.48220  0.84000  Biso   1.000  C
  H180     1.0000 0.37370  0.47220  0.91950  Biso   1.000  H
  C248     1.0000 0.37470  0.53299  0.86900  Biso   1.000  C
  C249     1.0000 0.33700  0.42648  0.55500  Biso   1.000  C
  H181     1.0000 0.35470  0.42850  0.65380  Biso   1.000  H
  H182     1.0000 0.31330  0.42910  0.60410  Biso   1.000  H
  C250     1.0000 0.34480  0.39570  0.64400  Biso   1.000  C
  C251     1.0000 0.33870  0.39840  0.83400  Biso   1.000  C
  H183     1.0000 0.32970  0.40970  0.87560  Biso   1.000  H
  C252     1.0000 0.34570  0.38470  0.96300  Biso   1.000  C
  H184     1.0000 0.34140  0.38670  0.09060  Biso   1.000  H
  C253     1.0000 0.35910  0.36790  0.90200  Biso   1.000  C
  C254     1.0000 0.36500  0.36520  0.71100  Biso   1.000  C
  H185     1.0000 0.37370  0.35400  0.66870  Biso   1.000  H
  C255     1.0000 0.35830  0.37900  0.58300  Biso   1.000  C
  H186     1.0000 0.36270  0.37700  0.45550  Biso   1.000  H
  C256     1.0000 0.36520  0.35144  0.02600  Biso   1.000  C
  C257     1.0000 0.38600  0.43520  0.32200  Biso   1.000  C
  H187     1.0000 0.40050  0.44280  0.40440  Biso   1.000  H
  H188     1.0000 0.39240  0.42250  0.34550  Biso   1.000  H
  C258     1.0000 0.42930  0.43840  0.08100  Biso   1.000  C
  C259     1.0000 0.45610  0.43070  0.18800  Biso   1.000  C
  H189     1.0000 0.45080  0.42600  0.30710  Biso   1.000  H
  C260     1.0000 0.49070  0.43010  0.12200  Biso   1.000  C
  H190     1.0000 0.50860  0.42490  0.19600  Biso   1.000  H
  C261     1.0000 0.49900  0.43720  0.94600  Biso   1.000  C
  C262     1.0000 0.47200  0.44490  0.83800  Biso   1.000  C
  H191     1.0000 0.47730  0.44970  0.71930  Biso   1.000  H
  C263     1.0000 0.43760  0.44550  0.90400  Biso   1.000  C
  H192     1.0000 0.41960  0.45060  0.82950  Biso   1.000  H
  C264     1.0000 0.53680  0.43690  0.88600  Biso   1.000  C
  O85      1.0000 0.28583  0.43528  0.26720  Biso   1.000  O
  O86      1.0000 0.13840  0.43257  0.81260  Biso   1.000  O
  O87      1.0000 0.17720  0.43055  0.58330  Biso   1.000  O
  O88      1.0000 0.35550  0.46071  0.60500  Biso   1.000  O
  O89      1.0000 0.38270  0.53471  0.03290  Biso   1.000  O
  O90      1.0000 0.37390  0.54688  0.76450  Biso   1.000  O
  O91      1.0000 0.33940  0.40828  0.47780  Biso   1.000  O
  O92      1.0000 0.36660  0.35340  0.20600  Biso   1.000  O
  O93      1.0000 0.36630  0.33559  0.95620  Biso   1.000  O
  O94      1.0000 0.39380  0.43917  0.14740  Biso   1.000  O
  O95      1.0000 0.55970  0.43248  0.02110  Biso   1.000  O
  O96      1.0000 0.54460  0.43863  0.70450  Biso   1.000  O
  Cd16     1.0000 0.09256  0.43727  0.03402  Biso   1.000  Cd
  Cd17     1.0000 0.63144  0.18049  0.74306  Biso   1.000  Cd
  C265     1.0000 0.40460  0.18807  0.62500  Biso   1.000  C
  C266     1.0000 0.42810  0.18634  0.44760  Biso   1.000  C
  H193     1.0000 0.42520  0.19700  0.36620  Biso   1.000  H
  H194     1.0000 0.42200  0.17530  0.37680  Biso   1.000  H
  C267     1.0000 0.49030  0.18367  0.38750  Biso   1.000  C
  C268     1.0000 0.48520  0.18100  0.19500  Biso   1.000  C
  H195     1.0000 0.46210  0.18020  0.14670  Biso   1.000  H
  C269     1.0000 0.51440  0.17950  0.07600  Biso   1.000  C
  H196     1.0000 0.51090  0.17770  0.94700  Biso   1.000  H
  C270     1.0000 0.54870  0.18057  0.14680  Biso   1.000  C
  C271     1.0000 0.55390  0.18332  0.33970  Biso   1.000  C
  H197     1.0000 0.57700  0.18410  0.38830  Biso   1.000  H
  C272     1.0000 0.52450  0.18490  0.45970  Biso   1.000  C
  H198     1.0000 0.52800  0.18680  0.58850  Biso   1.000  H
  C273     1.0000 0.58110  0.18202  0.01380  Biso   1.000  C
  C274     1.0000 0.41250  0.20900  0.68900  Biso   1.000  C
  H199     1.0000 0.40370  0.21760  0.59540  Biso   1.000  H
  H200     1.0000 0.43800  0.21090  0.70670  Biso   1.000  H
  C275     1.0000 0.39040  0.22940  0.90400  Biso   1.000  C
  C276     1.0000 0.39580  0.24440  0.78500  Biso   1.000  C
  H201     1.0000 0.40280  0.24250  0.66010  Biso   1.000  H
  C277     1.0000 0.39070  0.26220  0.85200  Biso   1.000  C
  H202     1.0000 0.39430  0.27220  0.77250  Biso   1.000  H
  C278     1.0000 0.38020  0.26496  0.03700  Biso   1.000  C
  C279     1.0000 0.37480  0.24990  0.15700  Biso   1.000  C
  H203     1.0000 0.36780  0.25180  0.28150  Biso   1.000  H
  C280     1.0000 0.37990  0.23220  0.09000  Biso   1.000  C
  H204     1.0000 0.37630  0.22220  0.16950  Biso   1.000  H
  C281     1.0000 0.37530  0.28299  0.11900  Biso   1.000  C
  C282     1.0000 0.41300  0.17648  0.80500  Biso   1.000  C
  H205     1.0000 0.39530  0.17850  0.90380  Biso   1.000  H
  H206     1.0000 0.43670  0.17910  0.85410  Biso   1.000  H
  C283     1.0000 0.40520  0.14570  0.89400  Biso   1.000  C
  C284     1.0000 0.41130  0.14840  0.08400  Biso   1.000  C
  H207     1.0000 0.42030  0.15970  0.12560  Biso   1.000  H
  C285     1.0000 0.40430  0.13470  0.21300  Biso   1.000  C
  H208     1.0000 0.40860  0.13670  0.34060  Biso   1.000  H
  C286     1.0000 0.39090  0.11790  0.15200  Biso   1.000  C
  C287     1.0000 0.38500  0.11520  0.96100  Biso   1.000  C
  H209     1.0000 0.37630  0.10400  0.91870  Biso   1.000  H
  C288     1.0000 0.39170  0.12900  0.83300  Biso   1.000  C
  H210     1.0000 0.38730  0.12700  0.70550  Biso   1.000  H
  C289     1.0000 0.38480  0.10144  0.27600  Biso   1.000  C
  C290     1.0000 0.36400  0.18520  0.57200  Biso   1.000  C
  H211     1.0000 0.34950  0.19280  0.65440  Biso   1.000  H
  H212     1.0000 0.35760  0.17250  0.59550  Biso   1.000  H
  C291     1.0000 0.32070  0.18840  0.33100  Biso   1.000  C
  C292     1.0000 0.29390  0.18070  0.43800  Biso   1.000  C
  H213     1.0000 0.29920  0.17600  0.55710  Biso   1.000  H
  C293     1.0000 0.25930  0.18010  0.37200  Biso   1.000  C
  H214     1.0000 0.24140  0.17490  0.44600  Biso   1.000  H
  C294     1.0000 0.25100  0.18720  0.19600  Biso   1.000  C
  C295     1.0000 0.27800  0.19490  0.08800  Biso   1.000  C
  H215     1.0000 0.27270  0.19970  0.96930  Biso   1.000  H
  C296     1.0000 0.31240  0.19550  0.15400  Biso   1.000  C
  H216     1.0000 0.33040  0.20060  0.07950  Biso   1.000  H
  C297     1.0000 0.21320  0.18690  0.13600  Biso   1.000  C
  O97      1.0000 0.46417  0.18528  0.51720  Biso   1.000  O
  O98      1.0000 0.61160  0.18257  0.06260  Biso   1.000  O
  O99      1.0000 0.57280  0.18055  0.83330  Biso   1.000  O
  O100     1.0000 0.39450  0.21071  0.85500  Biso   1.000  O
  O101     1.0000 0.36730  0.28471  0.28290  Biso   1.000  O
  O102     1.0000 0.37610  0.29688  0.01450  Biso   1.000  O
  O103     1.0000 0.41060  0.15828  0.72780  Biso   1.000  O
  O104     1.0000 0.38340  0.10340  0.45600  Biso   1.000  O
  O105     1.0000 0.38370  0.08559  0.20620  Biso   1.000  O
  O106     1.0000 0.35620  0.18917  0.39740  Biso   1.000  O
  O107     1.0000 0.19030  0.18248  0.27110  Biso   1.000  O
  O108     1.0000 0.20540  0.18863  0.95450  Biso   1.000  O
  Cd18     1.0000 0.65744  0.18727  0.28402  Biso   1.000  Cd
  Cd19     1.0000 0.63144  0.68049  0.24306  Biso   1.000  Cd
  C298     1.0000 0.40460  0.68807  0.12500  Biso   1.000  C
  C299     1.0000 0.42810  0.68634  0.94760  Biso   1.000  C
  H217     1.0000 0.42520  0.69700  0.86620  Biso   1.000  H
  H218     1.0000 0.42200  0.67530  0.87680  Biso   1.000  H
  C300     1.0000 0.49030  0.68367  0.88750  Biso   1.000  C
  C301     1.0000 0.48520  0.68100  0.69500  Biso   1.000  C
  H219     1.0000 0.46210  0.68020  0.64670  Biso   1.000  H
  C302     1.0000 0.51440  0.67950  0.57600  Biso   1.000  C
  H220     1.0000 0.51090  0.67770  0.44700  Biso   1.000  H
  C303     1.0000 0.54870  0.68057  0.64680  Biso   1.000  C
  C304     1.0000 0.55390  0.68332  0.83970  Biso   1.000  C
  H221     1.0000 0.57700  0.68410  0.88830  Biso   1.000  H
  C305     1.0000 0.52450  0.68490  0.95970  Biso   1.000  C
  H222     1.0000 0.52800  0.68680  0.08850  Biso   1.000  H
  C306     1.0000 0.58110  0.68202  0.51380  Biso   1.000  C
  C307     1.0000 0.41250  0.70900  0.18900  Biso   1.000  C
  H223     1.0000 0.40370  0.71760  0.09540  Biso   1.000  H
  H224     1.0000 0.43800  0.71090  0.20670  Biso   1.000  H
  C308     1.0000 0.39040  0.72940  0.40400  Biso   1.000  C
  C309     1.0000 0.39580  0.74440  0.28500  Biso   1.000  C
  H225     1.0000 0.40280  0.74250  0.16010  Biso   1.000  H
  C310     1.0000 0.39070  0.76220  0.35200  Biso   1.000  C
  H226     1.0000 0.39430  0.77220  0.27250  Biso   1.000  H
  C311     1.0000 0.38020  0.76496  0.53700  Biso   1.000  C
  C312     1.0000 0.37480  0.74990  0.65700  Biso   1.000  C
  H227     1.0000 0.36780  0.75180  0.78150  Biso   1.000  H
  C313     1.0000 0.37990  0.73220  0.59000  Biso   1.000  C
  H228     1.0000 0.37630  0.72220  0.66950  Biso   1.000  H
  C314     1.0000 0.37530  0.78299  0.61900  Biso   1.000  C
  C315     1.0000 0.41300  0.67648  0.30500  Biso   1.000  C
  H229     1.0000 0.39530  0.67850  0.40380  Biso   1.000  H
  H230     1.0000 0.43670  0.67910  0.35410  Biso   1.000  H
  C316     1.0000 0.40520  0.64570  0.39400  Biso   1.000  C
  C317     1.0000 0.41130  0.64840  0.58400  Biso   1.000  C
  H231     1.0000 0.42030  0.65970  0.62560  Biso   1.000  H
  C318     1.0000 0.40430  0.63470  0.71300  Biso   1.000  C
  H232     1.0000 0.40860  0.63670  0.84060  Biso   1.000  H
  C319     1.0000 0.39090  0.61790  0.65200  Biso   1.000  C
  C320     1.0000 0.38500  0.61520  0.46100  Biso   1.000  C
  H233     1.0000 0.37630  0.60400  0.41870  Biso   1.000  H
  C321     1.0000 0.39170  0.62900  0.33300  Biso   1.000  C
  H234     1.0000 0.38730  0.62700  0.20550  Biso   1.000  H
  C322     1.0000 0.38480  0.60144  0.77600  Biso   1.000  C
  C323     1.0000 0.36400  0.68520  0.07200  Biso   1.000  C
  H235     1.0000 0.34950  0.69280  0.15440  Biso   1.000  H
  H236     1.0000 0.35760  0.67250  0.09550  Biso   1.000  H
  C324     1.0000 0.32070  0.68840  0.83100  Biso   1.000  C
  C325     1.0000 0.29390  0.68070  0.93800  Biso   1.000  C
  H237     1.0000 0.29920  0.67600  0.05710  Biso   1.000  H
  C326     1.0000 0.25930  0.68010  0.87200  Biso   1.000  C
  H238     1.0000 0.24140  0.67490  0.94600  Biso   1.000  H
  C327     1.0000 0.25100  0.68720  0.69600  Biso   1.000  C
  C328     1.0000 0.27800  0.69490  0.58800  Biso   1.000  C
  H239     1.0000 0.27270  0.69970  0.46930  Biso   1.000  H
  C329     1.0000 0.31240  0.69550  0.65400  Biso   1.000  C
  H240     1.0000 0.33040  0.70060  0.57950  Biso   1.000  H
  C330     1.0000 0.21320  0.68690  0.63600  Biso   1.000  C
  O109     1.0000 0.46417  0.68528  0.01720  Biso   1.000  O
  O110     1.0000 0.61160  0.68257  0.56260  Biso   1.000  O
  O111     1.0000 0.57280  0.68055  0.33330  Biso   1.000  O
  O112     1.0000 0.39450  0.71071  0.35500  Biso   1.000  O
  O113     1.0000 0.36730  0.78471  0.78290  Biso   1.000  O
  O114     1.0000 0.37610  0.79688  0.51450  Biso   1.000  O
  O115     1.0000 0.41060  0.65828  0.22780  Biso   1.000  O
  O116     1.0000 0.38340  0.60340  0.95600  Biso   1.000  O
  O117     1.0000 0.38370  0.58559  0.70620  Biso   1.000  O
  O118     1.0000 0.35620  0.68917  0.89740  Biso   1.000  O
  O119     1.0000 0.19030  0.68248  0.77110  Biso   1.000  O
  O120     1.0000 0.20540  0.68863  0.45450  Biso   1.000  O
  Cd20     1.0000 0.65744  0.68727  0.78402  Biso   1.000  Cd
  Cd21     1.0000 0.13144  0.18049  0.24306  Biso   1.000  Cd
  C331     1.0000 0.90460  0.18807  0.12500  Biso   1.000  C
  C332     1.0000 0.92810  0.18634  0.94760  Biso   1.000  C
  H241     1.0000 0.92520  0.19700  0.86620  Biso   1.000  H
  H242     1.0000 0.92200  0.17530  0.87680  Biso   1.000  H
  C333     1.0000 0.99030  0.18367  0.88750  Biso   1.000  C
  C334     1.0000 0.98520  0.18100  0.69500  Biso   1.000  C
  H243     1.0000 0.96210  0.18020  0.64670  Biso   1.000  H
  C335     1.0000 0.01440  0.17950  0.57600  Biso   1.000  C
  H244     1.0000 0.01090  0.17770  0.44700  Biso   1.000  H
  C336     1.0000 0.04870  0.18057  0.64680  Biso   1.000  C
  C337     1.0000 0.05390  0.18332  0.83970  Biso   1.000  C
  H245     1.0000 0.07700  0.18410  0.88830  Biso   1.000  H
  C338     1.0000 0.02450  0.18490  0.95970  Biso   1.000  C
  H246     1.0000 0.02800  0.18680  0.08850  Biso   1.000  H
  C339     1.0000 0.08110  0.18202  0.51380  Biso   1.000  C
  C340     1.0000 0.91250  0.20900  0.18900  Biso   1.000  C
  H247     1.0000 0.90370  0.21760  0.09540  Biso   1.000  H
  H248     1.0000 0.93800  0.21090  0.20670  Biso   1.000  H
  C341     1.0000 0.89040  0.22940  0.40400  Biso   1.000  C
  C342     1.0000 0.89580  0.24440  0.28500  Biso   1.000  C
  H249     1.0000 0.90280  0.24250  0.16010  Biso   1.000  H
  C343     1.0000 0.89070  0.26220  0.35200  Biso   1.000  C
  H250     1.0000 0.89430  0.27220  0.27250  Biso   1.000  H
  C344     1.0000 0.88020  0.26496  0.53700  Biso   1.000  C
  C345     1.0000 0.87480  0.24990  0.65700  Biso   1.000  C
  H251     1.0000 0.86780  0.25180  0.78150  Biso   1.000  H
  C346     1.0000 0.87990  0.23220  0.59000  Biso   1.000  C
  H252     1.0000 0.87630  0.22220  0.66950  Biso   1.000  H
  C347     1.0000 0.87530  0.28299  0.61900  Biso   1.000  C
  C348     1.0000 0.91300  0.17648  0.30500  Biso   1.000  C
  H253     1.0000 0.89530  0.17850  0.40380  Biso   1.000  H
  H254     1.0000 0.93670  0.17910  0.35410  Biso   1.000  H
  C349     1.0000 0.90520  0.14570  0.39400  Biso   1.000  C
  C350     1.0000 0.91130  0.14840  0.58400  Biso   1.000  C
  H255     1.0000 0.92030  0.15970  0.62560  Biso   1.000  H
  C351     1.0000 0.90430  0.13470  0.71300  Biso   1.000  C
  H256     1.0000 0.90860  0.13670  0.84060  Biso   1.000  H
  C352     1.0000 0.89090  0.11790  0.65200  Biso   1.000  C
  C353     1.0000 0.88500  0.11520  0.46100  Biso   1.000  C
  H257     1.0000 0.87630  0.10400  0.41870  Biso   1.000  H
  C354     1.0000 0.89170  0.12900  0.33300  Biso   1.000  C
  H258     1.0000 0.88730  0.12700  0.20550  Biso   1.000  H
  C355     1.0000 0.88480  0.10144  0.77600  Biso   1.000  C
  C356     1.0000 0.86400  0.18520  0.07200  Biso   1.000  C
  H259     1.0000 0.84950  0.19280  0.15440  Biso   1.000  H
  H260     1.0000 0.85760  0.17250  0.09550  Biso   1.000  H
  C357     1.0000 0.82070  0.18840  0.83100  Biso   1.000  C
  C358     1.0000 0.79390  0.18070  0.93800  Biso   1.000  C
  H261     1.0000 0.79920  0.17600  0.05710  Biso   1.000  H
  C359     1.0000 0.75930  0.18010  0.87200  Biso   1.000  C
  H262     1.0000 0.74140  0.17490  0.94600  Biso   1.000  H
  C360     1.0000 0.75100  0.18720  0.69600  Biso   1.000  C
  C361     1.0000 0.77800  0.19490  0.58800  Biso   1.000  C
  H263     1.0000 0.77270  0.19970  0.46930  Biso   1.000  H
  C362     1.0000 0.81240  0.19550  0.65400  Biso   1.000  C
  H264     1.0000 0.83040  0.20060  0.57950  Biso   1.000  H
  C363     1.0000 0.71320  0.18690  0.63600  Biso   1.000  C
  O121     1.0000 0.96417  0.18528  0.01720  Biso   1.000  O
  O122     1.0000 0.11160  0.18257  0.56260  Biso   1.000  O
  O123     1.0000 0.07280  0.18055  0.33330  Biso   1.000  O
  O124     1.0000 0.89450  0.21071  0.35500  Biso   1.000  O
  O125     1.0000 0.86730  0.28471  0.78290  Biso   1.000  O
  O126     1.0000 0.87610  0.29688  0.51450  Biso   1.000  O
  O127     1.0000 0.91060  0.15828  0.22780  Biso   1.000  O
  O128     1.0000 0.88340  0.10340  0.95600  Biso   1.000  O
  O129     1.0000 0.88370  0.08559  0.70620  Biso   1.000  O
  O130     1.0000 0.85620  0.18917  0.89740  Biso   1.000  O
  O131     1.0000 0.69030  0.18248  0.77110  Biso   1.000  O
  O132     1.0000 0.70540  0.18863  0.45450  Biso   1.000  O
  Cd22     1.0000 0.15744  0.18727  0.78402  Biso   1.000  Cd
  Cd23     1.0000 0.13144  0.68049  0.74306  Biso   1.000  Cd
  C364     1.0000 0.90460  0.68807  0.62500  Biso   1.000  C
  C365     1.0000 0.92810  0.68634  0.44760  Biso   1.000  C
  H265     1.0000 0.92520  0.69700  0.36620  Biso   1.000  H
  H266     1.0000 0.92200  0.67530  0.37680  Biso   1.000  H
  C366     1.0000 0.99030  0.68367  0.38750  Biso   1.000  C
  C367     1.0000 0.98520  0.68100  0.19500  Biso   1.000  C
  H267     1.0000 0.96210  0.68020  0.14670  Biso   1.000  H
  C368     1.0000 0.01440  0.67950  0.07600  Biso   1.000  C
  H268     1.0000 0.01090  0.67770  0.94700  Biso   1.000  H
  C369     1.0000 0.04870  0.68057  0.14680  Biso   1.000  C
  C370     1.0000 0.05390  0.68332  0.33970  Biso   1.000  C
  H269     1.0000 0.07700  0.68410  0.38830  Biso   1.000  H
  C371     1.0000 0.02450  0.68490  0.45970  Biso   1.000  C
  H270     1.0000 0.02800  0.68680  0.58850  Biso   1.000  H
  C372     1.0000 0.08110  0.68202  0.01380  Biso   1.000  C
  C373     1.0000 0.91250  0.70900  0.68900  Biso   1.000  C
  H271     1.0000 0.90370  0.71760  0.59540  Biso   1.000  H
  H272     1.0000 0.93800  0.71090  0.70670  Biso   1.000  H
  C374     1.0000 0.89040  0.72940  0.90400  Biso   1.000  C
  C375     1.0000 0.89580  0.74440  0.78500  Biso   1.000  C
  H273     1.0000 0.90280  0.74250  0.66010  Biso   1.000  H
  C376     1.0000 0.89070  0.76220  0.85200  Biso   1.000  C
  H274     1.0000 0.89430  0.77220  0.77250  Biso   1.000  H
  C377     1.0000 0.88020  0.76496  0.03700  Biso   1.000  C
  C378     1.0000 0.87480  0.74990  0.15700  Biso   1.000  C
  H275     1.0000 0.86780  0.75180  0.28150  Biso   1.000  H
  C379     1.0000 0.87990  0.73220  0.09000  Biso   1.000  C
  H276     1.0000 0.87630  0.72220  0.16950  Biso   1.000  H
  C380     1.0000 0.87530  0.78299  0.11900  Biso   1.000  C
  C381     1.0000 0.91300  0.67648  0.80500  Biso   1.000  C
  H277     1.0000 0.89530  0.67850  0.90380  Biso   1.000  H
  H278     1.0000 0.93670  0.67910  0.85410  Biso   1.000  H
  C382     1.0000 0.90520  0.64570  0.89400  Biso   1.000  C
  C383     1.0000 0.91130  0.64840  0.08400  Biso   1.000  C
  H279     1.0000 0.92030  0.65970  0.12560  Biso   1.000  H
  C384     1.0000 0.90430  0.63470  0.21300  Biso   1.000  C
  H280     1.0000 0.90860  0.63670  0.34060  Biso   1.000  H
  C385     1.0000 0.89090  0.61790  0.15200  Biso   1.000  C
  C386     1.0000 0.88500  0.61520  0.96100  Biso   1.000  C
  H281     1.0000 0.87630  0.60400  0.91870  Biso   1.000  H
  C387     1.0000 0.89170  0.62900  0.83300  Biso   1.000  C
  H282     1.0000 0.88730  0.62700  0.70550  Biso   1.000  H
  C388     1.0000 0.88480  0.60144  0.27600  Biso   1.000  C
  C389     1.0000 0.86400  0.68520  0.57200  Biso   1.000  C
  H283     1.0000 0.84950  0.69280  0.65440  Biso   1.000  H
  H284     1.0000 0.85760  0.67250  0.59550  Biso   1.000  H
  C390     1.0000 0.82070  0.68840  0.33100  Biso   1.000  C
  C391     1.0000 0.79390  0.68070  0.43800  Biso   1.000  C
  H285     1.0000 0.79920  0.67600  0.55710  Biso   1.000  H
  C392     1.0000 0.75930  0.68010  0.37200  Biso   1.000  C
  H286     1.0000 0.74140  0.67490  0.44600  Biso   1.000  H
  C393     1.0000 0.75100  0.68720  0.19600  Biso   1.000  C
  C394     1.0000 0.77800  0.69490  0.08800  Biso   1.000  C
  H287     1.0000 0.77270  0.69970  0.96930  Biso   1.000  H
  C395     1.0000 0.81240  0.69550  0.15400  Biso   1.000  C
  H288     1.0000 0.83040  0.70060  0.07950  Biso   1.000  H
  C396     1.0000 0.71320  0.68690  0.13600  Biso   1.000  C
  O133     1.0000 0.96417  0.68528  0.51720  Biso   1.000  O
  O134     1.0000 0.11160  0.68257  0.06260  Biso   1.000  O
  O135     1.0000 0.07280  0.68055  0.83330  Biso   1.000  O
  O136     1.0000 0.89450  0.71071  0.85500  Biso   1.000  O
  O137     1.0000 0.86730  0.78471  0.28290  Biso   1.000  O
  O138     1.0000 0.87610  0.79688  0.01450  Biso   1.000  O
  O139     1.0000 0.91060  0.65828  0.72780  Biso   1.000  O
  O140     1.0000 0.88340  0.60340  0.45600  Biso   1.000  O
  O141     1.0000 0.88370  0.58559  0.20620  Biso   1.000  O
  O142     1.0000 0.85620  0.68917  0.39740  Biso   1.000  O
  O143     1.0000 0.69030  0.68248  0.27110  Biso   1.000  O
  O144     1.0000 0.70540  0.68863  0.95450  Biso   1.000  O
  Cd24     1.0000 0.15744  0.68727  0.28402  Biso   1.000  Cd
  Cd25     1.0000 0.86856  0.31951  0.74306  Biso   1.000  Cd
  C397     1.0000 0.09540  0.31193  0.62500  Biso   1.000  C
  C398     1.0000 0.07190  0.31366  0.44760  Biso   1.000  C
  H289     1.0000 0.07480  0.30300  0.36620  Biso   1.000  H
  H290     1.0000 0.07800  0.32470  0.37680  Biso   1.000  H
  C399     1.0000 0.00970  0.31633  0.38750  Biso   1.000  C
  C400     1.0000 0.01480  0.31900  0.19500  Biso   1.000  C
  H291     1.0000 0.03790  0.31980  0.14670  Biso   1.000  H
  C401     1.0000 0.98560  0.32050  0.07600  Biso   1.000  C
  H292     1.0000 0.98910  0.32230  0.94700  Biso   1.000  H
  C402     1.0000 0.95130  0.31943  0.14680  Biso   1.000  C
  C403     1.0000 0.94610  0.31668  0.33970  Biso   1.000  C
  H293     1.0000 0.92300  0.31590  0.38830  Biso   1.000  H
  C404     1.0000 0.97550  0.31510  0.45970  Biso   1.000  C
  H294     1.0000 0.97200  0.31320  0.58850  Biso   1.000  H
  C405     1.0000 0.91890  0.31798  0.01380  Biso   1.000  C
  C406     1.0000 0.08750  0.29100  0.68900  Biso   1.000  C
  H295     1.0000 0.09630  0.28240  0.59540  Biso   1.000  H
  H296     1.0000 0.06200  0.28910  0.70670  Biso   1.000  H
  C407     1.0000 0.10960  0.27060  0.90400  Biso   1.000  C
  C408     1.0000 0.10420  0.25560  0.78500  Biso   1.000  C
  H297     1.0000 0.09720  0.25750  0.66010  Biso   1.000  H
  C409     1.0000 0.10930  0.23780  0.85200  Biso   1.000  C
  H298     1.0000 0.10570  0.22780  0.77250  Biso   1.000  H
  C410     1.0000 0.11980  0.23504  0.03700  Biso   1.000  C
  C411     1.0000 0.12520  0.25010  0.15700  Biso   1.000  C
  H299     1.0000 0.13220  0.24820  0.28150  Biso   1.000  H
  C412     1.0000 0.12010  0.26780  0.09000  Biso   1.000  C
  H300     1.0000 0.12370  0.27780  0.16950  Biso   1.000  H
  C413     1.0000 0.12470  0.21701  0.11900  Biso   1.000  C
  C414     1.0000 0.08700  0.32352  0.80500  Biso   1.000  C
  H301     1.0000 0.10470  0.32150  0.90380  Biso   1.000  H
  H302     1.0000 0.06330  0.32090  0.85410  Biso   1.000  H
  C415     1.0000 0.09480  0.35430  0.89400  Biso   1.000  C
  C416     1.0000 0.08870  0.35160  0.08400  Biso   1.000  C
  H303     1.0000 0.07970  0.34030  0.12560  Biso   1.000  H
  C417     1.0000 0.09570  0.36530  0.21300  Biso   1.000  C
  H304     1.0000 0.09140  0.36330  0.34060  Biso   1.000  H
  C418     1.0000 0.10910  0.38210  0.15200  Biso   1.000  C
  C419     1.0000 0.11500  0.38480  0.96100  Biso   1.000  C
  H305     1.0000 0.12370  0.39600  0.91870  Biso   1.000  H
  C420     1.0000 0.10830  0.37100  0.83300  Biso   1.000  C
  H306     1.0000 0.11270  0.37300  0.70550  Biso   1.000  H
  C421     1.0000 0.11520  0.39856  0.27600  Biso   1.000  C
  C422     1.0000 0.13600  0.31480  0.57200  Biso   1.000  C
  H307     1.0000 0.15050  0.30720  0.65440  Biso   1.000  H
  H308     1.0000 0.14240  0.32750  0.59550  Biso   1.000  H
  C423     1.0000 0.17930  0.31160  0.33100  Biso   1.000  C
  C424     1.0000 0.20610  0.31930  0.43800  Biso   1.000  C
  H309     1.0000 0.20080  0.32400  0.55710  Biso   1.000  H
  C425     1.0000 0.24070  0.31990  0.37200  Biso   1.000  C
  H310     1.0000 0.25860  0.32510  0.44600  Biso   1.000  H
  C426     1.0000 0.24900  0.31280  0.19600  Biso   1.000  C
  C427     1.0000 0.22200  0.30510  0.08800  Biso   1.000  C
  H311     1.0000 0.22730  0.30030  0.96930  Biso   1.000  H
  C428     1.0000 0.18760  0.30450  0.15400  Biso   1.000  C
  H312     1.0000 0.16960  0.29940  0.07950  Biso   1.000  H
  C429     1.0000 0.28680  0.31310  0.13600  Biso   1.000  C
  O145     1.0000 0.03583  0.31472  0.51720  Biso   1.000  O
  O146     1.0000 0.88840  0.31743  0.06260  Biso   1.000  O
  O147     1.0000 0.92720  0.31945  0.83330  Biso   1.000  O
  O148     1.0000 0.10550  0.28929  0.85500  Biso   1.000  O
  O149     1.0000 0.13270  0.21529  0.28290  Biso   1.000  O
  O150     1.0000 0.12390  0.20312  0.01450  Biso   1.000  O
  O151     1.0000 0.08940  0.34172  0.72780  Biso   1.000  O
  O152     1.0000 0.11660  0.39660  0.45600  Biso   1.000  O
  O153     1.0000 0.11630  0.41441  0.20620  Biso   1.000  O
  O154     1.0000 0.14380  0.31083  0.39740  Biso   1.000  O
  O155     1.0000 0.30970  0.31752  0.27110  Biso   1.000  O
  O156     1.0000 0.29460  0.31137  0.95450  Biso   1.000  O
  Cd26     1.0000 0.84256  0.31273  0.28402  Biso   1.000  Cd
  Cd27     1.0000 0.86856  0.81951  0.24306  Biso   1.000  Cd
  C430     1.0000 0.09540  0.81193  0.12500  Biso   1.000  C
  C431     1.0000 0.07190  0.81366  0.94760  Biso   1.000  C
  H313     1.0000 0.07480  0.80300  0.86620  Biso   1.000  H
  H314     1.0000 0.07800  0.82470  0.87680  Biso   1.000  H
  C432     1.0000 0.00970  0.81633  0.88750  Biso   1.000  C
  C433     1.0000 0.01480  0.81900  0.69500  Biso   1.000  C
  H315     1.0000 0.03790  0.81980  0.64670  Biso   1.000  H
  C434     1.0000 0.98560  0.82050  0.57600  Biso   1.000  C
  H316     1.0000 0.98910  0.82230  0.44700  Biso   1.000  H
  C435     1.0000 0.95130  0.81943  0.64680  Biso   1.000  C
  C436     1.0000 0.94610  0.81668  0.83970  Biso   1.000  C
  H317     1.0000 0.92300  0.81590  0.88830  Biso   1.000  H
  C437     1.0000 0.97550  0.81510  0.95970  Biso   1.000  C
  H318     1.0000 0.97200  0.81320  0.08850  Biso   1.000  H
  C438     1.0000 0.91890  0.81798  0.51380  Biso   1.000  C
  C439     1.0000 0.08750  0.79100  0.18900  Biso   1.000  C
  H319     1.0000 0.09630  0.78240  0.09540  Biso   1.000  H
  H320     1.0000 0.06200  0.78910  0.20670  Biso   1.000  H
  C440     1.0000 0.10960  0.77060  0.40400  Biso   1.000  C
  C441     1.0000 0.10420  0.75560  0.28500  Biso   1.000  C
  H321     1.0000 0.09720  0.75750  0.16010  Biso   1.000  H
  C442     1.0000 0.10930  0.73780  0.35200  Biso   1.000  C
  H322     1.0000 0.10570  0.72780  0.27250  Biso   1.000  H
  C443     1.0000 0.11980  0.73504  0.53700  Biso   1.000  C
  C444     1.0000 0.12520  0.75010  0.65700  Biso   1.000  C
  H323     1.0000 0.13220  0.74820  0.78150  Biso   1.000  H
  C445     1.0000 0.12010  0.76780  0.59000  Biso   1.000  C
  H324     1.0000 0.12370  0.77780  0.66950  Biso   1.000  H
  C446     1.0000 0.12470  0.71701  0.61900  Biso   1.000  C
  C447     1.0000 0.08700  0.82352  0.30500  Biso   1.000  C
  H325     1.0000 0.10470  0.82150  0.40380  Biso   1.000  H
  H326     1.0000 0.06330  0.82090  0.35410  Biso   1.000  H
  C448     1.0000 0.09480  0.85430  0.39400  Biso   1.000  C
  C449     1.0000 0.08870  0.85160  0.58400  Biso   1.000  C
  H327     1.0000 0.07970  0.84030  0.62560  Biso   1.000  H
  C450     1.0000 0.09570  0.86530  0.71300  Biso   1.000  C
  H328     1.0000 0.09140  0.86330  0.84060  Biso   1.000  H
  C451     1.0000 0.10910  0.88210  0.65200  Biso   1.000  C
  C452     1.0000 0.11500  0.88480  0.46100  Biso   1.000  C
  H329     1.0000 0.12370  0.89600  0.41870  Biso   1.000  H
  C453     1.0000 0.10830  0.87100  0.33300  Biso   1.000  C
  H330     1.0000 0.11270  0.87300  0.20550  Biso   1.000  H
  C454     1.0000 0.11520  0.89856  0.77600  Biso   1.000  C
  C455     1.0000 0.13600  0.81480  0.07200  Biso   1.000  C
  H331     1.0000 0.15050  0.80720  0.15440  Biso   1.000  H
  H332     1.0000 0.14240  0.82750  0.09550  Biso   1.000  H
  C456     1.0000 0.17930  0.81160  0.83100  Biso   1.000  C
  C457     1.0000 0.20610  0.81930  0.93800  Biso   1.000  C
  H333     1.0000 0.20080  0.82400  0.05710  Biso   1.000  H
  C458     1.0000 0.24070  0.81990  0.87200  Biso   1.000  C
  H334     1.0000 0.25860  0.82510  0.94600  Biso   1.000  H
  C459     1.0000 0.24900  0.81280  0.69600  Biso   1.000  C
  C460     1.0000 0.22200  0.80510  0.58800  Biso   1.000  C
  H335     1.0000 0.22730  0.80030  0.46930  Biso   1.000  H
  C461     1.0000 0.18760  0.80450  0.65400  Biso   1.000  C
  H336     1.0000 0.16960  0.79940  0.57950  Biso   1.000  H
  C462     1.0000 0.28680  0.81310  0.63600  Biso   1.000  C
  O157     1.0000 0.03583  0.81472  0.01720  Biso   1.000  O
  O158     1.0000 0.88840  0.81743  0.56260  Biso   1.000  O
  O159     1.0000 0.92720  0.81945  0.33330  Biso   1.000  O
  O160     1.0000 0.10550  0.78929  0.35500  Biso   1.000  O
  O161     1.0000 0.13270  0.71529  0.78290  Biso   1.000  O
  O162     1.0000 0.12390  0.70312  0.51450  Biso   1.000  O
  O163     1.0000 0.08940  0.84172  0.22780  Biso   1.000  O
  O164     1.0000 0.11660  0.89660  0.95600  Biso   1.000  O
  O165     1.0000 0.11630  0.91441  0.70620  Biso   1.000  O
  O166     1.0000 0.14380  0.81083  0.89740  Biso   1.000  O
  O167     1.0000 0.30970  0.81752  0.77110  Biso   1.000  O
  O168     1.0000 0.29460  0.81137  0.45450  Biso   1.000  O
  Cd28     1.0000 0.84256  0.81273  0.78402  Biso   1.000  Cd
  Cd29     1.0000 0.36856  0.31951  0.24306  Biso   1.000  Cd
  C463     1.0000 0.59540  0.31193  0.12500  Biso   1.000  C
  C464     1.0000 0.57190  0.31366  0.94760  Biso   1.000  C
  H337     1.0000 0.57480  0.30300  0.86620  Biso   1.000  H
  H338     1.0000 0.57800  0.32470  0.87680  Biso   1.000  H
  C465     1.0000 0.50970  0.31633  0.88750  Biso   1.000  C
  C466     1.0000 0.51480  0.31900  0.69500  Biso   1.000  C
  H339     1.0000 0.53790  0.31980  0.64670  Biso   1.000  H
  C467     1.0000 0.48560  0.32050  0.57600  Biso   1.000  C
  H340     1.0000 0.48910  0.32230  0.44700  Biso   1.000  H
  C468     1.0000 0.45130  0.31943  0.64680  Biso   1.000  C
  C469     1.0000 0.44610  0.31668  0.83970  Biso   1.000  C
  H341     1.0000 0.42300  0.31590  0.88830  Biso   1.000  H
  C470     1.0000 0.47550  0.31510  0.95970  Biso   1.000  C
  H342     1.0000 0.47200  0.31320  0.08850  Biso   1.000  H
  C471     1.0000 0.41890  0.31798  0.51380  Biso   1.000  C
  C472     1.0000 0.58750  0.29100  0.18900  Biso   1.000  C
  H343     1.0000 0.59630  0.28240  0.09540  Biso   1.000  H
  H344     1.0000 0.56200  0.28910  0.20670  Biso   1.000  H
  C473     1.0000 0.60960  0.27060  0.40400  Biso   1.000  C
  C474     1.0000 0.60420  0.25560  0.28500  Biso   1.000  C
  H345     1.0000 0.59720  0.25750  0.16010  Biso   1.000  H
  C475     1.0000 0.60930  0.23780  0.35200  Biso   1.000  C
  H346     1.0000 0.60570  0.22780  0.27250  Biso   1.000  H
  C476     1.0000 0.61980  0.23504  0.53700  Biso   1.000  C
  C477     1.0000 0.62520  0.25010  0.65700  Biso   1.000  C
  H347     1.0000 0.63220  0.24820  0.78150  Biso   1.000  H
  C478     1.0000 0.62010  0.26780  0.59000  Biso   1.000  C
  H348     1.0000 0.62370  0.27780  0.66950  Biso   1.000  H
  C479     1.0000 0.62470  0.21701  0.61900  Biso   1.000  C
  C480     1.0000 0.58700  0.32352  0.30500  Biso   1.000  C
  H349     1.0000 0.60470  0.32150  0.40380  Biso   1.000  H
  H350     1.0000 0.56330  0.32090  0.35410  Biso   1.000  H
  C481     1.0000 0.59480  0.35430  0.39400  Biso   1.000  C
  C482     1.0000 0.58870  0.35160  0.58400  Biso   1.000  C
  H351     1.0000 0.57970  0.34030  0.62560  Biso   1.000  H
  C483     1.0000 0.59570  0.36530  0.71300  Biso   1.000  C
  H352     1.0000 0.59140  0.36330  0.84060  Biso   1.000  H
  C484     1.0000 0.60910  0.38210  0.65200  Biso   1.000  C
  C485     1.0000 0.61500  0.38480  0.46100  Biso   1.000  C
  H353     1.0000 0.62370  0.39600  0.41870  Biso   1.000  H
  C486     1.0000 0.60830  0.37100  0.33300  Biso   1.000  C
  H354     1.0000 0.61270  0.37300  0.20550  Biso   1.000  H
  C487     1.0000 0.61520  0.39856  0.77600  Biso   1.000  C
  C488     1.0000 0.63600  0.31480  0.07200  Biso   1.000  C
  H355     1.0000 0.65050  0.30720  0.15440  Biso   1.000  H
  H356     1.0000 0.64240  0.32750  0.09550  Biso   1.000  H
  C489     1.0000 0.67930  0.31160  0.83100  Biso   1.000  C
  C490     1.0000 0.70610  0.31930  0.93800  Biso   1.000  C
  H357     1.0000 0.70080  0.32400  0.05710  Biso   1.000  H
  C491     1.0000 0.74070  0.31990  0.87200  Biso   1.000  C
  H358     1.0000 0.75860  0.32510  0.94600  Biso   1.000  H
  C492     1.0000 0.74900  0.31280  0.69600  Biso   1.000  C
  C493     1.0000 0.72200  0.30510  0.58800  Biso   1.000  C
  H359     1.0000 0.72730  0.30030  0.46930  Biso   1.000  H
  C494     1.0000 0.68760  0.30450  0.65400  Biso   1.000  C
  H360     1.0000 0.66960  0.29940  0.57950  Biso   1.000  H
  C495     1.0000 0.78680  0.31310  0.63600  Biso   1.000  C
  O169     1.0000 0.53583  0.31472  0.01720  Biso   1.000  O
  O170     1.0000 0.38840  0.31743  0.56260  Biso   1.000  O
  O171     1.0000 0.42720  0.31945  0.33330  Biso   1.000  O
  O172     1.0000 0.60550  0.28929  0.35500  Biso   1.000  O
  O173     1.0000 0.63270  0.21529  0.78290  Biso   1.000  O
  O174     1.0000 0.62390  0.20312  0.51450  Biso   1.000  O
  O175     1.0000 0.58940  0.34172  0.22780  Biso   1.000  O
  O176     1.0000 0.61660  0.39660  0.95600  Biso   1.000  O
  O177     1.0000 0.61630  0.41441  0.70620  Biso   1.000  O
  O178     1.0000 0.64380  0.31083  0.89740  Biso   1.000  O
  O179     1.0000 0.80970  0.31752  0.77110  Biso   1.000  O
  O180     1.0000 0.79460  0.31137  0.45450  Biso   1.000  O
  Cd30     1.0000 0.34256  0.31273  0.78402  Biso   1.000  Cd
  Cd31     1.0000 0.36856  0.81951  0.74306  Biso   1.000  Cd
  C496     1.0000 0.59540  0.81193  0.62500  Biso   1.000  C
  C497     1.0000 0.57190  0.81366  0.44760  Biso   1.000  C
  H361     1.0000 0.57480  0.80300  0.36620  Biso   1.000  H
  H362     1.0000 0.57800  0.82470  0.37680  Biso   1.000  H
  C498     1.0000 0.50970  0.81633  0.38750  Biso   1.000  C
  C499     1.0000 0.51480  0.81900  0.19500  Biso   1.000  C
  H363     1.0000 0.53790  0.81980  0.14670  Biso   1.000  H
  C500     1.0000 0.48560  0.82050  0.07600  Biso   1.000  C
  H364     1.0000 0.48910  0.82230  0.94700  Biso   1.000  H
  C501     1.0000 0.45130  0.81943  0.14680  Biso   1.000  C
  C502     1.0000 0.44610  0.81668  0.33970  Biso   1.000  C
  H365     1.0000 0.42300  0.81590  0.38830  Biso   1.000  H
  C503     1.0000 0.47550  0.81510  0.45970  Biso   1.000  C
  H366     1.0000 0.47200  0.81320  0.58850  Biso   1.000  H
  C504     1.0000 0.41890  0.81798  0.01380  Biso   1.000  C
  C505     1.0000 0.58750  0.79100  0.68900  Biso   1.000  C
  H367     1.0000 0.59630  0.78240  0.59540  Biso   1.000  H
  H368     1.0000 0.56200  0.78910  0.70670  Biso   1.000  H
  C506     1.0000 0.60960  0.77060  0.90400  Biso   1.000  C
  C507     1.0000 0.60420  0.75560  0.78500  Biso   1.000  C
  H369     1.0000 0.59720  0.75750  0.66010  Biso   1.000  H
  C508     1.0000 0.60930  0.73780  0.85200  Biso   1.000  C
  H370     1.0000 0.60570  0.72780  0.77250  Biso   1.000  H
  C509     1.0000 0.61980  0.73504  0.03700  Biso   1.000  C
  C510     1.0000 0.62520  0.75010  0.15700  Biso   1.000  C
  H371     1.0000 0.63220  0.74820  0.28150  Biso   1.000  H
  C511     1.0000 0.62010  0.76780  0.09000  Biso   1.000  C
  H372     1.0000 0.62370  0.77780  0.16950  Biso   1.000  H
  C512     1.0000 0.62470  0.71701  0.11900  Biso   1.000  C
  C513     1.0000 0.58700  0.82352  0.80500  Biso   1.000  C
  H373     1.0000 0.60470  0.82150  0.90380  Biso   1.000  H
  H374     1.0000 0.56330  0.82090  0.85410  Biso   1.000  H
  C514     1.0000 0.59480  0.85430  0.89400  Biso   1.000  C
  C515     1.0000 0.58870  0.85160  0.08400  Biso   1.000  C
  H375     1.0000 0.57970  0.84030  0.12560  Biso   1.000  H
  C516     1.0000 0.59570  0.86530  0.21300  Biso   1.000  C
  H376     1.0000 0.59140  0.86330  0.34060  Biso   1.000  H
  C517     1.0000 0.60910  0.88210  0.15200  Biso   1.000  C
  C518     1.0000 0.61500  0.88480  0.96100  Biso   1.000  C
  H377     1.0000 0.62370  0.89600  0.91870  Biso   1.000  H
  C519     1.0000 0.60830  0.87100  0.83300  Biso   1.000  C
  H378     1.0000 0.61270  0.87300  0.70550  Biso   1.000  H
  C520     1.0000 0.61520  0.89856  0.27600  Biso   1.000  C
  C521     1.0000 0.63600  0.81480  0.57200  Biso   1.000  C
  H379     1.0000 0.65050  0.80720  0.65440  Biso   1.000  H
  H380     1.0000 0.64240  0.82750  0.59550  Biso   1.000  H
  C522     1.0000 0.67930  0.81160  0.33100  Biso   1.000  C
  C523     1.0000 0.70610  0.81930  0.43800  Biso   1.000  C
  H381     1.0000 0.70080  0.82400  0.55710  Biso   1.000  H
  C524     1.0000 0.74070  0.81990  0.37200  Biso   1.000  C
  H382     1.0000 0.75860  0.82510  0.44600  Biso   1.000  H
  C525     1.0000 0.74900  0.81280  0.19600  Biso   1.000  C
  C526     1.0000 0.72200  0.80510  0.08800  Biso   1.000  C
  H383     1.0000 0.72730  0.80030  0.96930  Biso   1.000  H
  C527     1.0000 0.68760  0.80450  0.15400  Biso   1.000  C
  H384     1.0000 0.66960  0.79940  0.07950  Biso   1.000  H
  C528     1.0000 0.78680  0.81310  0.13600  Biso   1.000  C
  O181     1.0000 0.53583  0.81472  0.51720  Biso   1.000  O
  O182     1.0000 0.38840  0.81743  0.06260  Biso   1.000  O
  O183     1.0000 0.42720  0.81945  0.83330  Biso   1.000  O
  O184     1.0000 0.60550  0.78929  0.85500  Biso   1.000  O
  O185     1.0000 0.63270  0.71529  0.28290  Biso   1.000  O
  O186     1.0000 0.62390  0.70312  0.01450  Biso   1.000  O
  O187     1.0000 0.58940  0.84172  0.72780  Biso   1.000  O
  O188     1.0000 0.61660  0.89660  0.45600  Biso   1.000  O
  O189     1.0000 0.61630  0.91441  0.20620  Biso   1.000  O
  O190     1.0000 0.64380  0.81083  0.39740  Biso   1.000  O
  O191     1.0000 0.80970  0.81752  0.27110  Biso   1.000  O
  O192     1.0000 0.79460  0.81137  0.95450  Biso   1.000  O
  Cd32     1.0000 0.34256  0.81273  0.28402  Biso   1.000  Cd
