data_fcu_sym_12_mc_11__L_24
_audit_creation_date              2015-10-10
_audit_creation_method            'Materials Studio'
_symmetry_space_group_name_H-M    'P1'
_symmetry_Int_Tables_number       1
_symmetry_cell_setting            triclinic
loop_
_symmetry_equiv_pos_as_xyz
  x,y,z
_cell_length_a                    26.7830
_cell_length_b                    26.7830
_cell_length_c                    26.7830
_cell_angle_alpha                 90.0000
_cell_angle_beta                  90.0000
_cell_angle_gamma                 90.0000
loop_
_atom_site_label
_atom_site_type_symbol
_atom_site_fract_x
_atom_site_fract_y
_atom_site_fract_z
_atom_site_U_iso_or_equiv
_atom_site_adp_type
_atom_site_occupancy
O1     O    -0.12897   0.06840   0.00201   0.00000  Uiso   1.00
O2     O     0.12915   0.06807  -0.00190   0.00000  Uiso   1.00
O3     O    -0.00187   0.12907   0.06822   0.00000  Uiso   1.00
O4     O     0.00223   0.12904  -0.06823   0.00000  Uiso   1.00
O5     O     0.00112   0.06814  -0.12914   0.00000  Uiso   1.00
O6     O    -0.00117   0.06816   0.12912   0.00000  Uiso   1.00
O7     O     0.06829   0.12905  -0.00101   0.00000  Uiso   1.00
O8     O    -0.06800   0.12925   0.00105   0.00000  Uiso   1.00
Zr9    Zr    0.00011   0.08839   0.00001   0.00000  Uiso   1.00
O10    O     0.04543   0.04529  -0.04533   0.00000  Uiso   1.00
O11    O    -0.04530   0.04546   0.04540   0.00000  Uiso   1.00
X12    C    -0.11446   0.11484   0.00225   0.00000  Uiso   1.00
X13    C     0.11471   0.11455  -0.00215   0.00000  Uiso   1.00
X14    C    -0.00218   0.11460   0.11467   0.00000  Uiso   1.00
X15    C     0.00240   0.11457  -0.11469   0.00000  Uiso   1.00
H16    H     0.06650   0.06632   0.06639   0.00000  Uiso   1.00
O17    O     0.04516   0.04503   0.04509   0.00000  Uiso   1.00
H18    H    -0.06631   0.06651  -0.06640   0.00000  Uiso   1.00
O19    O    -0.04504   0.04517  -0.04509   0.00000  Uiso   1.00
O20    O     0.12898  -0.06839   0.00201   0.00000  Uiso   1.00
O21    O    -0.12914  -0.06805  -0.00190   0.00000  Uiso   1.00
O22    O     0.06816  -0.00131   0.12913   0.00000  Uiso   1.00
O23    O     0.06825   0.00198  -0.12901   0.00000  Uiso   1.00
O24    O    -0.06824  -0.00197  -0.12901   0.00000  Uiso   1.00
O25    O    -0.06815   0.00133   0.12913   0.00000  Uiso   1.00
O26    O     0.00188  -0.12906   0.06822   0.00000  Uiso   1.00
O27    O    -0.00222  -0.12903  -0.06823   0.00000  Uiso   1.00
O28    O     0.00118  -0.06814   0.12912   0.00000  Uiso   1.00
O29    O    -0.00111  -0.06812  -0.12914   0.00000  Uiso   1.00
O30    O     0.12909  -0.00197   0.06823   0.00000  Uiso   1.00
O31    O    -0.12908   0.00199   0.06823   0.00000  Uiso   1.00
O32    O    -0.12916  -0.00081  -0.06811   0.00000  Uiso   1.00
O33    O     0.12917   0.00083  -0.06811   0.00000  Uiso   1.00
O34    O     0.06801  -0.12923   0.00105   0.00000  Uiso   1.00
O35    O    -0.06828  -0.12903  -0.00101   0.00000  Uiso   1.00
Zr36   Zr    0.08840  -0.00015   0.00003   0.00000  Uiso   1.00
Zr37   Zr   -0.08839   0.00016   0.00003   0.00000  Uiso   1.00
Zr38   Zr    0.00000   0.00001   0.08839   0.00000  Uiso   1.00
Zr39   Zr    0.00000   0.00001  -0.08836   0.00000  Uiso   1.00
Zr40   Zr   -0.00010  -0.08837   0.00001   0.00000  Uiso   1.00
O41    O    -0.04542  -0.04528  -0.04533   0.00000  Uiso   1.00
O42    O     0.04531  -0.04544   0.04540   0.00000  Uiso   1.00
X43    C     0.11447  -0.11482   0.00225   0.00000  Uiso   1.00
X44    C    -0.11470  -0.11453  -0.00215   0.00000  Uiso   1.00
X45    C     0.11461  -0.00234   0.11468   0.00000  Uiso   1.00
X46    C     0.11471   0.00209  -0.11455   0.00000  Uiso   1.00
X47    C    -0.11470  -0.00207  -0.11455   0.00000  Uiso   1.00
X48    C    -0.11460   0.00235   0.11468   0.00000  Uiso   1.00
X49    C     0.00219  -0.11458   0.11467   0.00000  Uiso   1.00
X50    C    -0.00239  -0.11456  -0.11469   0.00000  Uiso   1.00
H51    H    -0.06649  -0.06630   0.06639   0.00000  Uiso   1.00
O52    O    -0.04515  -0.04502   0.04509   0.00000  Uiso   1.00
H53    H     0.06632  -0.06650  -0.06640   0.00000  Uiso   1.00
O54    O     0.04505  -0.04516  -0.04509   0.00000  Uiso   1.00
O55    O     0.37103   0.56840   0.00201   0.00000  Uiso   1.00
O56    O     0.62915   0.56807  -0.00190   0.00000  Uiso   1.00
O57    O     0.49813   0.62907   0.06822   0.00000  Uiso   1.00
O58    O     0.50223   0.62904  -0.06823   0.00000  Uiso   1.00
O59    O     0.50112   0.56814  -0.12914   0.00000  Uiso   1.00
O60    O     0.49883   0.56816   0.12912   0.00000  Uiso   1.00
O61    O     0.56829   0.62905  -0.00101   0.00000  Uiso   1.00
O62    O     0.43200   0.62925   0.00105   0.00000  Uiso   1.00
Zr63   Zr    0.50011   0.58839   0.00001   0.00000  Uiso   1.00
O64    O     0.54543   0.54529  -0.04533   0.00000  Uiso   1.00
O65    O     0.45470   0.54546   0.04540   0.00000  Uiso   1.00
X66    C     0.38554   0.61484   0.00225   0.00000  Uiso   1.00
X67    C     0.61471   0.61455  -0.00215   0.00000  Uiso   1.00
X68    C     0.49782   0.61460   0.11467   0.00000  Uiso   1.00
X69    C     0.50240   0.61457  -0.11469   0.00000  Uiso   1.00
H70    H     0.56650   0.56632   0.06639   0.00000  Uiso   1.00
O71    O     0.54516   0.54503   0.04509   0.00000  Uiso   1.00
H72    H     0.43369   0.56651  -0.06640   0.00000  Uiso   1.00
O73    O     0.45496   0.54517  -0.04509   0.00000  Uiso   1.00
O74    O     0.62898   0.43161   0.00201   0.00000  Uiso   1.00
O75    O     0.37086   0.43195  -0.00190   0.00000  Uiso   1.00
O76    O     0.56816   0.49869   0.12913   0.00000  Uiso   1.00
O77    O     0.56825   0.50198  -0.12901   0.00000  Uiso   1.00
O78    O     0.43176   0.49803  -0.12901   0.00000  Uiso   1.00
O79    O     0.43185   0.50133   0.12913   0.00000  Uiso   1.00
O80    O     0.50188   0.37094   0.06822   0.00000  Uiso   1.00
O81    O     0.49778   0.37097  -0.06823   0.00000  Uiso   1.00
O82    O     0.50118   0.43186   0.12912   0.00000  Uiso   1.00
O83    O     0.49889   0.43188  -0.12914   0.00000  Uiso   1.00
O84    O     0.62909   0.49803   0.06823   0.00000  Uiso   1.00
O85    O     0.37092   0.50199   0.06823   0.00000  Uiso   1.00
O86    O     0.37084   0.49919  -0.06811   0.00000  Uiso   1.00
O87    O     0.62917   0.50083  -0.06811   0.00000  Uiso   1.00
O88    O     0.56801   0.37077   0.00105   0.00000  Uiso   1.00
O89    O     0.43172   0.37097  -0.00101   0.00000  Uiso   1.00
Zr90   Zr    0.58840   0.49985   0.00003   0.00000  Uiso   1.00
Zr91   Zr    0.41161   0.50016   0.00003   0.00000  Uiso   1.00
Zr92   Zr    0.50000   0.50001   0.08839   0.00000  Uiso   1.00
Zr93   Zr    0.50000   0.50001  -0.08836   0.00000  Uiso   1.00
Zr94   Zr    0.49990   0.41163   0.00001   0.00000  Uiso   1.00
O95    O     0.45458   0.45472  -0.04533   0.00000  Uiso   1.00
O96    O     0.54531   0.45456   0.04540   0.00000  Uiso   1.00
X97    C     0.61447   0.38518   0.00225   0.00000  Uiso   1.00
X98    C     0.38530   0.38547  -0.00215   0.00000  Uiso   1.00
X99    C     0.61461   0.49766   0.11468   0.00000  Uiso   1.00
X100   C     0.61471   0.50209  -0.11455   0.00000  Uiso   1.00
X101   C     0.38530   0.49793  -0.11455   0.00000  Uiso   1.00
X102   C     0.38540   0.50235   0.11468   0.00000  Uiso   1.00
X103   C     0.50219   0.38542   0.11467   0.00000  Uiso   1.00
X104   C     0.49761   0.38544  -0.11469   0.00000  Uiso   1.00
H105   H     0.43351   0.43370   0.06639   0.00000  Uiso   1.00
O106   O     0.45485   0.45498   0.04509   0.00000  Uiso   1.00
H107   H     0.56632   0.43350  -0.06640   0.00000  Uiso   1.00
O108   O     0.54505   0.45484  -0.04509   0.00000  Uiso   1.00
O109   O    -0.12919   0.56800   0.50112   0.00000  Uiso   1.00
O110   O     0.12904   0.56834   0.49880   0.00000  Uiso   1.00
O111   O    -0.00199   0.62909   0.56820   0.00000  Uiso   1.00
O112   O     0.00164   0.62912   0.43178   0.00000  Uiso   1.00
O113   O     0.00117   0.56818   0.37088   0.00000  Uiso   1.00
O114   O    -0.00110   0.56816   0.62911   0.00000  Uiso   1.00
O115   O     0.06808   0.62920   0.49818   0.00000  Uiso   1.00
O116   O    -0.06835   0.62900   0.50181   0.00000  Uiso   1.00
Zr117  Zr   -0.00010   0.58841   0.49998   0.00000  Uiso   1.00
O118   O     0.04531   0.54546   0.45458   0.00000  Uiso   1.00
O119   O    -0.04542   0.54529   0.54531   0.00000  Uiso   1.00
X120   C    -0.11478   0.61447   0.50219   0.00000  Uiso   1.00
X121   C     0.11455   0.61476   0.49779   0.00000  Uiso   1.00
X122   C    -0.00227   0.61460   0.61466   0.00000  Uiso   1.00
X123   C     0.00208   0.61463   0.38533   0.00000  Uiso   1.00
H124   H     0.06631   0.56652   0.56638   0.00000  Uiso   1.00
O125   O     0.04504   0.54518   0.54507   0.00000  Uiso   1.00
H126   H    -0.06649   0.56633   0.43360   0.00000  Uiso   1.00
O127   O    -0.04514   0.54505   0.45489   0.00000  Uiso   1.00
O128   O     0.12920   0.43201   0.50112   0.00000  Uiso   1.00
O129   O    -0.12903   0.43168   0.49880   0.00000  Uiso   1.00
O130   O     0.06823   0.49801   0.62901   0.00000  Uiso   1.00
O131   O     0.06814   0.50134   0.37083   0.00000  Uiso   1.00
O132   O    -0.06813   0.49868   0.37083   0.00000  Uiso   1.00
O133   O    -0.06822   0.50200   0.62901   0.00000  Uiso   1.00
O134   O     0.00200   0.37093   0.56820   0.00000  Uiso   1.00
O135   O    -0.00163   0.37090   0.43178   0.00000  Uiso   1.00
O136   O     0.00111   0.43186   0.62911   0.00000  Uiso   1.00
O137   O    -0.00116   0.43183   0.37088   0.00000  Uiso   1.00
O138   O     0.12914   0.49896   0.56809   0.00000  Uiso   1.00
O139   O    -0.12913   0.50105   0.56809   0.00000  Uiso   1.00
O140   O    -0.12904   0.49779   0.43173   0.00000  Uiso   1.00
O141   O     0.12905   0.50223   0.43173   0.00000  Uiso   1.00
O142   O     0.06836   0.37102   0.50181   0.00000  Uiso   1.00
O143   O    -0.06807   0.37081   0.49818   0.00000  Uiso   1.00
Zr144  Zr    0.08838   0.50017   0.49994   0.00000  Uiso   1.00
Zr145  Zr   -0.08837   0.49985   0.49994   0.00000  Uiso   1.00
Zr146  Zr    0.00000   0.50001   0.58835   0.00000  Uiso   1.00
Zr147  Zr    0.00000   0.50001   0.41160   0.00000  Uiso   1.00
Zr148  Zr    0.00011   0.41161   0.49998   0.00000  Uiso   1.00
O149   O    -0.04530   0.45455   0.45458   0.00000  Uiso   1.00
O150   O     0.04543   0.45473   0.54531   0.00000  Uiso   1.00
X151   C     0.11479   0.38555   0.50219   0.00000  Uiso   1.00
X152   C    -0.11454   0.38526   0.49779   0.00000  Uiso   1.00
X153   C     0.11469   0.49782   0.61453   0.00000  Uiso   1.00
X154   C     0.11457   0.50247   0.38528   0.00000  Uiso   1.00
X155   C    -0.11456   0.49755   0.38528   0.00000  Uiso   1.00
X156   C    -0.11468   0.50220   0.61453   0.00000  Uiso   1.00
X157   C     0.00228   0.38542   0.61466   0.00000  Uiso   1.00
X158   C    -0.00207   0.38539   0.38533   0.00000  Uiso   1.00
H159   H    -0.06630   0.43350   0.56638   0.00000  Uiso   1.00
O160   O    -0.04503   0.45484   0.54507   0.00000  Uiso   1.00
H161   H     0.06650   0.43369   0.43360   0.00000  Uiso   1.00
O162   O     0.04515   0.45497   0.45489   0.00000  Uiso   1.00
O163   O     0.37081   0.06800   0.50112   0.00000  Uiso   1.00
O164   O     0.62904   0.06834   0.49880   0.00000  Uiso   1.00
O165   O     0.49801   0.12909   0.56820   0.00000  Uiso   1.00
O166   O     0.50164   0.12912   0.43178   0.00000  Uiso   1.00
O167   O     0.50117   0.06818   0.37088   0.00000  Uiso   1.00
O168   O     0.49890   0.06816   0.62911   0.00000  Uiso   1.00
O169   O     0.56808   0.12920   0.49818   0.00000  Uiso   1.00
O170   O     0.43165   0.12900   0.50181   0.00000  Uiso   1.00
Zr171  Zr    0.49990   0.08841   0.49998   0.00000  Uiso   1.00
O172   O     0.54531   0.04546   0.45458   0.00000  Uiso   1.00
O173   O     0.45458   0.04529   0.54531   0.00000  Uiso   1.00
X174   C     0.38522   0.11447   0.50219   0.00000  Uiso   1.00
X175   C     0.61455   0.11476   0.49779   0.00000  Uiso   1.00
X176   C     0.49773   0.11460   0.61466   0.00000  Uiso   1.00
X177   C     0.50208   0.11463   0.38533   0.00000  Uiso   1.00
H178   H     0.56631   0.06652   0.56638   0.00000  Uiso   1.00
O179   O     0.54504   0.04518   0.54507   0.00000  Uiso   1.00
H180   H     0.43351   0.06633   0.43360   0.00000  Uiso   1.00
O181   O     0.45486   0.04505   0.45489   0.00000  Uiso   1.00
O182   O     0.62920  -0.06799   0.50112   0.00000  Uiso   1.00
O183   O     0.37097  -0.06832   0.49880   0.00000  Uiso   1.00
O184   O     0.56823  -0.00199   0.62901   0.00000  Uiso   1.00
O185   O     0.56814   0.00134   0.37083   0.00000  Uiso   1.00
O186   O     0.43187  -0.00132   0.37083   0.00000  Uiso   1.00
O187   O     0.43178   0.00200   0.62901   0.00000  Uiso   1.00
O188   O     0.50200  -0.12907   0.56820   0.00000  Uiso   1.00
O189   O     0.49837  -0.12910   0.43178   0.00000  Uiso   1.00
O190   O     0.50111  -0.06814   0.62911   0.00000  Uiso   1.00
O191   O     0.49884  -0.06817   0.37088   0.00000  Uiso   1.00
O192   O     0.62914  -0.00104   0.56809   0.00000  Uiso   1.00
O193   O     0.37087   0.00105   0.56809   0.00000  Uiso   1.00
O194   O     0.37096  -0.00221   0.43173   0.00000  Uiso   1.00
O195   O     0.62905   0.00223   0.43173   0.00000  Uiso   1.00
O196   O     0.56836  -0.12898   0.50181   0.00000  Uiso   1.00
O197   O     0.43193  -0.12919   0.49818   0.00000  Uiso   1.00
Zr198  Zr    0.58838   0.00017   0.49994   0.00000  Uiso   1.00
Zr199  Zr    0.41163  -0.00015   0.49994   0.00000  Uiso   1.00
Zr200  Zr    0.50000   0.00001   0.58835   0.00000  Uiso   1.00
Zr201  Zr    0.50000   0.00001   0.41160   0.00000  Uiso   1.00
Zr202  Zr    0.50011  -0.08839   0.49998   0.00000  Uiso   1.00
O203   O     0.45470  -0.04545   0.45458   0.00000  Uiso   1.00
O204   O     0.54543  -0.04527   0.54531   0.00000  Uiso   1.00
X205   C     0.61479  -0.11445   0.50219   0.00000  Uiso   1.00
X206   C     0.38546  -0.11474   0.49779   0.00000  Uiso   1.00
X207   C     0.61469  -0.00218   0.61453   0.00000  Uiso   1.00
X208   C     0.61457   0.00247   0.38528   0.00000  Uiso   1.00
X209   C     0.38544  -0.00245   0.38528   0.00000  Uiso   1.00
X210   C     0.38532   0.00220   0.61453   0.00000  Uiso   1.00
X211   C     0.50228  -0.11458   0.61466   0.00000  Uiso   1.00
X212   C     0.49793  -0.11461   0.38533   0.00000  Uiso   1.00
H213   H     0.43370  -0.06650   0.56638   0.00000  Uiso   1.00
O214   O     0.45497  -0.04516   0.54507   0.00000  Uiso   1.00
H215   H     0.56650  -0.06631   0.43360   0.00000  Uiso   1.00
O216   O     0.54515  -0.04503   0.45489   0.00000  Uiso   1.00
C217   C     0.23001   0.23004  -0.00390   0.00000  Uiso   1.00
C218   C     0.18004   0.24141   0.00838   0.00000  Uiso   1.00
C219   C     0.14288   0.20428   0.00851   0.00000  Uiso   1.00
X220   C     0.15434   0.15427  -0.00307   0.00000  Uiso   1.00
C221   C     0.20418   0.14274  -0.01526   0.00000  Uiso   1.00
C222   C     0.24127   0.17997  -0.01594   0.00000  Uiso   1.00
C223   C     0.27000   0.26997  -0.00390   0.00000  Uiso   1.00
C224   C     0.31997   0.25861   0.00838   0.00000  Uiso   1.00
C225   C     0.35713   0.29573   0.00851   0.00000  Uiso   1.00
X226   C     0.34567   0.34575  -0.00307   0.00000  Uiso   1.00
C227   C     0.29583   0.35727  -0.01526   0.00000  Uiso   1.00
C228   C     0.25874   0.32005  -0.01594   0.00000  Uiso   1.00
H229   H     0.10512   0.21477   0.01848   0.00000  Uiso   1.00
H230   H     0.21458   0.10486  -0.02483   0.00000  Uiso   1.00
H231   H     0.39489   0.28525   0.01848   0.00000  Uiso   1.00
H232   H     0.28543   0.39516  -0.02483   0.00000  Uiso   1.00
H233   H     0.27876   0.16938  -0.02662   0.00000  Uiso   1.00
H234   H     0.33048   0.22104   0.01885   0.00000  Uiso   1.00
H235   H     0.16953   0.27898   0.01885   0.00000  Uiso   1.00
H236   H     0.22125   0.33063  -0.02662   0.00000  Uiso   1.00
C237   C     0.23004   0.73002   0.49602   0.00000  Uiso   1.00
C238   C     0.18000   0.74127   0.48386   0.00000  Uiso   1.00
C239   C     0.14277   0.70419   0.48453   0.00000  Uiso   1.00
X240   C     0.15427   0.65437   0.49687   0.00000  Uiso   1.00
C241   C     0.20425   0.64293   0.50859   0.00000  Uiso   1.00
C242   C     0.24138   0.68008   0.50844   0.00000  Uiso   1.00
C243   C     0.26997   0.76999   0.49602   0.00000  Uiso   1.00
C244   C     0.32001   0.75875   0.48386   0.00000  Uiso   1.00
C245   C     0.35724   0.79583   0.48453   0.00000  Uiso   1.00
X246   C     0.34574   0.84564   0.49687   0.00000  Uiso   1.00
C247   C     0.29576   0.85709   0.50859   0.00000  Uiso   1.00
C248   C     0.25863   0.81993   0.50844   0.00000  Uiso   1.00
H249   H     0.10491   0.71456   0.47483   0.00000  Uiso   1.00
H250   H     0.21470   0.60519   0.51869   0.00000  Uiso   1.00
H251   H     0.39510   0.78546   0.47483   0.00000  Uiso   1.00
H252   H     0.28531   0.89482   0.51869   0.00000  Uiso   1.00
H253   H     0.27894   0.66960   0.51899   0.00000  Uiso   1.00
H254   H     0.33056   0.72127   0.47309   0.00000  Uiso   1.00
H255   H     0.16945   0.77875   0.47309   0.00000  Uiso   1.00
H256   H     0.22107   0.83042   0.51899   0.00000  Uiso   1.00
C257   C     0.77000   0.76997  -0.00390   0.00000  Uiso   1.00
C258   C     0.75874   0.82005  -0.01594   0.00000  Uiso   1.00
C259   C     0.79583   0.85727  -0.01526   0.00000  Uiso   1.00
X260   C     0.84567   0.84575  -0.00307   0.00000  Uiso   1.00
C261   C     0.85713   0.79573   0.00851   0.00000  Uiso   1.00
C262   C     0.81997   0.75861   0.00838   0.00000  Uiso   1.00
C263   C     0.73001   0.73004  -0.00390   0.00000  Uiso   1.00
C264   C     0.74127   0.67997  -0.01594   0.00000  Uiso   1.00
C265   C     0.70418   0.64274  -0.01526   0.00000  Uiso   1.00
X266   C     0.65434   0.65427  -0.00307   0.00000  Uiso   1.00
C267   C     0.64288   0.70428   0.00851   0.00000  Uiso   1.00
C268   C     0.68004   0.74141   0.00838   0.00000  Uiso   1.00
H269   H     0.78543   0.89516  -0.02483   0.00000  Uiso   1.00
H270   H     0.89489   0.78525   0.01848   0.00000  Uiso   1.00
H271   H     0.71458   0.60486  -0.02483   0.00000  Uiso   1.00
H272   H     0.60512   0.71477   0.01848   0.00000  Uiso   1.00
H273   H     0.83048   0.72104   0.01885   0.00000  Uiso   1.00
H274   H     0.77876   0.66938  -0.02662   0.00000  Uiso   1.00
H275   H     0.72125   0.83063  -0.02662   0.00000  Uiso   1.00
H276   H     0.66953   0.77898   0.01885   0.00000  Uiso   1.00
C277   C     0.76997   0.26999   0.49602   0.00000  Uiso   1.00
C278   C     0.75863   0.31993   0.50844   0.00000  Uiso   1.00
C279   C     0.79576   0.35709   0.50859   0.00000  Uiso   1.00
X280   C     0.84574   0.34564   0.49687   0.00000  Uiso   1.00
C281   C     0.85724   0.29583   0.48453   0.00000  Uiso   1.00
C282   C     0.82001   0.25875   0.48386   0.00000  Uiso   1.00
C283   C     0.73004   0.23002   0.49602   0.00000  Uiso   1.00
C284   C     0.74138   0.18008   0.50844   0.00000  Uiso   1.00
C285   C     0.70425   0.14293   0.50859   0.00000  Uiso   1.00
X286   C     0.65427   0.15438   0.49687   0.00000  Uiso   1.00
C287   C     0.64277   0.20419   0.48453   0.00000  Uiso   1.00
C288   C     0.68000   0.24127   0.48386   0.00000  Uiso   1.00
H289   H     0.78531   0.39482   0.51869   0.00000  Uiso   1.00
H290   H     0.89510   0.28546   0.47483   0.00000  Uiso   1.00
H291   H     0.71470   0.10519   0.51869   0.00000  Uiso   1.00
H292   H     0.60491   0.21456   0.47483   0.00000  Uiso   1.00
H293   H     0.83056   0.22127   0.47309   0.00000  Uiso   1.00
H294   H     0.77894   0.16960   0.51899   0.00000  Uiso   1.00
H295   H     0.72107   0.33042   0.51899   0.00000  Uiso   1.00
H296   H     0.66945   0.27875   0.47309   0.00000  Uiso   1.00
C297   C     0.77005   0.23011   0.00412   0.00000  Uiso   1.00
C298   C     0.75893   0.18003   0.01622   0.00000  Uiso   1.00
C299   C     0.79610   0.14290   0.01554   0.00000  Uiso   1.00
X300   C     0.84590   0.15453   0.00327   0.00000  Uiso   1.00
C301   C     0.85725   0.20455  -0.00837   0.00000  Uiso   1.00
C302   C     0.81999   0.24159  -0.00822   0.00000  Uiso   1.00
C303   C     0.72996   0.26991   0.00412   0.00000  Uiso   1.00
C304   C     0.74108   0.31999   0.01622   0.00000  Uiso   1.00
C305   C     0.70391   0.35711   0.01554   0.00000  Uiso   1.00
X306   C     0.65411   0.34548   0.00327   0.00000  Uiso   1.00
C307   C     0.64276   0.29546  -0.00837   0.00000  Uiso   1.00
C308   C     0.68002   0.25843  -0.00822   0.00000  Uiso   1.00
H309   H     0.78579   0.10501   0.02518   0.00000  Uiso   1.00
H310   H     0.89497   0.21510  -0.01839   0.00000  Uiso   1.00
H311   H     0.71422   0.39501   0.02518   0.00000  Uiso   1.00
H312   H     0.60504   0.28491  -0.01839   0.00000  Uiso   1.00
H313   H     0.83039   0.27918  -0.01872   0.00000  Uiso   1.00
H314   H     0.77854   0.33065   0.02695   0.00000  Uiso   1.00
H315   H     0.72147   0.16936   0.02695   0.00000  Uiso   1.00
H316   H     0.66962   0.22084  -0.01872   0.00000  Uiso   1.00
C317   C     0.76991   0.72996   0.50402   0.00000  Uiso   1.00
C318   C     0.75845   0.68003   0.49164   0.00000  Uiso   1.00
C319   C     0.79550   0.64277   0.49150   0.00000  Uiso   1.00
X320   C     0.84551   0.65411   0.50319   0.00000  Uiso   1.00
C321   C     0.85712   0.70391   0.51550   0.00000  Uiso   1.00
C322   C     0.81998   0.74109   0.51616   0.00000  Uiso   1.00
C323   C     0.73010   0.77005   0.50402   0.00000  Uiso   1.00
C324   C     0.74156   0.81998   0.49164   0.00000  Uiso   1.00
C325   C     0.70451   0.85724   0.49150   0.00000  Uiso   1.00
X326   C     0.65450   0.84591   0.50319   0.00000  Uiso   1.00
C327   C     0.64289   0.79610   0.51550   0.00000  Uiso   1.00
C328   C     0.68003   0.75893   0.51616   0.00000  Uiso   1.00
H329   H     0.78496   0.60506   0.48144   0.00000  Uiso   1.00
H330   H     0.89500   0.71422   0.52518   0.00000  Uiso   1.00
H331   H     0.71505   0.89496   0.48144   0.00000  Uiso   1.00
H332   H     0.60501   0.78580   0.52518   0.00000  Uiso   1.00
H333   H     0.83063   0.77854   0.52692   0.00000  Uiso   1.00
H334   H     0.77914   0.83039   0.48111   0.00000  Uiso   1.00
H335   H     0.72087   0.66963   0.48111   0.00000  Uiso   1.00
H336   H     0.66938   0.72148   0.52692   0.00000  Uiso   1.00
C337   C     0.23010   0.27005   0.50402   0.00000  Uiso   1.00
C338   C     0.18003   0.25893   0.51616   0.00000  Uiso   1.00
C339   C     0.14289   0.29610   0.51550   0.00000  Uiso   1.00
X340   C     0.15450   0.34591   0.50319   0.00000  Uiso   1.00
C341   C     0.20451   0.35724   0.49150   0.00000  Uiso   1.00
C342   C     0.24156   0.31998   0.49164   0.00000  Uiso   1.00
C343   C     0.26991   0.22996   0.50402   0.00000  Uiso   1.00
C344   C     0.31998   0.24109   0.51616   0.00000  Uiso   1.00
C345   C     0.35712   0.20391   0.51550   0.00000  Uiso   1.00
X346   C     0.34551   0.15411   0.50319   0.00000  Uiso   1.00
C347   C     0.29550   0.14277   0.49150   0.00000  Uiso   1.00
C348   C     0.25845   0.18003   0.49164   0.00000  Uiso   1.00
H349   H     0.10501   0.28580   0.52518   0.00000  Uiso   1.00
H350   H     0.21505   0.39496   0.48144   0.00000  Uiso   1.00
H351   H     0.39500   0.21422   0.52518   0.00000  Uiso   1.00
H352   H     0.28496   0.10506   0.48144   0.00000  Uiso   1.00
H353   H     0.27914   0.33039   0.48111   0.00000  Uiso   1.00
H354   H     0.33063   0.27854   0.52692   0.00000  Uiso   1.00
H355   H     0.16938   0.22148   0.52692   0.00000  Uiso   1.00
H356   H     0.22087   0.16963   0.48111   0.00000  Uiso   1.00
C357   C     0.22996   0.76991   0.00412   0.00000  Uiso   1.00
C358   C     0.18002   0.75843  -0.00822   0.00000  Uiso   1.00
C359   C     0.14276   0.79546  -0.00837   0.00000  Uiso   1.00
X360   C     0.15411   0.84548   0.00327   0.00000  Uiso   1.00
C361   C     0.20391   0.85711   0.01554   0.00000  Uiso   1.00
C362   C     0.24108   0.81999   0.01622   0.00000  Uiso   1.00
C363   C     0.27005   0.73011   0.00412   0.00000  Uiso   1.00
C364   C     0.31999   0.74159  -0.00822   0.00000  Uiso   1.00
C365   C     0.35725   0.70455  -0.00837   0.00000  Uiso   1.00
X366   C     0.34590   0.65453   0.00327   0.00000  Uiso   1.00
C367   C     0.29610   0.64290   0.01554   0.00000  Uiso   1.00
C368   C     0.25893   0.68003   0.01622   0.00000  Uiso   1.00
H369   H     0.10504   0.78491  -0.01839   0.00000  Uiso   1.00
H370   H     0.21422   0.89501   0.02518   0.00000  Uiso   1.00
H371   H     0.39497   0.71510  -0.01839   0.00000  Uiso   1.00
H372   H     0.28579   0.60501   0.02518   0.00000  Uiso   1.00
H373   H     0.27854   0.83065   0.02695   0.00000  Uiso   1.00
H374   H     0.33039   0.77918  -0.01872   0.00000  Uiso   1.00
H375   H     0.16962   0.72084  -0.01872   0.00000  Uiso   1.00
H376   H     0.22147   0.66936   0.02695   0.00000  Uiso   1.00
C377   C    -0.00367   0.22999   0.23007   0.00000  Uiso   1.00
C378   C     0.00842   0.17999   0.24150   0.00000  Uiso   1.00
C379   C     0.00849   0.14278   0.20442   0.00000  Uiso   1.00
X380   C    -0.00302   0.15424   0.15438   0.00000  Uiso   1.00
C381   C    -0.01498   0.20413   0.14279   0.00000  Uiso   1.00
C382   C    -0.01556   0.24125   0.17997   0.00000  Uiso   1.00
C383   C    -0.00365   0.27001   0.26995   0.00000  Uiso   1.00
C384   C     0.00902   0.31990   0.25861   0.00000  Uiso   1.00
C385   C     0.00910   0.35711   0.29570   0.00000  Uiso   1.00
X386   C    -0.00294   0.34576   0.34562   0.00000  Uiso   1.00
C387   C    -0.01550   0.29600   0.35712   0.00000  Uiso   1.00
C388   C    -0.01611   0.25887   0.31994   0.00000  Uiso   1.00
H389   H     0.01833   0.10500   0.21494   0.00000  Uiso   1.00
H390   H    -0.02445   0.21453   0.10488   0.00000  Uiso   1.00
H391   H     0.01940   0.39479   0.28526   0.00000  Uiso   1.00
H392   H    -0.02544   0.28571   0.39494   0.00000  Uiso   1.00
H393   H    -0.02606   0.27878   0.16933   0.00000  Uiso   1.00
H394   H     0.01981   0.33029   0.22110   0.00000  Uiso   1.00
H395   H     0.01878   0.16949   0.27911   0.00000  Uiso   1.00
H396   H    -0.02708   0.22145   0.33048   0.00000  Uiso   1.00
C397   C     0.49581   0.27004   0.76991   0.00000  Uiso   1.00
C398   C     0.48403   0.25879   0.82004   0.00000  Uiso   1.00
C399   C     0.48471   0.29592   0.85722   0.00000  Uiso   1.00
X400   C     0.49663   0.34581   0.84559   0.00000  Uiso   1.00
C401   C     0.50796   0.35726   0.79552   0.00000  Uiso   1.00
C402   C     0.50782   0.32005   0.75844   0.00000  Uiso   1.00
C403   C     0.49582   0.22999   0.73004   0.00000  Uiso   1.00
C404   C     0.48347   0.24112   0.68002   0.00000  Uiso   1.00
C405   C     0.48418   0.20399   0.64284   0.00000  Uiso   1.00
X406   C     0.49671   0.15423   0.65437   0.00000  Uiso   1.00
C407   C     0.50858   0.14288   0.70434   0.00000  Uiso   1.00
C408   C     0.50842   0.18010   0.74141   0.00000  Uiso   1.00
H409   H     0.47535   0.28551   0.89515   0.00000  Uiso   1.00
H410   H     0.51771   0.39505   0.78495   0.00000  Uiso   1.00
H411   H     0.47434   0.21428   0.60499   0.00000  Uiso   1.00
H412   H     0.51881   0.10519   0.71481   0.00000  Uiso   1.00
H413   H     0.51808   0.33056   0.72081   0.00000  Uiso   1.00
H414   H     0.47253   0.27854   0.66944   0.00000  Uiso   1.00
H415   H     0.47357   0.22126   0.83072   0.00000  Uiso   1.00
H416   H     0.51912   0.16969   0.77895   0.00000  Uiso   1.00
C417   C    -0.00419   0.77004   0.76991   0.00000  Uiso   1.00
C418   C    -0.01597   0.75879   0.82004   0.00000  Uiso   1.00
C419   C    -0.01529   0.79592   0.85722   0.00000  Uiso   1.00
X420   C    -0.00337   0.84581   0.84559   0.00000  Uiso   1.00
C421   C     0.00796   0.85726   0.79552   0.00000  Uiso   1.00
C422   C     0.00782   0.82005   0.75844   0.00000  Uiso   1.00
C423   C    -0.00418   0.72999   0.73004   0.00000  Uiso   1.00
C424   C    -0.01653   0.74112   0.68002   0.00000  Uiso   1.00
C425   C    -0.01582   0.70399   0.64284   0.00000  Uiso   1.00
X426   C    -0.00329   0.65423   0.65437   0.00000  Uiso   1.00
C427   C     0.00858   0.64288   0.70434   0.00000  Uiso   1.00
C428   C     0.00842   0.68010   0.74141   0.00000  Uiso   1.00
H429   H    -0.02465   0.78551   0.89515   0.00000  Uiso   1.00
H430   H     0.01771   0.89505   0.78495   0.00000  Uiso   1.00
H431   H    -0.02566   0.71428   0.60499   0.00000  Uiso   1.00
H432   H     0.01881   0.60519   0.71481   0.00000  Uiso   1.00
H433   H     0.01807   0.83056   0.72081   0.00000  Uiso   1.00
H434   H    -0.02747   0.77854   0.66944   0.00000  Uiso   1.00
H435   H    -0.02643   0.72126   0.83072   0.00000  Uiso   1.00
H436   H     0.01912   0.66969   0.77895   0.00000  Uiso   1.00
C437   C     0.49633   0.72999   0.23007   0.00000  Uiso   1.00
C438   C     0.50842   0.67999   0.24150   0.00000  Uiso   1.00
C439   C     0.50849   0.64278   0.20442   0.00000  Uiso   1.00
X440   C     0.49698   0.65424   0.15438   0.00000  Uiso   1.00
C441   C     0.48502   0.70413   0.14279   0.00000  Uiso   1.00
C442   C     0.48444   0.74125   0.17997   0.00000  Uiso   1.00
C443   C     0.49635   0.77001   0.26995   0.00000  Uiso   1.00
C444   C     0.50902   0.81990   0.25861   0.00000  Uiso   1.00
C445   C     0.50910   0.85711   0.29570   0.00000  Uiso   1.00
X446   C     0.49706   0.84576   0.34562   0.00000  Uiso   1.00
C447   C     0.48450   0.79600   0.35712   0.00000  Uiso   1.00
C448   C     0.48389   0.75887   0.31994   0.00000  Uiso   1.00
H449   H     0.51833   0.60500   0.21494   0.00000  Uiso   1.00
H450   H     0.47555   0.71453   0.10488   0.00000  Uiso   1.00
H451   H     0.51940   0.89479   0.28526   0.00000  Uiso   1.00
H452   H     0.47456   0.78571   0.39494   0.00000  Uiso   1.00
H453   H     0.47394   0.77878   0.16933   0.00000  Uiso   1.00
H454   H     0.51981   0.83029   0.22110   0.00000  Uiso   1.00
H455   H     0.51878   0.66949   0.27911   0.00000  Uiso   1.00
H456   H     0.47292   0.72145   0.33048   0.00000  Uiso   1.00
C457   C     0.00367   0.77002   0.23007   0.00000  Uiso   1.00
C458   C     0.01557   0.75876   0.17997   0.00000  Uiso   1.00
C459   C     0.01499   0.79589   0.14279   0.00000  Uiso   1.00
X460   C     0.00303   0.84578   0.15438   0.00000  Uiso   1.00
C461   C    -0.00848   0.85723   0.20442   0.00000  Uiso   1.00
C462   C    -0.00842   0.82003   0.24150   0.00000  Uiso   1.00
C463   C     0.00366   0.73000   0.26995   0.00000  Uiso   1.00
C464   C     0.01612   0.74114   0.31994   0.00000  Uiso   1.00
C465   C     0.01551   0.70402   0.35712   0.00000  Uiso   1.00
X466   C     0.00295   0.65426   0.34562   0.00000  Uiso   1.00
C467   C    -0.00910   0.64291   0.29570   0.00000  Uiso   1.00
C468   C    -0.00901   0.68012   0.25861   0.00000  Uiso   1.00
H469   H     0.02446   0.78549   0.10488   0.00000  Uiso   1.00
H470   H    -0.01832   0.89501   0.21494   0.00000  Uiso   1.00
H471   H     0.02545   0.71431   0.39494   0.00000  Uiso   1.00
H472   H    -0.01939   0.60523   0.28526   0.00000  Uiso   1.00
H473   H    -0.01877   0.83053   0.27911   0.00000  Uiso   1.00
H474   H     0.02709   0.77856   0.33048   0.00000  Uiso   1.00
H475   H     0.02607   0.72124   0.16933   0.00000  Uiso   1.00
H476   H    -0.01980   0.66972   0.22110   0.00000  Uiso   1.00
C477   C     0.50420   0.72998   0.76991   0.00000  Uiso   1.00
C478   C     0.49219   0.67997   0.75844   0.00000  Uiso   1.00
C479   C     0.49205   0.64275   0.79552   0.00000  Uiso   1.00
X480   C     0.50338   0.65421   0.84559   0.00000  Uiso   1.00
C481   C     0.51530   0.70410   0.85722   0.00000  Uiso   1.00
C482   C     0.51597   0.74123   0.82004   0.00000  Uiso   1.00
C483   C     0.50419   0.77002   0.73004   0.00000  Uiso   1.00
C484   C     0.49159   0.81992   0.74141   0.00000  Uiso   1.00
C485   C     0.49143   0.85713   0.70434   0.00000  Uiso   1.00
X486   C     0.50330   0.84579   0.65437   0.00000  Uiso   1.00
C487   C     0.51583   0.79603   0.64284   0.00000  Uiso   1.00
C488   C     0.51654   0.75890   0.68002   0.00000  Uiso   1.00
H489   H     0.48230   0.60497   0.78495   0.00000  Uiso   1.00
H490   H     0.52466   0.71451   0.89515   0.00000  Uiso   1.00
H491   H     0.48120   0.89482   0.71481   0.00000  Uiso   1.00
H492   H     0.52567   0.78573   0.60499   0.00000  Uiso   1.00
H493   H     0.52644   0.77876   0.83072   0.00000  Uiso   1.00
H494   H     0.48089   0.83033   0.77895   0.00000  Uiso   1.00
H495   H     0.48193   0.66945   0.72081   0.00000  Uiso   1.00
H496   H     0.52748   0.72148   0.66944   0.00000  Uiso   1.00
C497   C     0.50367   0.27002   0.23007   0.00000  Uiso   1.00
C498   C     0.51557   0.25876   0.17997   0.00000  Uiso   1.00
C499   C     0.51499   0.29589   0.14279   0.00000  Uiso   1.00
X500   C     0.50303   0.34578   0.15438   0.00000  Uiso   1.00
C501   C     0.49152   0.35723   0.20442   0.00000  Uiso   1.00
C502   C     0.49158   0.32003   0.24150   0.00000  Uiso   1.00
C503   C     0.50366   0.23000   0.26995   0.00000  Uiso   1.00
C504   C     0.51612   0.24114   0.31994   0.00000  Uiso   1.00
C505   C     0.51551   0.20402   0.35712   0.00000  Uiso   1.00
X506   C     0.50295   0.15426   0.34562   0.00000  Uiso   1.00
C507   C     0.49090   0.14291   0.29570   0.00000  Uiso   1.00
C508   C     0.49099   0.18012   0.25861   0.00000  Uiso   1.00
H509   H     0.52446   0.28549   0.10488   0.00000  Uiso   1.00
H510   H     0.48168   0.39501   0.21494   0.00000  Uiso   1.00
H511   H     0.52545   0.21431   0.39494   0.00000  Uiso   1.00
H512   H     0.48061   0.10523   0.28526   0.00000  Uiso   1.00
H513   H     0.48123   0.33053   0.27911   0.00000  Uiso   1.00
H514   H     0.52709   0.27856   0.33048   0.00000  Uiso   1.00
H515   H     0.52607   0.22124   0.16933   0.00000  Uiso   1.00
H516   H     0.48020   0.16972   0.22110   0.00000  Uiso   1.00
C517   C     0.00420   0.22998   0.76991   0.00000  Uiso   1.00
C518   C    -0.00781   0.17997   0.75844   0.00000  Uiso   1.00
C519   C    -0.00795   0.14275   0.79552   0.00000  Uiso   1.00
X520   C     0.00338   0.15421   0.84559   0.00000  Uiso   1.00
C521   C     0.01530   0.20410   0.85722   0.00000  Uiso   1.00
C522   C     0.01597   0.24123   0.82004   0.00000  Uiso   1.00
C523   C     0.00419   0.27002   0.73004   0.00000  Uiso   1.00
C524   C    -0.00841   0.31992   0.74141   0.00000  Uiso   1.00
C525   C    -0.00857   0.35713   0.70434   0.00000  Uiso   1.00
X526   C     0.00330   0.34579   0.65437   0.00000  Uiso   1.00
C527   C     0.01583   0.29603   0.64284   0.00000  Uiso   1.00
C528   C     0.01654   0.25890   0.68002   0.00000  Uiso   1.00
H529   H    -0.01770   0.10497   0.78495   0.00000  Uiso   1.00
H530   H     0.02466   0.21451   0.89515   0.00000  Uiso   1.00
H531   H    -0.01880   0.39482   0.71481   0.00000  Uiso   1.00
H532   H     0.02567   0.28573   0.60499   0.00000  Uiso   1.00
H533   H     0.02644   0.27876   0.83072   0.00000  Uiso   1.00
H534   H    -0.01911   0.33033   0.77895   0.00000  Uiso   1.00
H535   H    -0.01807   0.16945   0.72081   0.00000  Uiso   1.00
H536   H     0.02748   0.22148   0.66944   0.00000  Uiso   1.00
C537   C     0.23000  -0.00401   0.23004   0.00000  Uiso   1.00
C538   C     0.24112  -0.01647   0.18005   0.00000  Uiso   1.00
C539   C     0.20399  -0.01585   0.14288   0.00000  Uiso   1.00
X540   C     0.15423  -0.00326   0.15438   0.00000  Uiso   1.00
C541   C     0.14290   0.00879   0.20431   0.00000  Uiso   1.00
C542   C     0.18012   0.00868   0.24139   0.00000  Uiso   1.00
C543   C     0.27003  -0.00402   0.26990   0.00000  Uiso   1.00
C544   C     0.25879  -0.01593   0.32000   0.00000  Uiso   1.00
C545   C     0.29592  -0.01533   0.35717   0.00000  Uiso   1.00
X546   C     0.34580  -0.00334   0.34557   0.00000  Uiso   1.00
C547   C     0.35724   0.00818   0.29553   0.00000  Uiso   1.00
C548   C     0.32002   0.00810   0.25845   0.00000  Uiso   1.00
H549   H     0.21426  -0.02579   0.10505   0.00000  Uiso   1.00
H550   H     0.10523   0.01911   0.21475   0.00000  Uiso   1.00
H551   H     0.28553  -0.02481   0.39508   0.00000  Uiso   1.00
H552   H     0.39501   0.01804   0.28500   0.00000  Uiso   1.00
H553   H     0.16974   0.01948   0.27890   0.00000  Uiso   1.00
H554   H     0.22127  -0.02645   0.33064   0.00000  Uiso   1.00
H555   H     0.27853  -0.02746   0.16950   0.00000  Uiso   1.00
H556   H     0.33051   0.01846   0.22085   0.00000  Uiso   1.00
C557   C     0.26993   0.49632   0.77000   0.00000  Uiso   1.00
C558   C     0.32008   0.48466   0.75873   0.00000  Uiso   1.00
C559   C     0.35724   0.48527   0.79587   0.00000  Uiso   1.00
X560   C     0.34559   0.49704   0.84580   0.00000  Uiso   1.00
C561   C     0.29550   0.50828   0.85727   0.00000  Uiso   1.00
C562   C     0.25843   0.50820   0.82004   0.00000  Uiso   1.00
C563   C     0.23006   0.49632   0.72996   0.00000  Uiso   1.00
C564   C     0.18007   0.48382   0.74107   0.00000  Uiso   1.00
C565   C     0.14290   0.48441   0.70393   0.00000  Uiso   1.00
X566   C     0.15439   0.49697   0.65417   0.00000  Uiso   1.00
C567   C     0.20431   0.50908   0.64285   0.00000  Uiso   1.00
C568   C     0.24138   0.50903   0.68008   0.00000  Uiso   1.00
H569   H     0.39519   0.47599   0.78545   0.00000  Uiso   1.00
H570   H     0.28491   0.51791   0.89508   0.00000  Uiso   1.00
H571   H     0.10508   0.47446   0.71422   0.00000  Uiso   1.00
H572   H     0.21475   0.51940   0.60517   0.00000  Uiso   1.00
H573   H     0.22078   0.51837   0.83058   0.00000  Uiso   1.00
H574   H     0.16952   0.47282   0.77847   0.00000  Uiso   1.00
H575   H     0.33078   0.47431   0.72118   0.00000  Uiso   1.00
H576   H     0.27888   0.51987   0.66969   0.00000  Uiso   1.00
C577   C     0.76993  -0.00368   0.77000   0.00000  Uiso   1.00
C578   C     0.82008  -0.01534   0.75873   0.00000  Uiso   1.00
C579   C     0.85724  -0.01473   0.79587   0.00000  Uiso   1.00
X580   C     0.84559  -0.00296   0.84580   0.00000  Uiso   1.00
C581   C     0.79550   0.00828   0.85727   0.00000  Uiso   1.00
C582   C     0.75843   0.00820   0.82004   0.00000  Uiso   1.00
C583   C     0.73006  -0.00368   0.72996   0.00000  Uiso   1.00
C584   C     0.68007  -0.01618   0.74107   0.00000  Uiso   1.00
C585   C     0.64290  -0.01559   0.70393   0.00000  Uiso   1.00
X586   C     0.65439  -0.00303   0.65417   0.00000  Uiso   1.00
C587   C     0.70431   0.00908   0.64285   0.00000  Uiso   1.00
C588   C     0.74138   0.00903   0.68008   0.00000  Uiso   1.00
H589   H     0.89519  -0.02401   0.78545   0.00000  Uiso   1.00
H590   H     0.78491   0.01791   0.89508   0.00000  Uiso   1.00
H591   H     0.60508  -0.02554   0.71422   0.00000  Uiso   1.00
H592   H     0.71475   0.01940   0.60517   0.00000  Uiso   1.00
H593   H     0.72078   0.01837   0.83058   0.00000  Uiso   1.00
H594   H     0.66952  -0.02718   0.77847   0.00000  Uiso   1.00
H595   H     0.83078  -0.02569   0.72118   0.00000  Uiso   1.00
H596   H     0.77888   0.01987   0.66969   0.00000  Uiso   1.00
C597   C     0.73000   0.49599   0.23004   0.00000  Uiso   1.00
C598   C     0.74112   0.48353   0.18005   0.00000  Uiso   1.00
C599   C     0.70399   0.48415   0.14288   0.00000  Uiso   1.00
X600   C     0.65423   0.49674   0.15438   0.00000  Uiso   1.00
C601   C     0.64290   0.50879   0.20431   0.00000  Uiso   1.00
C602   C     0.68012   0.50868   0.24139   0.00000  Uiso   1.00
C603   C     0.77003   0.49598   0.26990   0.00000  Uiso   1.00
C604   C     0.75879   0.48407   0.32000   0.00000  Uiso   1.00
C605   C     0.79592   0.48467   0.35717   0.00000  Uiso   1.00
X606   C     0.84580   0.49666   0.34557   0.00000  Uiso   1.00
C607   C     0.85724   0.50818   0.29553   0.00000  Uiso   1.00
C608   C     0.82002   0.50810   0.25845   0.00000  Uiso   1.00
H609   H     0.71426   0.47421   0.10505   0.00000  Uiso   1.00
H610   H     0.60523   0.51911   0.21475   0.00000  Uiso   1.00
H611   H     0.78553   0.47519   0.39508   0.00000  Uiso   1.00
H612   H     0.89501   0.51804   0.28500   0.00000  Uiso   1.00
H613   H     0.66974   0.51948   0.27890   0.00000  Uiso   1.00
H614   H     0.72127   0.47355   0.33064   0.00000  Uiso   1.00
H615   H     0.77853   0.47254   0.16950   0.00000  Uiso   1.00
H616   H     0.83051   0.51846   0.22085   0.00000  Uiso   1.00
C617   C     0.23008   0.00369   0.77000   0.00000  Uiso   1.00
C618   C     0.17993   0.01536   0.75873   0.00000  Uiso   1.00
C619   C     0.14277   0.01475   0.79587   0.00000  Uiso   1.00
X620   C     0.15442   0.00298   0.84580   0.00000  Uiso   1.00
C621   C     0.20451  -0.00826   0.85727   0.00000  Uiso   1.00
C622   C     0.24158  -0.00818   0.82004   0.00000  Uiso   1.00
C623   C     0.26995   0.00370   0.72996   0.00000  Uiso   1.00
C624   C     0.31994   0.01620   0.74107   0.00000  Uiso   1.00
C625   C     0.35711   0.01561   0.70393   0.00000  Uiso   1.00
X626   C     0.34562   0.00305   0.65417   0.00000  Uiso   1.00
C627   C     0.29570  -0.00906   0.64285   0.00000  Uiso   1.00
C628   C     0.25863  -0.00901   0.68008   0.00000  Uiso   1.00
H629   H     0.10482   0.02403   0.78545   0.00000  Uiso   1.00
H630   H     0.21510  -0.01790   0.89508   0.00000  Uiso   1.00
H631   H     0.39493   0.02556   0.71422   0.00000  Uiso   1.00
H632   H     0.28526  -0.01938   0.60517   0.00000  Uiso   1.00
H633   H     0.27923  -0.01835   0.83058   0.00000  Uiso   1.00
H634   H     0.33049   0.02720   0.77847   0.00000  Uiso   1.00
H635   H     0.16923   0.02571   0.72118   0.00000  Uiso   1.00
H636   H     0.22113  -0.01986   0.66969   0.00000  Uiso   1.00
C637   C     0.27001   0.50402   0.23004   0.00000  Uiso   1.00
C638   C     0.25889   0.51649   0.18005   0.00000  Uiso   1.00
C639   C     0.29602   0.51587   0.14288   0.00000  Uiso   1.00
X640   C     0.34578   0.50328   0.15438   0.00000  Uiso   1.00
C641   C     0.35710   0.49123   0.20431   0.00000  Uiso   1.00
C642   C     0.31989   0.49133   0.24139   0.00000  Uiso   1.00
C643   C     0.22998   0.50404   0.26990   0.00000  Uiso   1.00
C644   C     0.24122   0.51594   0.32000   0.00000  Uiso   1.00
C645   C     0.20409   0.51535   0.35717   0.00000  Uiso   1.00
X646   C     0.15421   0.50336   0.34557   0.00000  Uiso   1.00
C647   C     0.14277   0.49184   0.29553   0.00000  Uiso   1.00
C648   C     0.17999   0.49192   0.25845   0.00000  Uiso   1.00
H649   H     0.28575   0.52581   0.10505   0.00000  Uiso   1.00
H650   H     0.39478   0.48091   0.21475   0.00000  Uiso   1.00
H651   H     0.21448   0.52483   0.39508   0.00000  Uiso   1.00
H652   H     0.10500   0.48197   0.28500   0.00000  Uiso   1.00
H653   H     0.33027   0.48054   0.27890   0.00000  Uiso   1.00
H654   H     0.27874   0.52646   0.33064   0.00000  Uiso   1.00
H655   H     0.22147   0.52747   0.16950   0.00000  Uiso   1.00
H656   H     0.16950   0.48156   0.22085   0.00000  Uiso   1.00
C657   C     0.77001   0.00402   0.23004   0.00000  Uiso   1.00
C658   C     0.75889   0.01649   0.18005   0.00000  Uiso   1.00
C659   C     0.79602   0.01587   0.14288   0.00000  Uiso   1.00
X660   C     0.84578   0.00328   0.15438   0.00000  Uiso   1.00
C661   C     0.85710  -0.00877   0.20431   0.00000  Uiso   1.00
C662   C     0.81989  -0.00867   0.24139   0.00000  Uiso   1.00
C663   C     0.72998   0.00404   0.26990   0.00000  Uiso   1.00
C664   C     0.74122   0.01594   0.32000   0.00000  Uiso   1.00
C665   C     0.70409   0.01535   0.35717   0.00000  Uiso   1.00
X666   C     0.65421   0.00336   0.34557   0.00000  Uiso   1.00
C667   C     0.64277  -0.00816   0.29553   0.00000  Uiso   1.00
C668   C     0.67999  -0.00808   0.25845   0.00000  Uiso   1.00
H669   H     0.78575   0.02581   0.10505   0.00000  Uiso   1.00
H670   H     0.89478  -0.01909   0.21475   0.00000  Uiso   1.00
H671   H     0.71448   0.02483   0.39508   0.00000  Uiso   1.00
H672   H     0.60500  -0.01803   0.28500   0.00000  Uiso   1.00
H673   H     0.83027  -0.01946   0.27890   0.00000  Uiso   1.00
H674   H     0.77874   0.02646   0.33064   0.00000  Uiso   1.00
H675   H     0.72147   0.02747   0.16950   0.00000  Uiso   1.00
H676   H     0.66950  -0.01844   0.22085   0.00000  Uiso   1.00
C677   C     0.73008   0.50369   0.77000   0.00000  Uiso   1.00
C678   C     0.67993   0.51536   0.75873   0.00000  Uiso   1.00
C679   C     0.64277   0.51475   0.79587   0.00000  Uiso   1.00
X680   C     0.65442   0.50298   0.84580   0.00000  Uiso   1.00
C681   C     0.70451   0.49174   0.85727   0.00000  Uiso   1.00
C682   C     0.74158   0.49182   0.82004   0.00000  Uiso   1.00
C683   C     0.76995   0.50370   0.72996   0.00000  Uiso   1.00
C684   C     0.81994   0.51620   0.74107   0.00000  Uiso   1.00
C685   C     0.85711   0.51561   0.70393   0.00000  Uiso   1.00
X686   C     0.84562   0.50305   0.65417   0.00000  Uiso   1.00
C687   C     0.79570   0.49094   0.64285   0.00000  Uiso   1.00
C688   C     0.75863   0.49099   0.68008   0.00000  Uiso   1.00
H689   H     0.60482   0.52403   0.78545   0.00000  Uiso   1.00
H690   H     0.71510   0.48210   0.89508   0.00000  Uiso   1.00
H691   H     0.89493   0.52556   0.71422   0.00000  Uiso   1.00
H692   H     0.78526   0.48062   0.60517   0.00000  Uiso   1.00
H693   H     0.77923   0.48165   0.83058   0.00000  Uiso   1.00
H694   H     0.83049   0.52720   0.77847   0.00000  Uiso   1.00
H695   H     0.66923   0.52571   0.72118   0.00000  Uiso   1.00
H696   H     0.72113   0.48014   0.66969   0.00000  Uiso   1.00
loop_
_geom_bond_atom_site_label_1
_geom_bond_atom_site_label_2
_geom_bond_distance
_geom_bond_site_symmetry_2
_ccdc_geom_bond_type
O1     Zr37    2.127   .     S
O1     X12     1.303   .     A
O2     Zr36    2.129   .     S
O2     X13     1.304   .     A
O3     Zr9     2.128   .     S
O3     X14     1.303   .     A
O4     Zr9     2.128   .     S
O4     X15     1.303   .     A
O5     Zr39    2.127   .     S
O5     X15     1.303   .     A
O6     Zr38    2.127   .     S
O6     X14     1.303   .     A
O7     Zr9     2.126   .     S
O7     X13     1.303   .     A
O8     Zr9     2.127   .     S
O8     X12     1.303   .     A
Zr9    O10     2.069   .     S
Zr9    O11     2.069   .     S
Zr9    O19     2.064   .     S
Zr9    O17     2.065   .     S
O10    Zr36    2.069   .     S
O10    Zr39    2.069   .     S
O11    Zr37    2.069   .     S
O11    Zr38    2.069   .     S
X12    X300    1.503   1_455 S
X13    X220    1.503   .     S
X14    X380    1.503   .     S
X15    X520    1.503   1_554 S
H16    O17     0.988   .     S
O17    Zr36    2.064   .     S
O17    Zr38    2.064   .     S
H18    O19     0.989   .     S
O19    Zr37    2.064   .     S
O19    Zr39    2.064   .     S
O20    Zr36    2.127   .     S
O20    X43     1.303   .     A
O21    Zr37    2.129   .     S
O21    X44     1.304   .     A
O22    Zr38    2.127   .     S
O22    X45     1.303   .     A
O23    Zr39    2.128   .     S
O23    X46     1.303   .     A
O24    Zr39    2.128   .     S
O24    X47     1.303   .     A
O25    Zr38    2.127   .     S
O25    X48     1.303   .     A
O26    Zr40    2.128   .     S
O26    X49     1.303   .     A
O27    Zr40    2.128   .     S
O27    X50     1.303   .     A
O28    Zr38    2.127   .     S
O28    X49     1.303   .     A
O29    Zr39    2.127   .     S
O29    X50     1.303   .     A
O30    Zr36    2.128   .     S
O30    X45     1.303   .     A
O31    Zr37    2.128   .     S
O31    X48     1.303   .     A
O32    Zr37    2.127   .     S
O32    X47     1.303   .     A
O33    Zr36    2.127   .     S
O33    X46     1.303   .     A
O34    Zr40    2.127   .     S
O34    X43     1.303   .     A
O35    Zr40    2.126   .     S
O35    X44     1.303   .     A
Zr36   O42     2.069   .     S
Zr36   O54     2.064   .     S
Zr37   O41     2.069   .     S
Zr37   O52     2.064   .     S
Zr38   O42     2.069   .     S
Zr38   O52     2.064   .     S
Zr39   O41     2.069   .     S
Zr39   O54     2.064   .     S
Zr40   O41     2.069   .     S
Zr40   O42     2.069   .     S
Zr40   O54     2.064   .     S
Zr40   O52     2.065   .     S
X43    X360    1.503   1_545 S
X44    X260    1.503   1_445 S
X45    X540    1.503   .     S
X46    X620    1.503   1_554 S
X47    X580    1.503   1_454 S
X48    X660    1.503   1_455 S
X49    X460    1.503   1_545 S
X50    X420    1.503   1_544 S
H51    O52     0.988   .     S
H53    O54     0.989   .     S
O55    Zr91    2.127   .     S
O55    X66     1.303   .     A
O56    Zr90    2.129   .     S
O56    X67     1.304   .     A
O57    Zr63    2.128   .     S
O57    X68     1.303   .     A
O58    Zr63    2.128   .     S
O58    X69     1.303   .     A
O59    Zr93    2.127   .     S
O59    X69     1.303   .     A
O60    Zr92    2.127   .     S
O60    X68     1.303   .     A
O61    Zr63    2.126   .     S
O61    X67     1.303   .     A
O62    Zr63    2.127   .     S
O62    X66     1.303   .     A
Zr63   O64     2.069   .     S
Zr63   O65     2.069   .     S
Zr63   O73     2.064   .     S
Zr63   O71     2.065   .     S
O64    Zr90    2.069   .     S
O64    Zr93    2.069   .     S
O65    Zr91    2.069   .     S
O65    Zr92    2.069   .     S
X66    X366    1.503   .     S
X67    X266    1.503   .     S
X68    X440    1.503   .     S
X69    X480    1.503   1_554 S
H70    O71     0.988   .     S
O71    Zr90    2.064   .     S
O71    Zr92    2.064   .     S
H72    O73     0.989   .     S
O73    Zr91    2.064   .     S
O73    Zr93    2.064   .     S
O74    Zr90    2.127   .     S
O74    X97     1.303   .     A
O75    Zr91    2.129   .     S
O75    X98     1.304   .     A
O76    Zr92    2.127   .     S
O76    X99     1.303   .     A
O77    Zr93    2.128   .     S
O77    X100    1.303   .     A
O78    Zr93    2.128   .     S
O78    X101    1.303   .     A
O79    Zr92    2.127   .     S
O79    X102    1.303   .     A
O80    Zr94    2.128   .     S
O80    X103    1.303   .     A
O81    Zr94    2.128   .     S
O81    X104    1.303   .     A
O82    Zr92    2.127   .     S
O82    X103    1.303   .     A
O83    Zr93    2.127   .     S
O83    X104    1.303   .     A
O84    Zr90    2.128   .     S
O84    X99     1.303   .     A
O85    Zr91    2.128   .     S
O85    X102    1.303   .     A
O86    Zr91    2.127   .     S
O86    X101    1.303   .     A
O87    Zr90    2.127   .     S
O87    X100    1.303   .     A
O88    Zr94    2.127   .     S
O88    X97     1.303   .     A
O89    Zr94    2.126   .     S
O89    X98     1.303   .     A
Zr90   O96     2.069   .     S
Zr90   O108    2.064   .     S
Zr91   O95     2.069   .     S
Zr91   O106    2.064   .     S
Zr92   O96     2.069   .     S
Zr92   O106    2.064   .     S
Zr93   O95     2.069   .     S
Zr93   O108    2.064   .     S
Zr94   O95     2.069   .     S
Zr94   O96     2.069   .     S
Zr94   O108    2.064   .     S
Zr94   O106    2.065   .     S
X97    X306    1.503   .     S
X98    X226    1.503   .     S
X99    X600    1.503   .     S
X100   X680    1.503   1_554 S
X101   X560    1.503   1_554 S
X102   X640    1.503   .     S
X103   X500    1.503   .     S
X104   X400    1.503   1_554 S
H105   O106    0.988   .     S
H107   O108    0.989   .     S
O109   Zr145   2.128   .     S
O109   X120    1.303   .     A
O110   Zr144   2.126   .     S
O110   X121    1.303   .     A
O111   Zr117   2.128   .     S
O111   X122    1.303   .     A
O112   Zr117   2.128   .     S
O112   X123    1.303   .     A
O113   Zr147   2.127   .     S
O113   X123    1.303   .     A
O114   Zr146   2.127   .     S
O114   X122    1.303   .     A
O115   Zr117   2.128   .     S
O115   X121    1.303   .     A
O116   Zr117   2.127   .     S
O116   X120    1.303   .     A
Zr117  O118    2.069   .     S
Zr117  O119    2.069   .     S
Zr117  O127    2.065   .     S
Zr117  O125    2.064   .     S
O118   Zr144   2.069   .     S
O118   Zr147   2.069   .     S
O119   Zr145   2.069   .     S
O119   Zr146   2.069   .     S
X120   X320    1.503   1_455 S
X121   X240    1.503   .     S
X122   X426    1.503   .     S
X123   X466    1.503   .     S
H124   O125    0.988   .     S
O125   Zr144   2.064   .     S
O125   Zr146   2.064   .     S
H126   O127    0.989   .     S
O127   Zr145   2.064   .     S
O127   Zr147   2.064   .     S
O128   Zr144   2.128   .     S
O128   X151    1.303   .     A
O129   Zr145   2.126   .     S
O129   X152    1.303   .     A
O130   Zr146   2.128   .     S
O130   X153    1.303   .     A
O131   Zr147   2.127   .     S
O131   X154    1.303   .     A
O132   Zr147   2.127   .     S
O132   X155    1.303   .     A
O133   Zr146   2.128   .     S
O133   X156    1.303   .     A
O134   Zr148   2.128   .     S
O134   X157    1.303   .     A
O135   Zr148   2.128   .     S
O135   X158    1.303   .     A
O136   Zr146   2.127   .     S
O136   X157    1.303   .     A
O137   Zr147   2.127   .     S
O137   X158    1.303   .     A
O138   Zr144   2.127   .     S
O138   X153    1.303   .     A
O139   Zr145   2.127   .     S
O139   X156    1.303   .     A
O140   Zr145   2.128   .     S
O140   X155    1.303   .     A
O141   Zr144   2.128   .     S
O141   X154    1.303   .     A
O142   Zr148   2.127   .     S
O142   X151    1.303   .     A
O143   Zr148   2.128   .     S
O143   X152    1.303   .     A
Zr144  O150    2.069   .     S
Zr144  O162    2.064   .     S
Zr145  O149    2.069   .     S
Zr145  O160    2.064   .     S
Zr146  O150    2.069   .     S
Zr146  O160    2.064   .     S
Zr147  O149    2.069   .     S
Zr147  O162    2.064   .     S
Zr148  O149    2.069   .     S
Zr148  O150    2.069   .     S
Zr148  O162    2.065   .     S
Zr148  O160    2.064   .     S
X151   X340    1.503   .     S
X152   X280    1.503   1_455 S
X153   X566    1.503   .     S
X154   X646    1.503   .     S
X155   X606    1.503   1_455 S
X156   X686    1.503   1_455 S
X157   X526    1.503   .     S
X158   X386    1.503   .     S
H159   O160    0.988   .     S
H161   O162    0.989   .     S
O163   Zr199   2.128   .     S
O163   X174    1.303   .     A
O164   Zr198   2.126   .     S
O164   X175    1.303   .     A
O165   Zr171   2.128   .     S
O165   X176    1.303   .     A
O166   Zr171   2.128   .     S
O166   X177    1.303   .     A
O167   Zr201   2.127   .     S
O167   X177    1.303   .     A
O168   Zr200   2.127   .     S
O168   X176    1.303   .     A
O169   Zr171   2.128   .     S
O169   X175    1.303   .     A
O170   Zr171   2.127   .     S
O170   X174    1.303   .     A
Zr171  O172    2.069   .     S
Zr171  O173    2.069   .     S
Zr171  O181    2.065   .     S
Zr171  O179    2.064   .     S
O172   Zr198   2.069   .     S
O172   Zr201   2.069   .     S
O173   Zr199   2.069   .     S
O173   Zr200   2.069   .     S
X174   X346    1.503   .     S
X175   X286    1.503   .     S
X176   X406    1.503   .     S
X177   X506    1.503   .     S
H178   O179    0.988   .     S
O179   Zr198   2.064   .     S
O179   Zr200   2.064   .     S
H180   O181    0.989   .     S
O181   Zr199   2.064   .     S
O181   Zr201   2.064   .     S
O182   Zr198   2.128   .     S
O182   X205    1.303   .     A
O183   Zr199   2.126   .     S
O183   X206    1.303   .     A
O184   Zr200   2.128   .     S
O184   X207    1.303   .     A
O185   Zr201   2.127   .     S
O185   X208    1.303   .     A
O186   Zr201   2.127   .     S
O186   X209    1.303   .     A
O187   Zr200   2.128   .     S
O187   X210    1.303   .     A
O188   Zr202   2.128   .     S
O188   X211    1.303   .     A
O189   Zr202   2.128   .     S
O189   X212    1.303   .     A
O190   Zr200   2.127   .     S
O190   X211    1.303   .     A
O191   Zr201   2.127   .     S
O191   X212    1.303   .     A
O192   Zr198   2.127   .     S
O192   X207    1.303   .     A
O193   Zr199   2.127   .     S
O193   X210    1.303   .     A
O194   Zr199   2.128   .     S
O194   X209    1.303   .     A
O195   Zr198   2.128   .     S
O195   X208    1.303   .     A
O196   Zr202   2.127   .     S
O196   X205    1.303   .     A
O197   Zr202   2.128   .     S
O197   X206    1.303   .     A
Zr198  O204    2.069   .     S
Zr198  O216    2.064   .     S
Zr199  O203    2.069   .     S
Zr199  O214    2.064   .     S
Zr200  O204    2.069   .     S
Zr200  O214    2.064   .     S
Zr201  O203    2.069   .     S
Zr201  O216    2.064   .     S
Zr202  O203    2.069   .     S
Zr202  O204    2.069   .     S
Zr202  O216    2.065   .     S
Zr202  O214    2.064   .     S
X205   X326    1.503   1_545 S
X206   X246    1.503   1_545 S
X207   X586    1.503   .     S
X208   X666    1.503   .     S
X209   X546    1.503   .     S
X210   X626    1.503   .     S
X211   X486    1.503   1_545 S
X212   X446    1.503   1_545 S
H213   O214    0.988   .     S
H215   O216    0.989   .     S
C217   C218    1.411   .     A
C217   C222    1.412   .     A
C217   C223    1.513   .     S
C218   C219    1.407   .     A
C218   H235    1.082   .     S
C219   X220    1.409   .     A
C219   H229    1.083   .     S
X220   C221    1.409   .     A
C221   C222    1.407   .     A
C221   H230    1.083   .     S
C222   H233    1.082   .     S
C223   C224    1.411   .     A
C223   C228    1.412   .     A
C224   C225    1.407   .     A
C224   H234    1.082   .     S
C225   X226    1.409   .     A
C225   H231    1.083   .     S
X226   C227    1.409   .     A
C227   C228    1.407   .     A
C227   H232    1.083   .     S
C228   H236    1.082   .     S
C237   C238    1.412   .     A
C237   C242    1.411   .     A
C237   C243    1.513   .     S
C238   C239    1.407   .     A
C238   H255    1.082   .     S
C239   X240    1.409   .     A
C239   H249    1.083   .     S
X240   C241    1.409   .     A
C241   C242    1.407   .     A
C241   H250    1.083   .     S
C242   H253    1.082   .     S
C243   C244    1.412   .     A
C243   C248    1.411   .     A
C244   C245    1.407   .     A
C244   H254    1.082   .     S
C245   X246    1.409   .     A
C245   H251    1.083   .     S
X246   C247    1.409   .     A
X246   X206    1.503   1_565 S
C247   C248    1.407   .     A
C247   H252    1.083   .     S
C248   H256    1.082   .     S
C257   C258    1.412   .     A
C257   C262    1.411   .     A
C257   C263    1.513   .     S
C258   C259    1.407   .     A
C258   H275    1.082   .     S
C259   X260    1.409   .     A
C259   H269    1.083   .     S
X260   C261    1.409   .     A
X260   X44     1.503   1_665 S
C261   C262    1.407   .     A
C261   H270    1.083   .     S
C262   H273    1.082   .     S
C263   C264    1.412   .     A
C263   C268    1.411   .     A
C264   C265    1.407   .     A
C264   H274    1.082   .     S
C265   X266    1.409   .     A
C265   H271    1.083   .     S
X266   C267    1.409   .     A
C267   C268    1.407   .     A
C267   H272    1.083   .     S
C268   H276    1.082   .     S
C277   C278    1.411   .     A
C277   C282    1.412   .     A
C277   C283    1.513   .     S
C278   C279    1.407   .     A
C278   H295    1.082   .     S
C279   X280    1.409   .     A
C279   H289    1.083   .     S
X280   C281    1.409   .     A
X280   X152    1.503   1_655 S
C281   C282    1.407   .     A
C281   H290    1.083   .     S
C282   H293    1.082   .     S
C283   C284    1.411   .     A
C283   C288    1.412   .     A
C284   C285    1.407   .     A
C284   H294    1.082   .     S
C285   X286    1.409   .     A
C285   H291    1.083   .     S
X286   C287    1.409   .     A
C287   C288    1.407   .     A
C287   H292    1.083   .     S
C288   H296    1.082   .     S
C297   C298    1.412   .     A
C297   C302    1.412   .     A
C297   C303    1.513   .     S
C298   C299    1.407   .     A
C298   H315    1.082   .     S
C299   X300    1.409   .     A
C299   H309    1.083   .     S
X300   C301    1.409   .     A
X300   X12     1.503   1_655 S
C301   C302    1.407   .     A
C301   H310    1.083   .     S
C302   H313    1.082   .     S
C303   C304    1.412   .     A
C303   C308    1.412   .     A
C304   C305    1.407   .     A
C304   H314    1.082   .     S
C305   X306    1.409   .     A
C305   H311    1.083   .     S
X306   C307    1.409   .     A
C307   C308    1.407   .     A
C307   H312    1.083   .     S
C308   H316    1.082   .     S
C317   C318    1.412   .     A
C317   C322    1.412   .     A
C317   C323    1.513   .     S
C318   C319    1.407   .     A
C318   H335    1.082   .     S
C319   X320    1.409   .     A
C319   H329    1.083   .     S
X320   C321    1.409   .     A
X320   X120    1.503   1_655 S
C321   C322    1.407   .     A
C321   H330    1.083   .     S
C322   H333    1.082   .     S
C323   C324    1.412   .     A
C323   C328    1.412   .     A
C324   C325    1.407   .     A
C324   H334    1.082   .     S
C325   X326    1.409   .     A
C325   H331    1.083   .     S
X326   C327    1.409   .     A
X326   X205    1.503   1_565 S
C327   C328    1.407   .     A
C327   H332    1.083   .     S
C328   H336    1.082   .     S
C337   C338    1.412   .     A
C337   C342    1.412   .     A
C337   C343    1.513   .     S
C338   C339    1.407   .     A
C338   H355    1.082   .     S
C339   X340    1.409   .     A
C339   H349    1.083   .     S
X340   C341    1.409   .     A
C341   C342    1.407   .     A
C341   H350    1.083   .     S
C342   H353    1.082   .     S
C343   C344    1.412   .     A
C343   C348    1.412   .     A
C344   C345    1.407   .     A
C344   H354    1.082   .     S
C345   X346    1.409   .     A
C345   H351    1.083   .     S
X346   C347    1.409   .     A
C347   C348    1.407   .     A
C347   H352    1.083   .     S
C348   H356    1.082   .     S
C357   C358    1.412   .     A
C357   C362    1.412   .     A
C357   C363    1.513   .     S
C358   C359    1.407   .     A
C358   H375    1.082   .     S
C359   X360    1.409   .     A
C359   H369    1.083   .     S
X360   C361    1.409   .     A
X360   X43     1.503   1_565 S
C361   C362    1.407   .     A
C361   H370    1.083   .     S
C362   H373    1.082   .     S
C363   C364    1.412   .     A
C363   C368    1.412   .     A
C364   C365    1.407   .     A
C364   H374    1.082   .     S
C365   X366    1.409   .     A
C365   H371    1.083   .     S
X366   C367    1.409   .     A
C367   C368    1.407   .     A
C367   H372    1.083   .     S
C368   H376    1.082   .     S
C377   C378    1.411   .     A
C377   C382    1.412   .     A
C377   C383    1.513   .     S
C378   C379    1.407   .     A
C378   H395    1.082   .     S
C379   X380    1.409   .     A
C379   H389    1.083   .     S
X380   C381    1.409   .     A
C381   C382    1.407   .     A
C381   H390    1.083   .     S
C382   H393    1.082   .     S
C383   C384    1.411   .     A
C383   C388    1.412   .     A
C384   C385    1.407   .     A
C384   H394    1.082   .     S
C385   X386    1.409   .     A
C385   H391    1.083   .     S
X386   C387    1.409   .     A
C387   C388    1.407   .     A
C387   H392    1.083   .     S
C388   H396    1.082   .     S
C397   C398    1.412   .     A
C397   C402    1.411   .     A
C397   C403    1.513   .     S
C398   C399    1.407   .     A
C398   H415    1.082   .     S
C399   X400    1.409   .     A
C399   H409    1.083   .     S
X400   C401    1.409   .     A
X400   X104    1.503   1_556 S
C401   C402    1.407   .     A
C401   H410    1.083   .     S
C402   H413    1.082   .     S
C403   C404    1.412   .     A
C403   C408    1.411   .     A
C404   C405    1.407   .     A
C404   H414    1.082   .     S
C405   X406    1.409   .     A
C405   H411    1.083   .     S
X406   C407    1.409   .     A
C407   C408    1.407   .     A
C407   H412    1.083   .     S
C408   H416    1.082   .     S
C417   C418    1.412   .     A
C417   C422    1.411   .     A
C417   C423    1.513   .     S
C418   C419    1.407   .     A
C418   H435    1.082   .     S
C419   X420    1.409   .     A
C419   H429    1.083   .     S
X420   C421    1.409   .     A
X420   X50     1.503   1_566 S
C421   C422    1.407   .     A
C421   H430    1.083   .     S
C422   H433    1.082   .     S
C423   C424    1.412   .     A
C423   C428    1.411   .     A
C424   C425    1.407   .     A
C424   H434    1.082   .     S
C425   X426    1.409   .     A
C425   H431    1.083   .     S
X426   C427    1.409   .     A
C427   C428    1.407   .     A
C427   H432    1.083   .     S
C428   H436    1.082   .     S
C437   C438    1.411   .     A
C437   C442    1.412   .     A
C437   C443    1.513   .     S
C438   C439    1.407   .     A
C438   H455    1.082   .     S
C439   X440    1.409   .     A
C439   H449    1.083   .     S
X440   C441    1.409   .     A
C441   C442    1.407   .     A
C441   H450    1.083   .     S
C442   H453    1.082   .     S
C443   C444    1.411   .     A
C443   C448    1.412   .     A
C444   C445    1.407   .     A
C444   H454    1.082   .     S
C445   X446    1.409   .     A
C445   H451    1.083   .     S
X446   C447    1.409   .     A
X446   X212    1.503   1_565 S
C447   C448    1.407   .     A
C447   H452    1.083   .     S
C448   H456    1.082   .     S
C457   C458    1.412   .     A
C457   C462    1.411   .     A
C457   C463    1.513   .     S
C458   C459    1.407   .     A
C458   H475    1.082   .     S
C459   X460    1.409   .     A
C459   H469    1.083   .     S
X460   C461    1.409   .     A
X460   X49     1.503   1_565 S
C461   C462    1.407   .     A
C461   H470    1.083   .     S
C462   H473    1.082   .     S
C463   C464    1.412   .     A
C463   C468    1.411   .     A
C464   C465    1.407   .     A
C464   H474    1.082   .     S
C465   X466    1.409   .     A
C465   H471    1.083   .     S
X466   C467    1.409   .     A
C467   C468    1.407   .     A
C467   H472    1.083   .     S
C468   H476    1.082   .     S
C477   C478    1.411   .     A
C477   C482    1.412   .     A
C477   C483    1.513   .     S
C478   C479    1.407   .     A
C478   H495    1.082   .     S
C479   X480    1.409   .     A
C479   H489    1.083   .     S
X480   C481    1.409   .     A
X480   X69     1.503   1_556 S
C481   C482    1.407   .     A
C481   H490    1.083   .     S
C482   H493    1.082   .     S
C483   C484    1.411   .     A
C483   C488    1.412   .     A
C484   C485    1.407   .     A
C484   H494    1.082   .     S
C485   X486    1.409   .     A
C485   H491    1.083   .     S
X486   C487    1.409   .     A
X486   X211    1.503   1_565 S
C487   C488    1.407   .     A
C487   H492    1.083   .     S
C488   H496    1.082   .     S
C497   C498    1.412   .     A
C497   C502    1.411   .     A
C497   C503    1.513   .     S
C498   C499    1.407   .     A
C498   H515    1.082   .     S
C499   X500    1.409   .     A
C499   H509    1.083   .     S
X500   C501    1.409   .     A
C501   C502    1.407   .     A
C501   H510    1.083   .     S
C502   H513    1.082   .     S
C503   C504    1.412   .     A
C503   C508    1.411   .     A
C504   C505    1.407   .     A
C504   H514    1.082   .     S
C505   X506    1.409   .     A
C505   H511    1.083   .     S
X506   C507    1.409   .     A
C507   C508    1.407   .     A
C507   H512    1.083   .     S
C508   H516    1.082   .     S
C517   C518    1.411   .     A
C517   C522    1.412   .     A
C517   C523    1.513   .     S
C518   C519    1.407   .     A
C518   H535    1.082   .     S
C519   X520    1.409   .     A
C519   H529    1.083   .     S
X520   C521    1.409   .     A
X520   X15     1.503   1_556 S
C521   C522    1.407   .     A
C521   H530    1.083   .     S
C522   H533    1.082   .     S
C523   C524    1.411   .     A
C523   C528    1.412   .     A
C524   C525    1.407   .     A
C524   H534    1.082   .     S
C525   X526    1.409   .     A
C525   H531    1.083   .     S
X526   C527    1.409   .     A
C527   C528    1.407   .     A
C527   H532    1.083   .     S
C528   H536    1.082   .     S
C537   C538    1.412   .     A
C537   C542    1.411   .     A
C537   C543    1.513   .     S
C538   C539    1.407   .     A
C538   H555    1.082   .     S
C539   X540    1.409   .     A
C539   H549    1.083   .     S
X540   C541    1.409   .     A
C541   C542    1.407   .     A
C541   H550    1.083   .     S
C542   H553    1.082   .     S
C543   C544    1.412   .     A
C543   C548    1.411   .     A
C544   C545    1.407   .     A
C544   H554    1.082   .     S
C545   X546    1.409   .     A
C545   H551    1.083   .     S
X546   C547    1.409   .     A
C547   C548    1.407   .     A
C547   H552    1.083   .     S
C548   H556    1.082   .     S
C557   C558    1.412   .     A
C557   C562    1.411   .     A
C557   C563    1.513   .     S
C558   C559    1.407   .     A
C558   H575    1.082   .     S
C559   X560    1.409   .     A
C559   H569    1.083   .     S
X560   C561    1.409   .     A
X560   X101    1.503   1_556 S
C561   C562    1.407   .     A
C561   H570    1.083   .     S
C562   H573    1.082   .     S
C563   C564    1.412   .     A
C563   C568    1.412   .     A
C564   C565    1.407   .     A
C564   H574    1.082   .     S
C565   X566    1.409   .     A
C565   H571    1.083   .     S
X566   C567    1.409   .     A
C567   C568    1.407   .     A
C567   H572    1.083   .     S
C568   H576    1.082   .     S
C577   C578    1.412   .     A
C577   C582    1.411   .     A
C577   C583    1.513   .     S
C578   C579    1.407   .     A
C578   H595    1.082   .     S
C579   X580    1.409   .     A
C579   H589    1.083   .     S
X580   C581    1.409   .     A
X580   X47     1.503   1_656 S
C581   C582    1.407   .     A
C581   H590    1.083   .     S
C582   H593    1.082   .     S
C583   C584    1.412   .     A
C583   C588    1.412   .     A
C584   C585    1.407   .     A
C584   H594    1.082   .     S
C585   X586    1.409   .     A
C585   H591    1.083   .     S
X586   C587    1.409   .     A
C587   C588    1.407   .     A
C587   H592    1.083   .     S
C588   H596    1.082   .     S
C597   C598    1.412   .     A
C597   C602    1.411   .     A
C597   C603    1.513   .     S
C598   C599    1.407   .     A
C598   H615    1.082   .     S
C599   X600    1.409   .     A
C599   H609    1.083   .     S
X600   C601    1.409   .     A
C601   C602    1.407   .     A
C601   H610    1.083   .     S
C602   H613    1.082   .     S
C603   C604    1.412   .     A
C603   C608    1.411   .     A
C604   C605    1.407   .     A
C604   H614    1.082   .     S
C605   X606    1.409   .     A
C605   H611    1.083   .     S
X606   C607    1.409   .     A
X606   X155    1.503   1_655 S
C607   C608    1.407   .     A
C607   H612    1.083   .     S
C608   H616    1.082   .     S
C617   C618    1.412   .     A
C617   C622    1.411   .     A
C617   C623    1.513   .     S
C618   C619    1.407   .     A
C618   H635    1.082   .     S
C619   X620    1.409   .     A
C619   H629    1.083   .     S
X620   C621    1.409   .     A
X620   X46     1.503   1_556 S
C621   C622    1.407   .     A
C621   H630    1.083   .     S
C622   H633    1.082   .     S
C623   C624    1.412   .     A
C623   C628    1.412   .     A
C624   C625    1.407   .     A
C624   H634    1.082   .     S
C625   X626    1.409   .     A
C625   H631    1.083   .     S
X626   C627    1.409   .     A
C627   C628    1.407   .     A
C627   H632    1.083   .     S
C628   H636    1.082   .     S
C637   C638    1.412   .     A
C637   C642    1.411   .     A
C637   C643    1.513   .     S
C638   C639    1.407   .     A
C638   H655    1.082   .     S
C639   X640    1.409   .     A
C639   H649    1.083   .     S
X640   C641    1.409   .     A
C641   C642    1.407   .     A
C641   H650    1.083   .     S
C642   H653    1.082   .     S
C643   C644    1.412   .     A
C643   C648    1.411   .     A
C644   C645    1.407   .     A
C644   H654    1.082   .     S
C645   X646    1.409   .     A
C645   H651    1.083   .     S
X646   C647    1.409   .     A
C647   C648    1.407   .     A
C647   H652    1.083   .     S
C648   H656    1.082   .     S
C657   C658    1.412   .     A
C657   C662    1.411   .     A
C657   C663    1.513   .     S
C658   C659    1.407   .     A
C658   H675    1.082   .     S
C659   X660    1.409   .     A
C659   H669    1.083   .     S
X660   C661    1.409   .     A
X660   X48     1.503   1_655 S
C661   C662    1.407   .     A
C661   H670    1.083   .     S
C662   H673    1.082   .     S
C663   C664    1.412   .     A
C663   C668    1.411   .     A
C664   C665    1.407   .     A
C664   H674    1.082   .     S
C665   X666    1.409   .     A
C665   H671    1.083   .     S
X666   C667    1.409   .     A
C667   C668    1.407   .     A
C667   H672    1.083   .     S
C668   H676    1.082   .     S
C677   C678    1.412   .     A
C677   C682    1.411   .     A
C677   C683    1.513   .     S
C678   C679    1.407   .     A
C678   H695    1.082   .     S
C679   X680    1.409   .     A
C679   H689    1.083   .     S
X680   C681    1.409   .     A
X680   X100    1.503   1_556 S
C681   C682    1.407   .     A
C681   H690    1.083   .     S
C682   H693    1.082   .     S
C683   C684    1.412   .     A
C683   C688    1.412   .     A
C684   C685    1.407   .     A
C684   H694    1.082   .     S
C685   X686    1.409   .     A
C685   H691    1.083   .     S
X686   C687    1.409   .     A
X686   X156    1.503   1_655 S
C687   C688    1.407   .     A
C687   H692    1.083   .     S
C688   H696    1.082   .     S
