data_image0
_cell_length_a       30.275
_cell_length_b       15.289
_cell_length_c       22.421
_cell_angle_alpha    90
_cell_angle_beta     90
_cell_angle_gamma    90

_symmetry_space_group_name_H-M    "P 1"
_symmetry_int_tables_number       1

loop_
  _symmetry_equiv_pos_as_xyz
  'x, y, z'

loop_
  _atom_site_label
  _atom_site_occupancy
  _atom_site_fract_x
  _atom_site_fract_y
  _atom_site_fract_z
  _atom_site_thermal_displace_type
  _atom_site_B_iso_or_equiv
  _atom_site_type_symbol
  Cu1      1.0000 0.11968  0.70038  0.83243  Biso   1.000  Cu
  N1       1.0000 0.11065  0.68980  0.92765  Biso   1.000  N
  O1       1.0000 0.07317  0.61410  0.81180  Biso   1.000  O
  C1       1.0000 0.05972  0.59710  0.75990  Biso   1.000  C
  Cu2      1.0000 0.13010  0.69607  0.71461  Biso   1.000  Cu
  O2       1.0000 0.07534  0.62750  0.71185  Biso   1.000  O
  C2       1.0000 0.02185  0.53380  0.75430  Biso   1.000  C
  N2       1.0000 0.18469  0.84390  0.05009  Biso   1.000  N
  H1       1.0000 0.19580  0.83080  0.01600  Biso   1.000  H
  O3       1.0000 0.17017  0.78289  0.82881  Biso   1.000  O
  N3       1.0000 0.17423  0.01760  0.00950  Biso   1.000  N
  H2       1.0000 0.14870  0.00870  0.02530  Biso   1.000  H
  C3       1.0000 0.98299  0.54050  0.79007  Biso   1.000  C
  O4       1.0000 0.18410  0.76220  0.73147  Biso   1.000  O
  N4       1.0000 0.05899  0.02980  0.90182  Biso   1.000  N
  C4       1.0000 0.97643  0.61040  0.83040  Biso   1.000  C
  H3       1.0000 0.99830  0.65270  0.83460  Biso   1.000  H
  O5       1.0000 0.33654  0.10309  0.83102  Biso   1.000  O
  C5       1.0000 0.93860  0.61670  0.86330  Biso   1.000  C
  H4       1.0000 0.93530  0.66220  0.89050  Biso   1.000  H
  O6       1.0000 0.33782  0.08704  0.73126  Biso   1.000  O
  C6       1.0000 0.90467  0.55470  0.85630  Biso   1.000  C
  H5       1.0000 0.87890  0.55970  0.87850  Biso   1.000  H
  O7       1.0000 0.90444  0.30456  0.78247  Biso   1.000  O
  C7       1.0000 0.90943  0.48750  0.81720  Biso   1.000  C
  H6       1.0000 0.88650  0.44770  0.81250  Biso   1.000  H
  O8       1.0000 0.92068  0.29660  0.68513  Biso   1.000  O
  C8       1.0000 0.94878  0.47690  0.78342  Biso   1.000  C
  C9       1.0000 0.95543  0.40660  0.74245  Biso   1.000  C
  O9       1.0000 0.13375  0.80720  0.11951  Biso   1.000  O
  C10      1.0000 0.92382  0.33010  0.73600  Biso   1.000  C
  O10      1.0000 0.21220  0.07330  0.93166  Biso   1.000  O
  C11      1.0000 0.99307  0.40320  0.70814  Biso   1.000  C
  H7       1.0000 0.99680  0.35770  0.68110  Biso   1.000  H
  C12      1.0000 0.02601  0.46740  0.71347  Biso   1.000  C
  H8       1.0000 0.05080  0.46500  0.68910  Biso   1.000  H
  C13      1.0000 0.19200  0.79540  0.78160  Biso   1.000  C
  C14      1.0000 0.22971  0.85890  0.78578  Biso   1.000  C
  C15      1.0000 0.22149  0.93840  0.81080  Biso   1.000  C
  H9       1.0000 0.19390  0.94930  0.82750  Biso   1.000  H
  C16      1.0000 0.25369  0.00430  0.81190  Biso   1.000  C
  H10      1.0000 0.24740  0.05790  0.82960  Biso   1.000  H
  C17      1.0000 0.29442  0.98970  0.78700  Biso   1.000  C
  C18      1.0000 0.30537  0.90640  0.76310  Biso   1.000  C
  C19      1.0000 0.34831  0.88710  0.74080  Biso   1.000  C
  H11      1.0000 0.36980  0.93060  0.74030  Biso   1.000  H
  C20      1.0000 0.35818  0.80600  0.72020  Biso   1.000  C
  H12      1.0000 0.38640  0.79450  0.70580  Biso   1.000  H
  C21      1.0000 0.32665  0.74010  0.72060  Biso   1.000  C
  H13      1.0000 0.33420  0.68470  0.70700  Biso   1.000  H
  C22      1.0000 0.28467  0.75550  0.74070  Biso   1.000  C
  H14      1.0000 0.26380  0.71080  0.74010  Biso   1.000  H
  C23      1.0000 0.27289  0.83920  0.76231  Biso   1.000  C
  C24      1.0000 0.32588  0.06530  0.78310  Biso   1.000  C
  C25      1.0000 0.08723  0.60520  0.01150  Biso   1.000  C
  H15      1.0000 0.07230  0.55660  0.02620  Biso   1.000  H
  C26      1.0000 0.10733  0.66260  0.05000  Biso   1.000  C
  H16      1.0000 0.10570  0.65380  0.09100  Biso   1.000  H
  C27      1.0000 0.12995  0.73350  0.02702  Biso   1.000  C
  C28      1.0000 0.12989  0.74500  0.96570  Biso   1.000  C
  H17      1.0000 0.14410  0.79390  0.95020  Biso   1.000  H
  C29      1.0000 0.15035  0.79770  0.06935  Biso   1.000  C
  C30      1.0000 0.20470  0.91640  0.08385  Biso   1.000  C
  H18      1.0000 0.18380  0.93520  0.11470  Biso   1.000  H
  C31      1.0000 0.24751  0.88720  0.11440  Biso   1.000  C
  H19      1.0000 0.24130  0.83920  0.14140  Biso   1.000  H
  H20      1.0000 0.26830  0.86680  0.08460  Biso   1.000  H
  C32      1.0000 0.26777  0.96350  0.14920  Biso   1.000  C
  H21      1.0000 0.24830  0.97910  0.18180  Biso   1.000  H
  H22      1.0000 0.29580  0.94510  0.16610  Biso   1.000  H
  C33      1.0000 0.27522  0.04320  0.11000  Biso   1.000  C
  H23      1.0000 0.28570  0.09140  0.13440  Biso   1.000  H
  H24      1.0000 0.29770  0.03010  0.08050  Biso   1.000  H
  C34      1.0000 0.23288  0.07000  0.07870  Biso   1.000  C
  H25      1.0000 0.23880  0.11870  0.05210  Biso   1.000  H
  H26      1.0000 0.21140  0.08910  0.10800  Biso   1.000  H
  C35      1.0000 0.21398  0.99350  0.04300  Biso   1.000  C
  H27      1.0000 0.23650  0.97510  0.01410  Biso   1.000  H
  C36      1.0000 0.17659  0.05320  0.95490  Biso   1.000  C
  C37      1.0000 0.13459  0.06610  0.92140  Biso   1.000  C
  C38      1.0000 0.09634  0.01950  0.93250  Biso   1.000  C
  H28      1.0000 0.09670  0.97860  0.96320  Biso   1.000  H
  C39      1.0000 0.05884  0.08890  0.85840  Biso   1.000  C
  H29      1.0000 0.03280  0.09770  0.83730  Biso   1.000  H
  C40      1.0000 0.09523  0.13780  0.84320  Biso   1.000  C
  H30      1.0000 0.09390  0.17760  0.81180  Biso   1.000  H
  C41      1.0000 0.13384  0.12670  0.87530  Biso   1.000  C
  H31      1.0000 0.15890  0.15930  0.86620  Biso   1.000  H
  C42      1.0000 0.08941  0.62030  0.95110  Biso   1.000  C
  H32      1.0000 0.07570  0.58100  0.92540  Biso   1.000  H
  Cu3      1.0000 0.38032  0.29962  0.33243  Biso   1.000  Cu
  N5       1.0000 0.38935  0.31020  0.42765  Biso   1.000  N
  O11      1.0000 0.42683  0.38590  0.31180  Biso   1.000  O
  C43      1.0000 0.44028  0.40290  0.25990  Biso   1.000  C
  Cu4      1.0000 0.36990  0.30393  0.21461  Biso   1.000  Cu
  O12      1.0000 0.42466  0.37250  0.21185  Biso   1.000  O
  C44      1.0000 0.47815  0.46620  0.25430  Biso   1.000  C
  N6       1.0000 0.31531  0.15610  0.55009  Biso   1.000  N
  H33      1.0000 0.30420  0.16920  0.51600  Biso   1.000  H
  O13      1.0000 0.32983  0.21711  0.32881  Biso   1.000  O
  N7       1.0000 0.32577  0.98240  0.50950  Biso   1.000  N
  H34      1.0000 0.35130  0.99130  0.52530  Biso   1.000  H
  C45      1.0000 0.51701  0.45950  0.29007  Biso   1.000  C
  O14      1.0000 0.31590  0.23780  0.23147  Biso   1.000  O
  N8       1.0000 0.44101  0.97020  0.40182  Biso   1.000  N
  C46      1.0000 0.52357  0.38960  0.33040  Biso   1.000  C
  H35      1.0000 0.50170  0.34730  0.33460  Biso   1.000  H
  O15      1.0000 0.16346  0.89691  0.33102  Biso   1.000  O
  C47      1.0000 0.56140  0.38330  0.36330  Biso   1.000  C
  H36      1.0000 0.56470  0.33780  0.39050  Biso   1.000  H
  O16      1.0000 0.16218  0.91296  0.23126  Biso   1.000  O
  C48      1.0000 0.59533  0.44530  0.35630  Biso   1.000  C
  H37      1.0000 0.62110  0.44030  0.37850  Biso   1.000  H
  O17      1.0000 0.59556  0.69544  0.28247  Biso   1.000  O
  C49      1.0000 0.59057  0.51250  0.31720  Biso   1.000  C
  H38      1.0000 0.61350  0.55230  0.31250  Biso   1.000  H
  O18      1.0000 0.57932  0.70340  0.18513  Biso   1.000  O
  C50      1.0000 0.55122  0.52310  0.28342  Biso   1.000  C
  C51      1.0000 0.54457  0.59340  0.24245  Biso   1.000  C
  O19      1.0000 0.36625  0.19280  0.61951  Biso   1.000  O
  C52      1.0000 0.57618  0.66990  0.23600  Biso   1.000  C
  O20      1.0000 0.28780  0.92670  0.43166  Biso   1.000  O
  C53      1.0000 0.50693  0.59680  0.20814  Biso   1.000  C
  H39      1.0000 0.50320  0.64230  0.18110  Biso   1.000  H
  C54      1.0000 0.47399  0.53260  0.21347  Biso   1.000  C
  H40      1.0000 0.44920  0.53500  0.18910  Biso   1.000  H
  C55      1.0000 0.30800  0.20460  0.28160  Biso   1.000  C
  C56      1.0000 0.27029  0.14110  0.28578  Biso   1.000  C
  C57      1.0000 0.27851  0.06160  0.31080  Biso   1.000  C
  H41      1.0000 0.30610  0.05070  0.32750  Biso   1.000  H
  C58      1.0000 0.24631  0.99570  0.31190  Biso   1.000  C
  H42      1.0000 0.25260  0.94210  0.32960  Biso   1.000  H
  C59      1.0000 0.20558  0.01030  0.28700  Biso   1.000  C
  C60      1.0000 0.19463  0.09360  0.26310  Biso   1.000  C
  C61      1.0000 0.15169  0.11290  0.24080  Biso   1.000  C
  H43      1.0000 0.13020  0.06940  0.24030  Biso   1.000  H
  C62      1.0000 0.14182  0.19400  0.22020  Biso   1.000  C
  H44      1.0000 0.11360  0.20550  0.20580  Biso   1.000  H
  C63      1.0000 0.17335  0.25990  0.22060  Biso   1.000  C
  H45      1.0000 0.16580  0.31530  0.20700  Biso   1.000  H
  C64      1.0000 0.21533  0.24450  0.24070  Biso   1.000  C
  H46      1.0000 0.23620  0.28920  0.24010  Biso   1.000  H
  C65      1.0000 0.22711  0.16080  0.26231  Biso   1.000  C
  C66      1.0000 0.17412  0.93470  0.28310  Biso   1.000  C
  C67      1.0000 0.41277  0.39480  0.51150  Biso   1.000  C
  H47      1.0000 0.42770  0.44340  0.52620  Biso   1.000  H
  C68      1.0000 0.39267  0.33740  0.55000  Biso   1.000  C
  H48      1.0000 0.39430  0.34620  0.59100  Biso   1.000  H
  C69      1.0000 0.37005  0.26650  0.52702  Biso   1.000  C
  C70      1.0000 0.37011  0.25500  0.46570  Biso   1.000  C
  H49      1.0000 0.35590  0.20610  0.45020  Biso   1.000  H
  C71      1.0000 0.34965  0.20230  0.56935  Biso   1.000  C
  C72      1.0000 0.29530  0.08360  0.58385  Biso   1.000  C
  H50      1.0000 0.31620  0.06480  0.61470  Biso   1.000  H
  C73      1.0000 0.25249  0.11280  0.61440  Biso   1.000  C
  H51      1.0000 0.25870  0.16080  0.64140  Biso   1.000  H
  H52      1.0000 0.23170  0.13320  0.58460  Biso   1.000  H
  C74      1.0000 0.23223  0.03650  0.64920  Biso   1.000  C
  H53      1.0000 0.25170  0.02090  0.68180  Biso   1.000  H
  H54      1.0000 0.20420  0.05490  0.66610  Biso   1.000  H
  C75      1.0000 0.22478  0.95680  0.61000  Biso   1.000  C
  H55      1.0000 0.21430  0.90860  0.63440  Biso   1.000  H
  H56      1.0000 0.20230  0.96990  0.58050  Biso   1.000  H
  C76      1.0000 0.26712  0.93000  0.57870  Biso   1.000  C
  H57      1.0000 0.26120  0.88130  0.55210  Biso   1.000  H
  H58      1.0000 0.28860  0.91090  0.60800  Biso   1.000  H
  C77      1.0000 0.28602  0.00650  0.54300  Biso   1.000  C
  H59      1.0000 0.26350  0.02490  0.51410  Biso   1.000  H
  C78      1.0000 0.32341  0.94680  0.45490  Biso   1.000  C
  C79      1.0000 0.36541  0.93390  0.42140  Biso   1.000  C
  C80      1.0000 0.40366  0.98050  0.43250  Biso   1.000  C
  H60      1.0000 0.40330  0.02140  0.46320  Biso   1.000  H
  C81      1.0000 0.44116  0.91110  0.35840  Biso   1.000  C
  H61      1.0000 0.46720  0.90230  0.33730  Biso   1.000  H
  C82      1.0000 0.40477  0.86220  0.34320  Biso   1.000  C
  H62      1.0000 0.40610  0.82240  0.31180  Biso   1.000  H
  C83      1.0000 0.36616  0.87330  0.37530  Biso   1.000  C
  H63      1.0000 0.34110  0.84070  0.36620  Biso   1.000  H
  C84      1.0000 0.41059  0.37970  0.45110  Biso   1.000  C
  H64      1.0000 0.42430  0.41900  0.42540  Biso   1.000  H
  Cu5      1.0000 0.88032  0.20038  0.66757  Biso   1.000  Cu
  N9       1.0000 0.88935  0.18980  0.57235  Biso   1.000  N
  O21      1.0000 0.92683  0.11410  0.68820  Biso   1.000  O
  C85      1.0000 0.94028  0.09710  0.74010  Biso   1.000  C
  Cu6      1.0000 0.86990  0.19607  0.78539  Biso   1.000  Cu
  O22      1.0000 0.92466  0.12750  0.78815  Biso   1.000  O
  C86      1.0000 0.97815  0.03380  0.74570  Biso   1.000  C
  N10      1.0000 0.81531  0.34390  0.44991  Biso   1.000  N
  H65      1.0000 0.80420  0.33080  0.48400  Biso   1.000  H
  O23      1.0000 0.82983  0.28289  0.67119  Biso   1.000  O
  N11      1.0000 0.82577  0.51760  0.49050  Biso   1.000  N
  H66      1.0000 0.85130  0.50870  0.47470  Biso   1.000  H
  C87      1.0000 0.01701  0.04050  0.70993  Biso   1.000  C
  O24      1.0000 0.81590  0.26220  0.76853  Biso   1.000  O
  N12      1.0000 0.94101  0.52980  0.59818  Biso   1.000  N
  C88      1.0000 0.02357  0.11040  0.66960  Biso   1.000  C
  H67      1.0000 0.00170  0.15270  0.66540  Biso   1.000  H
  O25      1.0000 0.66346  0.60309  0.66898  Biso   1.000  O
  C89      1.0000 0.06140  0.11670  0.63670  Biso   1.000  C
  H68      1.0000 0.06470  0.16220  0.60950  Biso   1.000  H
  O26      1.0000 0.66218  0.58704  0.76874  Biso   1.000  O
  C90      1.0000 0.09533  0.05470  0.64370  Biso   1.000  C
  H69      1.0000 0.12110  0.05970  0.62150  Biso   1.000  H
  O27      1.0000 0.09556  0.80456  0.71753  Biso   1.000  O
  C91      1.0000 0.09057  0.98750  0.68280  Biso   1.000  C
  H70      1.0000 0.11350  0.94770  0.68750  Biso   1.000  H
  O28      1.0000 0.07932  0.79660  0.81487  Biso   1.000  O
  C92      1.0000 0.05122  0.97690  0.71658  Biso   1.000  C
  C93      1.0000 0.04457  0.90660  0.75755  Biso   1.000  C
  O29      1.0000 0.86625  0.30720  0.38049  Biso   1.000  O
  C94      1.0000 0.07618  0.83010  0.76400  Biso   1.000  C
  O30      1.0000 0.78780  0.57330  0.56834  Biso   1.000  O
  C95      1.0000 0.00693  0.90320  0.79186  Biso   1.000  C
  H71      1.0000 0.00320  0.85770  0.81890  Biso   1.000  H
  C96      1.0000 0.97399  0.96740  0.78653  Biso   1.000  C
  H72      1.0000 0.94920  0.96500  0.81090  Biso   1.000  H
  C97      1.0000 0.80800  0.29540  0.71840  Biso   1.000  C
  C98      1.0000 0.77029  0.35890  0.71422  Biso   1.000  C
  C99      1.0000 0.77851  0.43840  0.68920  Biso   1.000  C
  H73      1.0000 0.80610  0.44930  0.67250  Biso   1.000  H
  C100     1.0000 0.74631  0.50430  0.68810  Biso   1.000  C
  H74      1.0000 0.75260  0.55790  0.67040  Biso   1.000  H
  C101     1.0000 0.70558  0.48970  0.71300  Biso   1.000  C
  C102     1.0000 0.69463  0.40640  0.73690  Biso   1.000  C
  C103     1.0000 0.65169  0.38710  0.75920  Biso   1.000  C
  H75      1.0000 0.63020  0.43060  0.75970  Biso   1.000  H
  C104     1.0000 0.64182  0.30600  0.77980  Biso   1.000  C
  H76      1.0000 0.61360  0.29450  0.79420  Biso   1.000  H
  C105     1.0000 0.67335  0.24010  0.77940  Biso   1.000  C
  H77      1.0000 0.66580  0.18470  0.79300  Biso   1.000  H
  C106     1.0000 0.71533  0.25550  0.75930  Biso   1.000  C
  H78      1.0000 0.73620  0.21080  0.75990  Biso   1.000  H
  C107     1.0000 0.72711  0.33920  0.73769  Biso   1.000  C
  C108     1.0000 0.67412  0.56530  0.71690  Biso   1.000  C
  C109     1.0000 0.91277  0.10520  0.48850  Biso   1.000  C
  H79      1.0000 0.92770  0.05660  0.47380  Biso   1.000  H
  C110     1.0000 0.89267  0.16260  0.45000  Biso   1.000  C
  H80      1.0000 0.89430  0.15380  0.40900  Biso   1.000  H
  C111     1.0000 0.87005  0.23350  0.47298  Biso   1.000  C
  C112     1.0000 0.87011  0.24500  0.53430  Biso   1.000  C
  H81      1.0000 0.85590  0.29390  0.54980  Biso   1.000  H
  C113     1.0000 0.84965  0.29770  0.43065  Biso   1.000  C
  C114     1.0000 0.79530  0.41640  0.41615  Biso   1.000  C
  H82      1.0000 0.81620  0.43520  0.38530  Biso   1.000  H
  C115     1.0000 0.75249  0.38720  0.38560  Biso   1.000  C
  H83      1.0000 0.75870  0.33920  0.35860  Biso   1.000  H
  H84      1.0000 0.73170  0.36680  0.41540  Biso   1.000  H
  C116     1.0000 0.73223  0.46350  0.35080  Biso   1.000  C
  H85      1.0000 0.75170  0.47910  0.31820  Biso   1.000  H
  H86      1.0000 0.70420  0.44510  0.33390  Biso   1.000  H
  C117     1.0000 0.72478  0.54320  0.39000  Biso   1.000  C
  H87      1.0000 0.71430  0.59140  0.36560  Biso   1.000  H
  H88      1.0000 0.70230  0.53010  0.41950  Biso   1.000  H
  C118     1.0000 0.76712  0.57000  0.42130  Biso   1.000  C
  H89      1.0000 0.76120  0.61870  0.44790  Biso   1.000  H
  H90      1.0000 0.78860  0.58910  0.39200  Biso   1.000  H
  C119     1.0000 0.78602  0.49350  0.45700  Biso   1.000  C
  H91      1.0000 0.76350  0.47510  0.48590  Biso   1.000  H
  C120     1.0000 0.82341  0.55320  0.54510  Biso   1.000  C
  C121     1.0000 0.86541  0.56610  0.57860  Biso   1.000  C
  C122     1.0000 0.90366  0.51950  0.56750  Biso   1.000  C
  H92      1.0000 0.90330  0.47860  0.53680  Biso   1.000  H
  C123     1.0000 0.94116  0.58890  0.64160  Biso   1.000  C
  H93      1.0000 0.96720  0.59770  0.66270  Biso   1.000  H
  C124     1.0000 0.90477  0.63780  0.65680  Biso   1.000  C
  H94      1.0000 0.90610  0.67760  0.68820  Biso   1.000  H
  C125     1.0000 0.86616  0.62670  0.62470  Biso   1.000  C
  H95      1.0000 0.84110  0.65930  0.63380  Biso   1.000  H
  C126     1.0000 0.91059  0.12030  0.54890  Biso   1.000  C
  H96      1.0000 0.92430  0.08100  0.57460  Biso   1.000  H
  Cu7      1.0000 0.61968  0.79962  0.16757  Biso   1.000  Cu
  N13      1.0000 0.61065  0.81020  0.07235  Biso   1.000  N
  O31      1.0000 0.57317  0.88590  0.18820  Biso   1.000  O
  C127     1.0000 0.55972  0.90290  0.24010  Biso   1.000  C
  Cu8      1.0000 0.63010  0.80393  0.28539  Biso   1.000  Cu
  O32      1.0000 0.57534  0.87250  0.28815  Biso   1.000  O
  C128     1.0000 0.52185  0.96620  0.24570  Biso   1.000  C
  N14      1.0000 0.68469  0.65610  0.94991  Biso   1.000  N
  H97      1.0000 0.69580  0.66920  0.98400  Biso   1.000  H
  O33      1.0000 0.67017  0.71711  0.17119  Biso   1.000  O
  N15      1.0000 0.67423  0.48240  0.99050  Biso   1.000  N
  H98      1.0000 0.64870  0.49130  0.97470  Biso   1.000  H
  C129     1.0000 0.48299  0.95950  0.20993  Biso   1.000  C
  O34      1.0000 0.68410  0.73780  0.26853  Biso   1.000  O
  N16      1.0000 0.55899  0.47020  0.09818  Biso   1.000  N
  C130     1.0000 0.47643  0.88960  0.16960  Biso   1.000  C
  H99      1.0000 0.49830  0.84730  0.16540  Biso   1.000  H
  O35      1.0000 0.83654  0.39691  0.16898  Biso   1.000  O
  C131     1.0000 0.43860  0.88330  0.13670  Biso   1.000  C
  H100     1.0000 0.43530  0.83780  0.10950  Biso   1.000  H
  O36      1.0000 0.83782  0.41296  0.26874  Biso   1.000  O
  C132     1.0000 0.40467  0.94530  0.14370  Biso   1.000  C
  H101     1.0000 0.37890  0.94030  0.12150  Biso   1.000  H
  O37      1.0000 0.40444  0.19544  0.21753  Biso   1.000  O
  C133     1.0000 0.40943  0.01250  0.18280  Biso   1.000  C
  H102     1.0000 0.38650  0.05230  0.18750  Biso   1.000  H
  O38      1.0000 0.42068  0.20340  0.31487  Biso   1.000  O
  C134     1.0000 0.44878  0.02310  0.21658  Biso   1.000  C
  C135     1.0000 0.45543  0.09340  0.25755  Biso   1.000  C
  O39      1.0000 0.63375  0.69280  0.88049  Biso   1.000  O
  C136     1.0000 0.42382  0.16990  0.26400  Biso   1.000  C
  O40      1.0000 0.71220  0.42670  0.06834  Biso   1.000  O
  C137     1.0000 0.49307  0.09680  0.29186  Biso   1.000  C
  H103     1.0000 0.49680  0.14230  0.31890  Biso   1.000  H
  C138     1.0000 0.52601  0.03260  0.28653  Biso   1.000  C
  H104     1.0000 0.55080  0.03500  0.31090  Biso   1.000  H
  C139     1.0000 0.69200  0.70460  0.21840  Biso   1.000  C
  C140     1.0000 0.72971  0.64110  0.21422  Biso   1.000  C
  C141     1.0000 0.72149  0.56160  0.18920  Biso   1.000  C
  H105     1.0000 0.69390  0.55070  0.17250  Biso   1.000  H
  C142     1.0000 0.75369  0.49570  0.18810  Biso   1.000  C
  H106     1.0000 0.74740  0.44210  0.17040  Biso   1.000  H
  C143     1.0000 0.79442  0.51030  0.21300  Biso   1.000  C
  C144     1.0000 0.80537  0.59360  0.23690  Biso   1.000  C
  C145     1.0000 0.84831  0.61290  0.25920  Biso   1.000  C
  H107     1.0000 0.86980  0.56940  0.25970  Biso   1.000  H
  C146     1.0000 0.85818  0.69400  0.27980  Biso   1.000  C
  H108     1.0000 0.88640  0.70550  0.29420  Biso   1.000  H
  C147     1.0000 0.82665  0.75990  0.27940  Biso   1.000  C
  H109     1.0000 0.83420  0.81530  0.29300  Biso   1.000  H
  C148     1.0000 0.78467  0.74450  0.25930  Biso   1.000  C
  H110     1.0000 0.76380  0.78920  0.25990  Biso   1.000  H
  C149     1.0000 0.77289  0.66080  0.23769  Biso   1.000  C
  C150     1.0000 0.82588  0.43470  0.21690  Biso   1.000  C
  C151     1.0000 0.58723  0.89480  0.98850  Biso   1.000  C
  H111     1.0000 0.57230  0.94340  0.97380  Biso   1.000  H
  C152     1.0000 0.60733  0.83740  0.95000  Biso   1.000  C
  H112     1.0000 0.60570  0.84620  0.90900  Biso   1.000  H
  C153     1.0000 0.62995  0.76650  0.97298  Biso   1.000  C
  C154     1.0000 0.62989  0.75500  0.03430  Biso   1.000  C
  H113     1.0000 0.64410  0.70610  0.04980  Biso   1.000  H
  C155     1.0000 0.65035  0.70230  0.93065  Biso   1.000  C
  C156     1.0000 0.70470  0.58360  0.91615  Biso   1.000  C
  H114     1.0000 0.68380  0.56480  0.88530  Biso   1.000  H
  C157     1.0000 0.74751  0.61280  0.88560  Biso   1.000  C
  H115     1.0000 0.74130  0.66080  0.85860  Biso   1.000  H
  H116     1.0000 0.76830  0.63320  0.91540  Biso   1.000  H
  C158     1.0000 0.76777  0.53650  0.85080  Biso   1.000  C
  H117     1.0000 0.74830  0.52090  0.81820  Biso   1.000  H
  H118     1.0000 0.79580  0.55490  0.83390  Biso   1.000  H
  C159     1.0000 0.77522  0.45680  0.89000  Biso   1.000  C
  H119     1.0000 0.78570  0.40860  0.86560  Biso   1.000  H
  H120     1.0000 0.79770  0.46990  0.91950  Biso   1.000  H
  C160     1.0000 0.73288  0.43000  0.92130  Biso   1.000  C
  H121     1.0000 0.73880  0.38130  0.94790  Biso   1.000  H
  H122     1.0000 0.71140  0.41090  0.89200  Biso   1.000  H
  C161     1.0000 0.71398  0.50650  0.95700  Biso   1.000  C
  H123     1.0000 0.73650  0.52490  0.98590  Biso   1.000  H
  C162     1.0000 0.67659  0.44680  0.04510  Biso   1.000  C
  C163     1.0000 0.63459  0.43390  0.07860  Biso   1.000  C
  C164     1.0000 0.59634  0.48050  0.06750  Biso   1.000  C
  H124     1.0000 0.59670  0.52140  0.03680  Biso   1.000  H
  C165     1.0000 0.55884  0.41110  0.14160  Biso   1.000  C
  H125     1.0000 0.53280  0.40230  0.16270  Biso   1.000  H
  C166     1.0000 0.59523  0.36220  0.15680  Biso   1.000  C
  H126     1.0000 0.59390  0.32240  0.18820  Biso   1.000  H
  C167     1.0000 0.63384  0.37330  0.12470  Biso   1.000  C
  H127     1.0000 0.65890  0.34070  0.13380  Biso   1.000  H
  C168     1.0000 0.58941  0.87970  0.04890  Biso   1.000  C
  H128     1.0000 0.57570  0.91900  0.07460  Biso   1.000  H
  Cu9      1.0000 0.88032  0.29962  0.16757  Biso   1.000  Cu
  N17      1.0000 0.88935  0.31020  0.07235  Biso   1.000  N
  O41      1.0000 0.92683  0.38590  0.18820  Biso   1.000  O
  C169     1.0000 0.94028  0.40290  0.24010  Biso   1.000  C
  Cu10     1.0000 0.86990  0.30393  0.28539  Biso   1.000  Cu
  O42      1.0000 0.92466  0.37250  0.28815  Biso   1.000  O
  C170     1.0000 0.97815  0.46620  0.24570  Biso   1.000  C
  N18      1.0000 0.81531  0.15610  0.94991  Biso   1.000  N
  H129     1.0000 0.80420  0.16920  0.98400  Biso   1.000  H
  O43      1.0000 0.82983  0.21711  0.17119  Biso   1.000  O
  N19      1.0000 0.82577  0.98240  0.99050  Biso   1.000  N
  H130     1.0000 0.85130  0.99130  0.97470  Biso   1.000  H
  C171     1.0000 0.01701  0.45950  0.20993  Biso   1.000  C
  O44      1.0000 0.81590  0.23780  0.26853  Biso   1.000  O
  N20      1.0000 0.94101  0.97020  0.09818  Biso   1.000  N
  C172     1.0000 0.02357  0.38960  0.16960  Biso   1.000  C
  H131     1.0000 0.00170  0.34730  0.16540  Biso   1.000  H
  O45      1.0000 0.66346  0.89691  0.16898  Biso   1.000  O
  C173     1.0000 0.06140  0.38330  0.13670  Biso   1.000  C
  H132     1.0000 0.06470  0.33780  0.10950  Biso   1.000  H
  O46      1.0000 0.66218  0.91296  0.26874  Biso   1.000  O
  C174     1.0000 0.09533  0.44530  0.14370  Biso   1.000  C
  H133     1.0000 0.12110  0.44030  0.12150  Biso   1.000  H
  O47      1.0000 0.09556  0.69544  0.21753  Biso   1.000  O
  C175     1.0000 0.09057  0.51250  0.18280  Biso   1.000  C
  H134     1.0000 0.11350  0.55230  0.18750  Biso   1.000  H
  O48      1.0000 0.07932  0.70340  0.31487  Biso   1.000  O
  C176     1.0000 0.05122  0.52310  0.21658  Biso   1.000  C
  C177     1.0000 0.04457  0.59340  0.25755  Biso   1.000  C
  O49      1.0000 0.86625  0.19280  0.88049  Biso   1.000  O
  C178     1.0000 0.07618  0.66990  0.26400  Biso   1.000  C
  O50      1.0000 0.78780  0.92670  0.06834  Biso   1.000  O
  C179     1.0000 0.00693  0.59680  0.29186  Biso   1.000  C
  H135     1.0000 0.00320  0.64230  0.31890  Biso   1.000  H
  C180     1.0000 0.97399  0.53260  0.28653  Biso   1.000  C
  H136     1.0000 0.94920  0.53500  0.31090  Biso   1.000  H
  C181     1.0000 0.80800  0.20460  0.21840  Biso   1.000  C
  C182     1.0000 0.77029  0.14110  0.21422  Biso   1.000  C
  C183     1.0000 0.77851  0.06160  0.18920  Biso   1.000  C
  H137     1.0000 0.80610  0.05070  0.17250  Biso   1.000  H
  C184     1.0000 0.74631  0.99570  0.18810  Biso   1.000  C
  H138     1.0000 0.75260  0.94210  0.17040  Biso   1.000  H
  C185     1.0000 0.70558  0.01030  0.21300  Biso   1.000  C
  C186     1.0000 0.69463  0.09360  0.23690  Biso   1.000  C
  C187     1.0000 0.65169  0.11290  0.25920  Biso   1.000  C
  H139     1.0000 0.63020  0.06940  0.25970  Biso   1.000  H
  C188     1.0000 0.64182  0.19400  0.27980  Biso   1.000  C
  H140     1.0000 0.61360  0.20550  0.29420  Biso   1.000  H
  C189     1.0000 0.67335  0.25990  0.27940  Biso   1.000  C
  H141     1.0000 0.66580  0.31530  0.29300  Biso   1.000  H
  C190     1.0000 0.71533  0.24450  0.25930  Biso   1.000  C
  H142     1.0000 0.73620  0.28920  0.25990  Biso   1.000  H
  C191     1.0000 0.72711  0.16080  0.23769  Biso   1.000  C
  C192     1.0000 0.67412  0.93470  0.21690  Biso   1.000  C
  C193     1.0000 0.91277  0.39480  0.98850  Biso   1.000  C
  H143     1.0000 0.92770  0.44340  0.97380  Biso   1.000  H
  C194     1.0000 0.89267  0.33740  0.95000  Biso   1.000  C
  H144     1.0000 0.89430  0.34620  0.90900  Biso   1.000  H
  C195     1.0000 0.87005  0.26650  0.97298  Biso   1.000  C
  C196     1.0000 0.87011  0.25500  0.03430  Biso   1.000  C
  H145     1.0000 0.85590  0.20610  0.04980  Biso   1.000  H
  C197     1.0000 0.84965  0.20230  0.93065  Biso   1.000  C
  C198     1.0000 0.79530  0.08360  0.91615  Biso   1.000  C
  H146     1.0000 0.81620  0.06480  0.88530  Biso   1.000  H
  C199     1.0000 0.75249  0.11280  0.88560  Biso   1.000  C
  H147     1.0000 0.75870  0.16080  0.85860  Biso   1.000  H
  H148     1.0000 0.73170  0.13320  0.91540  Biso   1.000  H
  C200     1.0000 0.73223  0.03650  0.85080  Biso   1.000  C
  H149     1.0000 0.75170  0.02090  0.81820  Biso   1.000  H
  H150     1.0000 0.70420  0.05490  0.83390  Biso   1.000  H
  C201     1.0000 0.72478  0.95680  0.89000  Biso   1.000  C
  H151     1.0000 0.71430  0.90860  0.86560  Biso   1.000  H
  H152     1.0000 0.70230  0.96990  0.91950  Biso   1.000  H
  C202     1.0000 0.76712  0.93000  0.92130  Biso   1.000  C
  H153     1.0000 0.76120  0.88130  0.94790  Biso   1.000  H
  H154     1.0000 0.78860  0.91090  0.89200  Biso   1.000  H
  C203     1.0000 0.78602  0.00650  0.95700  Biso   1.000  C
  H155     1.0000 0.76350  0.02490  0.98590  Biso   1.000  H
  C204     1.0000 0.82341  0.94680  0.04510  Biso   1.000  C
  C205     1.0000 0.86541  0.93390  0.07860  Biso   1.000  C
  C206     1.0000 0.90366  0.98050  0.06750  Biso   1.000  C
  H156     1.0000 0.90330  0.02140  0.03680  Biso   1.000  H
  C207     1.0000 0.94116  0.91110  0.14160  Biso   1.000  C
  H157     1.0000 0.96720  0.90230  0.16270  Biso   1.000  H
  C208     1.0000 0.90477  0.86220  0.15680  Biso   1.000  C
  H158     1.0000 0.90610  0.82240  0.18820  Biso   1.000  H
  C209     1.0000 0.86616  0.87330  0.12470  Biso   1.000  C
  H159     1.0000 0.84110  0.84070  0.13380  Biso   1.000  H
  C210     1.0000 0.91059  0.37970  0.04890  Biso   1.000  C
  H160     1.0000 0.92430  0.41900  0.07460  Biso   1.000  H
  Cu11     1.0000 0.61968  0.70038  0.66757  Biso   1.000  Cu
  N21      1.0000 0.61065  0.68980  0.57235  Biso   1.000  N
  O51      1.0000 0.57317  0.61410  0.68820  Biso   1.000  O
  C211     1.0000 0.55972  0.59710  0.74010  Biso   1.000  C
  Cu12     1.0000 0.63010  0.69607  0.78539  Biso   1.000  Cu
  O52      1.0000 0.57534  0.62750  0.78815  Biso   1.000  O
  C212     1.0000 0.52185  0.53380  0.74570  Biso   1.000  C
  N22      1.0000 0.68469  0.84390  0.44991  Biso   1.000  N
  H161     1.0000 0.69580  0.83080  0.48400  Biso   1.000  H
  O53      1.0000 0.67017  0.78289  0.67119  Biso   1.000  O
  N23      1.0000 0.67423  0.01760  0.49050  Biso   1.000  N
  H162     1.0000 0.64870  0.00870  0.47470  Biso   1.000  H
  C213     1.0000 0.48299  0.54050  0.70993  Biso   1.000  C
  O54      1.0000 0.68410  0.76220  0.76853  Biso   1.000  O
  N24      1.0000 0.55899  0.02980  0.59818  Biso   1.000  N
  C214     1.0000 0.47643  0.61040  0.66960  Biso   1.000  C
  H163     1.0000 0.49830  0.65270  0.66540  Biso   1.000  H
  O55      1.0000 0.83654  0.10309  0.66898  Biso   1.000  O
  C215     1.0000 0.43860  0.61670  0.63670  Biso   1.000  C
  H164     1.0000 0.43530  0.66220  0.60950  Biso   1.000  H
  O56      1.0000 0.83782  0.08704  0.76874  Biso   1.000  O
  C216     1.0000 0.40467  0.55470  0.64370  Biso   1.000  C
  H165     1.0000 0.37890  0.55970  0.62150  Biso   1.000  H
  O57      1.0000 0.40444  0.30456  0.71753  Biso   1.000  O
  C217     1.0000 0.40943  0.48750  0.68280  Biso   1.000  C
  H166     1.0000 0.38650  0.44770  0.68750  Biso   1.000  H
  O58      1.0000 0.42068  0.29660  0.81487  Biso   1.000  O
  C218     1.0000 0.44878  0.47690  0.71658  Biso   1.000  C
  C219     1.0000 0.45543  0.40660  0.75755  Biso   1.000  C
  O59      1.0000 0.63375  0.80720  0.38049  Biso   1.000  O
  C220     1.0000 0.42382  0.33010  0.76400  Biso   1.000  C
  O60      1.0000 0.71220  0.07330  0.56834  Biso   1.000  O
  C221     1.0000 0.49307  0.40320  0.79186  Biso   1.000  C
  H167     1.0000 0.49680  0.35770  0.81890  Biso   1.000  H
  C222     1.0000 0.52601  0.46740  0.78653  Biso   1.000  C
  H168     1.0000 0.55080  0.46500  0.81090  Biso   1.000  H
  C223     1.0000 0.69200  0.79540  0.71840  Biso   1.000  C
  C224     1.0000 0.72971  0.85890  0.71422  Biso   1.000  C
  C225     1.0000 0.72149  0.93840  0.68920  Biso   1.000  C
  H169     1.0000 0.69390  0.94930  0.67250  Biso   1.000  H
  C226     1.0000 0.75369  0.00430  0.68810  Biso   1.000  C
  H170     1.0000 0.74740  0.05790  0.67040  Biso   1.000  H
  C227     1.0000 0.79442  0.98970  0.71300  Biso   1.000  C
  C228     1.0000 0.80537  0.90640  0.73690  Biso   1.000  C
  C229     1.0000 0.84831  0.88710  0.75920  Biso   1.000  C
  H171     1.0000 0.86980  0.93060  0.75970  Biso   1.000  H
  C230     1.0000 0.85818  0.80600  0.77980  Biso   1.000  C
  H172     1.0000 0.88640  0.79450  0.79420  Biso   1.000  H
  C231     1.0000 0.82665  0.74010  0.77940  Biso   1.000  C
  H173     1.0000 0.83420  0.68470  0.79300  Biso   1.000  H
  C232     1.0000 0.78467  0.75550  0.75930  Biso   1.000  C
  H174     1.0000 0.76380  0.71080  0.75990  Biso   1.000  H
  C233     1.0000 0.77289  0.83920  0.73769  Biso   1.000  C
  C234     1.0000 0.82588  0.06530  0.71690  Biso   1.000  C
  C235     1.0000 0.58723  0.60520  0.48850  Biso   1.000  C
  H175     1.0000 0.57230  0.55660  0.47380  Biso   1.000  H
  C236     1.0000 0.60733  0.66260  0.45000  Biso   1.000  C
  H176     1.0000 0.60570  0.65380  0.40900  Biso   1.000  H
  C237     1.0000 0.62995  0.73350  0.47298  Biso   1.000  C
  C238     1.0000 0.62989  0.74500  0.53430  Biso   1.000  C
  H177     1.0000 0.64410  0.79390  0.54980  Biso   1.000  H
  C239     1.0000 0.65035  0.79770  0.43065  Biso   1.000  C
  C240     1.0000 0.70470  0.91640  0.41615  Biso   1.000  C
  H178     1.0000 0.68380  0.93520  0.38530  Biso   1.000  H
  C241     1.0000 0.74751  0.88720  0.38560  Biso   1.000  C
  H179     1.0000 0.74130  0.83920  0.35860  Biso   1.000  H
  H180     1.0000 0.76830  0.86680  0.41540  Biso   1.000  H
  C242     1.0000 0.76777  0.96350  0.35080  Biso   1.000  C
  H181     1.0000 0.74830  0.97910  0.31820  Biso   1.000  H
  H182     1.0000 0.79580  0.94510  0.33390  Biso   1.000  H
  C243     1.0000 0.77522  0.04320  0.39000  Biso   1.000  C
  H183     1.0000 0.78570  0.09140  0.36560  Biso   1.000  H
  H184     1.0000 0.79770  0.03010  0.41950  Biso   1.000  H
  C244     1.0000 0.73288  0.07000  0.42130  Biso   1.000  C
  H185     1.0000 0.73880  0.11870  0.44790  Biso   1.000  H
  H186     1.0000 0.71140  0.08910  0.39200  Biso   1.000  H
  C245     1.0000 0.71398  0.99350  0.45700  Biso   1.000  C
  H187     1.0000 0.73650  0.97510  0.48590  Biso   1.000  H
  C246     1.0000 0.67659  0.05320  0.54510  Biso   1.000  C
  C247     1.0000 0.63459  0.06610  0.57860  Biso   1.000  C
  C248     1.0000 0.59634  0.01950  0.56750  Biso   1.000  C
  H188     1.0000 0.59670  0.97860  0.53680  Biso   1.000  H
  C249     1.0000 0.55884  0.08890  0.64160  Biso   1.000  C
  H189     1.0000 0.53280  0.09770  0.66270  Biso   1.000  H
  C250     1.0000 0.59523  0.13780  0.65680  Biso   1.000  C
  H190     1.0000 0.59390  0.17760  0.68820  Biso   1.000  H
  C251     1.0000 0.63384  0.12670  0.62470  Biso   1.000  C
  H191     1.0000 0.65890  0.15930  0.63380  Biso   1.000  H
  C252     1.0000 0.58941  0.62030  0.54890  Biso   1.000  C
  H192     1.0000 0.57570  0.58100  0.57460  Biso   1.000  H
  Cu13     1.0000 0.11968  0.79962  0.33243  Biso   1.000  Cu
  N25      1.0000 0.11065  0.81020  0.42765  Biso   1.000  N
  O61      1.0000 0.07317  0.88590  0.31180  Biso   1.000  O
  C253     1.0000 0.05972  0.90290  0.25990  Biso   1.000  C
  Cu14     1.0000 0.13010  0.80393  0.21461  Biso   1.000  Cu
  O62      1.0000 0.07534  0.87250  0.21185  Biso   1.000  O
  C254     1.0000 0.02185  0.96620  0.25430  Biso   1.000  C
  N26      1.0000 0.18469  0.65610  0.55009  Biso   1.000  N
  H193     1.0000 0.19580  0.66920  0.51600  Biso   1.000  H
  O63      1.0000 0.17017  0.71711  0.32881  Biso   1.000  O
  N27      1.0000 0.17423  0.48240  0.50950  Biso   1.000  N
  H194     1.0000 0.14870  0.49130  0.52530  Biso   1.000  H
  C255     1.0000 0.98299  0.95950  0.29007  Biso   1.000  C
  O64      1.0000 0.18410  0.73780  0.23147  Biso   1.000  O
  N28      1.0000 0.05899  0.47020  0.40182  Biso   1.000  N
  C256     1.0000 0.97643  0.88960  0.33040  Biso   1.000  C
  H195     1.0000 0.99830  0.84730  0.33460  Biso   1.000  H
  O65      1.0000 0.33654  0.39691  0.33102  Biso   1.000  O
  C257     1.0000 0.93860  0.88330  0.36330  Biso   1.000  C
  H196     1.0000 0.93530  0.83780  0.39050  Biso   1.000  H
  O66      1.0000 0.33782  0.41296  0.23126  Biso   1.000  O
  C258     1.0000 0.90467  0.94530  0.35630  Biso   1.000  C
  H197     1.0000 0.87890  0.94030  0.37850  Biso   1.000  H
  O67      1.0000 0.90444  0.19544  0.28247  Biso   1.000  O
  C259     1.0000 0.90943  0.01250  0.31720  Biso   1.000  C
  H198     1.0000 0.88650  0.05230  0.31250  Biso   1.000  H
  O68      1.0000 0.92068  0.20340  0.18513  Biso   1.000  O
  C260     1.0000 0.94878  0.02310  0.28342  Biso   1.000  C
  C261     1.0000 0.95543  0.09340  0.24245  Biso   1.000  C
  O69      1.0000 0.13375  0.69280  0.61951  Biso   1.000  O
  C262     1.0000 0.92382  0.16990  0.23600  Biso   1.000  C
  O70      1.0000 0.21220  0.42670  0.43166  Biso   1.000  O
  C263     1.0000 0.99307  0.09680  0.20814  Biso   1.000  C
  H199     1.0000 0.99680  0.14230  0.18110  Biso   1.000  H
  C264     1.0000 0.02601  0.03260  0.21347  Biso   1.000  C
  H200     1.0000 0.05080  0.03500  0.18910  Biso   1.000  H
  C265     1.0000 0.19200  0.70460  0.28160  Biso   1.000  C
  C266     1.0000 0.22971  0.64110  0.28578  Biso   1.000  C
  C267     1.0000 0.22149  0.56160  0.31080  Biso   1.000  C
  H201     1.0000 0.19390  0.55070  0.32750  Biso   1.000  H
  C268     1.0000 0.25369  0.49570  0.31190  Biso   1.000  C
  H202     1.0000 0.24740  0.44210  0.32960  Biso   1.000  H
  C269     1.0000 0.29442  0.51030  0.28700  Biso   1.000  C
  C270     1.0000 0.30537  0.59360  0.26310  Biso   1.000  C
  C271     1.0000 0.34831  0.61290  0.24080  Biso   1.000  C
  H203     1.0000 0.36980  0.56940  0.24030  Biso   1.000  H
  C272     1.0000 0.35818  0.69400  0.22020  Biso   1.000  C
  H204     1.0000 0.38640  0.70550  0.20580  Biso   1.000  H
  C273     1.0000 0.32665  0.75990  0.22060  Biso   1.000  C
  H205     1.0000 0.33420  0.81530  0.20700  Biso   1.000  H
  C274     1.0000 0.28467  0.74450  0.24070  Biso   1.000  C
  H206     1.0000 0.26380  0.78920  0.24010  Biso   1.000  H
  C275     1.0000 0.27289  0.66080  0.26231  Biso   1.000  C
  C276     1.0000 0.32588  0.43470  0.28310  Biso   1.000  C
  C277     1.0000 0.08723  0.89480  0.51150  Biso   1.000  C
  H207     1.0000 0.07230  0.94340  0.52620  Biso   1.000  H
  C278     1.0000 0.10733  0.83740  0.55000  Biso   1.000  C
  H208     1.0000 0.10570  0.84620  0.59100  Biso   1.000  H
  C279     1.0000 0.12995  0.76650  0.52702  Biso   1.000  C
  C280     1.0000 0.12989  0.75500  0.46570  Biso   1.000  C
  H209     1.0000 0.14410  0.70610  0.45020  Biso   1.000  H
  C281     1.0000 0.15035  0.70230  0.56935  Biso   1.000  C
  C282     1.0000 0.20470  0.58360  0.58385  Biso   1.000  C
  H210     1.0000 0.18380  0.56480  0.61470  Biso   1.000  H
  C283     1.0000 0.24751  0.61280  0.61440  Biso   1.000  C
  H211     1.0000 0.24130  0.66080  0.64140  Biso   1.000  H
  H212     1.0000 0.26830  0.63320  0.58460  Biso   1.000  H
  C284     1.0000 0.26777  0.53650  0.64920  Biso   1.000  C
  H213     1.0000 0.24830  0.52090  0.68180  Biso   1.000  H
  H214     1.0000 0.29580  0.55490  0.66610  Biso   1.000  H
  C285     1.0000 0.27522  0.45680  0.61000  Biso   1.000  C
  H215     1.0000 0.28570  0.40860  0.63440  Biso   1.000  H
  H216     1.0000 0.29770  0.46990  0.58050  Biso   1.000  H
  C286     1.0000 0.23288  0.43000  0.57870  Biso   1.000  C
  H217     1.0000 0.23880  0.38130  0.55210  Biso   1.000  H
  H218     1.0000 0.21140  0.41090  0.60800  Biso   1.000  H
  C287     1.0000 0.21398  0.50650  0.54300  Biso   1.000  C
  H219     1.0000 0.23650  0.52490  0.51410  Biso   1.000  H
  C288     1.0000 0.17659  0.44680  0.45490  Biso   1.000  C
  C289     1.0000 0.13459  0.43390  0.42140  Biso   1.000  C
  C290     1.0000 0.09634  0.48050  0.43250  Biso   1.000  C
  H220     1.0000 0.09670  0.52140  0.46320  Biso   1.000  H
  C291     1.0000 0.05884  0.41110  0.35840  Biso   1.000  C
  H221     1.0000 0.03280  0.40230  0.33730  Biso   1.000  H
  C292     1.0000 0.09523  0.36220  0.34320  Biso   1.000  C
  H222     1.0000 0.09390  0.32240  0.31180  Biso   1.000  H
  C293     1.0000 0.13384  0.37330  0.37530  Biso   1.000  C
  H223     1.0000 0.15890  0.34070  0.36620  Biso   1.000  H
  C294     1.0000 0.08941  0.87970  0.45110  Biso   1.000  C
  H224     1.0000 0.07570  0.91900  0.42540  Biso   1.000  H
  Cu15     1.0000 0.38032  0.20038  0.83243  Biso   1.000  Cu
  N29      1.0000 0.38935  0.18980  0.92765  Biso   1.000  N
  O71      1.0000 0.42683  0.11410  0.81180  Biso   1.000  O
  C295     1.0000 0.44028  0.09710  0.75990  Biso   1.000  C
  Cu16     1.0000 0.36990  0.19607  0.71461  Biso   1.000  Cu
  O72      1.0000 0.42466  0.12750  0.71185  Biso   1.000  O
  C296     1.0000 0.47815  0.03380  0.75430  Biso   1.000  C
  N30      1.0000 0.31531  0.34390  0.05009  Biso   1.000  N
  H225     1.0000 0.30420  0.33080  0.01600  Biso   1.000  H
  O73      1.0000 0.32983  0.28289  0.82881  Biso   1.000  O
  N31      1.0000 0.32577  0.51760  0.00950  Biso   1.000  N
  H226     1.0000 0.35130  0.50870  0.02530  Biso   1.000  H
  C297     1.0000 0.51701  0.04050  0.79007  Biso   1.000  C
  O74      1.0000 0.31590  0.26220  0.73147  Biso   1.000  O
  N32      1.0000 0.44101  0.52980  0.90182  Biso   1.000  N
  C298     1.0000 0.52357  0.11040  0.83040  Biso   1.000  C
  H227     1.0000 0.50170  0.15270  0.83460  Biso   1.000  H
  O75      1.0000 0.16346  0.60309  0.83102  Biso   1.000  O
  C299     1.0000 0.56140  0.11670  0.86330  Biso   1.000  C
  H228     1.0000 0.56470  0.16220  0.89050  Biso   1.000  H
  O76      1.0000 0.16218  0.58704  0.73126  Biso   1.000  O
  C300     1.0000 0.59533  0.05470  0.85630  Biso   1.000  C
  H229     1.0000 0.62110  0.05970  0.87850  Biso   1.000  H
  O77      1.0000 0.59556  0.80456  0.78247  Biso   1.000  O
  C301     1.0000 0.59057  0.98750  0.81720  Biso   1.000  C
  H230     1.0000 0.61350  0.94770  0.81250  Biso   1.000  H
  O78      1.0000 0.57932  0.79660  0.68513  Biso   1.000  O
  C302     1.0000 0.55122  0.97690  0.78342  Biso   1.000  C
  C303     1.0000 0.54457  0.90660  0.74245  Biso   1.000  C
  O79      1.0000 0.36625  0.30720  0.11951  Biso   1.000  O
  C304     1.0000 0.57618  0.83010  0.73600  Biso   1.000  C
  O80      1.0000 0.28780  0.57330  0.93166  Biso   1.000  O
  C305     1.0000 0.50693  0.90320  0.70814  Biso   1.000  C
  H231     1.0000 0.50320  0.85770  0.68110  Biso   1.000  H
  C306     1.0000 0.47399  0.96740  0.71347  Biso   1.000  C
  H232     1.0000 0.44920  0.96500  0.68910  Biso   1.000  H
  C307     1.0000 0.30800  0.29540  0.78160  Biso   1.000  C
  C308     1.0000 0.27029  0.35890  0.78578  Biso   1.000  C
  C309     1.0000 0.27851  0.43840  0.81080  Biso   1.000  C
  H233     1.0000 0.30610  0.44930  0.82750  Biso   1.000  H
  C310     1.0000 0.24631  0.50430  0.81190  Biso   1.000  C
  H234     1.0000 0.25260  0.55790  0.82960  Biso   1.000  H
  C311     1.0000 0.20558  0.48970  0.78700  Biso   1.000  C
  C312     1.0000 0.19463  0.40640  0.76310  Biso   1.000  C
  C313     1.0000 0.15169  0.38710  0.74080  Biso   1.000  C
  H235     1.0000 0.13020  0.43060  0.74030  Biso   1.000  H
  C314     1.0000 0.14182  0.30600  0.72020  Biso   1.000  C
  H236     1.0000 0.11360  0.29450  0.70580  Biso   1.000  H
  C315     1.0000 0.17335  0.24010  0.72060  Biso   1.000  C
  H237     1.0000 0.16580  0.18470  0.70700  Biso   1.000  H
  C316     1.0000 0.21533  0.25550  0.74070  Biso   1.000  C
  H238     1.0000 0.23620  0.21080  0.74010  Biso   1.000  H
  C317     1.0000 0.22711  0.33920  0.76231  Biso   1.000  C
  C318     1.0000 0.17412  0.56530  0.78310  Biso   1.000  C
  C319     1.0000 0.41277  0.10520  0.01150  Biso   1.000  C
  H239     1.0000 0.42770  0.05660  0.02620  Biso   1.000  H
  C320     1.0000 0.39267  0.16260  0.05000  Biso   1.000  C
  H240     1.0000 0.39430  0.15380  0.09100  Biso   1.000  H
  C321     1.0000 0.37005  0.23350  0.02702  Biso   1.000  C
  C322     1.0000 0.37011  0.24500  0.96570  Biso   1.000  C
  H241     1.0000 0.35590  0.29390  0.95020  Biso   1.000  H
  C323     1.0000 0.34965  0.29770  0.06935  Biso   1.000  C
  C324     1.0000 0.29530  0.41640  0.08385  Biso   1.000  C
  H242     1.0000 0.31620  0.43520  0.11470  Biso   1.000  H
  C325     1.0000 0.25249  0.38720  0.11440  Biso   1.000  C
  H243     1.0000 0.25870  0.33920  0.14140  Biso   1.000  H
  H244     1.0000 0.23170  0.36680  0.08460  Biso   1.000  H
  C326     1.0000 0.23223  0.46350  0.14920  Biso   1.000  C
  H245     1.0000 0.25170  0.47910  0.18180  Biso   1.000  H
  H246     1.0000 0.20420  0.44510  0.16610  Biso   1.000  H
  C327     1.0000 0.22478  0.54320  0.11000  Biso   1.000  C
  H247     1.0000 0.21430  0.59140  0.13440  Biso   1.000  H
  H248     1.0000 0.20230  0.53010  0.08050  Biso   1.000  H
  C328     1.0000 0.26712  0.57000  0.07870  Biso   1.000  C
  H249     1.0000 0.26120  0.61870  0.05210  Biso   1.000  H
  H250     1.0000 0.28860  0.58910  0.10800  Biso   1.000  H
  C329     1.0000 0.28602  0.49350  0.04300  Biso   1.000  C
  H251     1.0000 0.26350  0.47510  0.01410  Biso   1.000  H
  C330     1.0000 0.32341  0.55320  0.95490  Biso   1.000  C
  C331     1.0000 0.36541  0.56610  0.92140  Biso   1.000  C
  C332     1.0000 0.40366  0.51950  0.93250  Biso   1.000  C
  H252     1.0000 0.40330  0.47860  0.96320  Biso   1.000  H
  C333     1.0000 0.44116  0.58890  0.85840  Biso   1.000  C
  H253     1.0000 0.46720  0.59770  0.83730  Biso   1.000  H
  C334     1.0000 0.40477  0.63780  0.84320  Biso   1.000  C
  H254     1.0000 0.40610  0.67760  0.81180  Biso   1.000  H
  C335     1.0000 0.36616  0.62670  0.87530  Biso   1.000  C
  H255     1.0000 0.34110  0.65930  0.86620  Biso   1.000  H
  C336     1.0000 0.41059  0.12030  0.95110  Biso   1.000  C
  H256     1.0000 0.42430  0.08100  0.92540  Biso   1.000  H
