data_image0
_cell_length_a       33.4124
_cell_length_b       33.4124
_cell_length_c       13.0665
_cell_angle_alpha    90
_cell_angle_beta     90
_cell_angle_gamma    90

_symmetry_space_group_name_H-M    "P 1"
_symmetry_int_tables_number       1

loop_
  _symmetry_equiv_pos_as_xyz
  'x, y, z'

loop_
  _atom_site_label
  _atom_site_occupancy
  _atom_site_fract_x
  _atom_site_fract_y
  _atom_site_fract_z
  _atom_site_thermal_displace_type
  _atom_site_B_iso_or_equiv
  _atom_site_type_symbol
  Mn1      1.0000 0.22320  0.84376  0.99697  Biso   1.000  Mn
  O1       1.0000 0.25016  0.72338  0.09200  Biso   1.000  O
  O2       1.0000 0.23981  0.78308  0.01470  Biso   1.000  O
  O3       1.0000 0.16351  0.78286  0.67890  Biso   1.000  O
  O4       1.0000 0.15012  0.72441  0.61230  Biso   1.000  O
  O5       1.0000 0.11400  0.51065  0.97840  Biso   1.000  O
  O6       1.0000 0.11178  0.54296  0.68520  Biso   1.000  O
  O7       1.0000 0.31188  0.37418  0.61910  Biso   1.000  O
  O8       1.0000 0.33560  0.33756  0.75140  Biso   1.000  O
  O9       1.0000 0.27360  0.35062  0.09220  Biso   1.000  O
  O10      1.0000 0.21790  0.38550  0.11290  Biso   1.000  O
  C1       1.0000 0.23320  0.74580  0.02300  Biso   1.000  C
  C2       1.0000 0.20510  0.72569  0.95010  Biso   1.000  C
  C3       1.0000 0.19497  0.74467  0.85900  Biso   1.000  C
  H1       1.0000 0.20390  0.77120  0.84630  Biso   1.000  H
  C4       1.0000 0.17183  0.72482  0.78670  Biso   1.000  C
  C5       1.0000 0.15881  0.68599  0.80530  Biso   1.000  C
  H2       1.0000 0.14300  0.67240  0.75590  Biso   1.000  H
  C6       1.0000 0.16894  0.66701  0.89640  Biso   1.000  C
  C7       1.0000 0.19208  0.68685  0.96880  Biso   1.000  C
  H3       1.0000 0.19900  0.67390  0.03100  Biso   1.000  H
  C8       1.0000 0.16020  0.74510  0.69130  Biso   1.000  C
  C9       1.0000 0.15518  0.62498  0.91620  Biso   1.000  C
  C10      1.0000 0.16434  0.59362  0.85040  Biso   1.000  C
  C11      1.0000 0.15062  0.55522  0.87150  Biso   1.000  C
  C12      1.0000 0.12773  0.54819  0.95850  Biso   1.000  C
  C13      1.0000 0.11857  0.57955  0.02440  Biso   1.000  C
  C14      1.0000 0.13230  0.61794  0.00320  Biso   1.000  C
  H4       1.0000 0.12600  0.63940  0.04820  Biso   1.000  H
  C15      1.0000 0.19190  0.59980  0.75700  Biso   1.000  C
  H5       1.0000 0.19910  0.62810  0.75150  Biso   1.000  H
  H6       1.0000 0.17790  0.59140  0.69470  Biso   1.000  H
  H7       1.0000 0.21630  0.58380  0.76550  Biso   1.000  H
  C16      1.0000 0.16037  0.52003  0.80480  Biso   1.000  C
  C17      1.0000 0.13955  0.51504  0.71360  Biso   1.000  C
  C18      1.0000 0.14667  0.48163  0.65290  Biso   1.000  C
  C19      1.0000 0.17462  0.45321  0.68330  Biso   1.000  C
  H8       1.0000 0.17950  0.43040  0.64190  Biso   1.000  H
  C20      1.0000 0.19545  0.45821  0.77450  Biso   1.000  C
  C21      1.0000 0.18832  0.49162  0.83530  Biso   1.000  C
  C22      1.0000 0.21370  0.50210  0.93120  Biso   1.000  C
  H9       1.0000 0.23230  0.48010  0.94560  Biso   1.000  H
  H10      1.0000 0.19590  0.50590  0.99010  Biso   1.000  H
  H11      1.0000 0.22880  0.52670  0.91850  Biso   1.000  H
  C23      1.0000 0.22357  0.42522  0.81060  Biso   1.000  C
  C24      1.0000 0.25256  0.40987  0.74520  Biso   1.000  C
  H12      1.0000 0.25400  0.41890  0.67630  Biso   1.000  H
  C25      1.0000 0.27952  0.38137  0.78060  Biso   1.000  C
  C26      1.0000 0.27748  0.36821  0.88130  Biso   1.000  C
  H13      1.0000 0.29590  0.34870  0.90550  Biso   1.000  H
  C27      1.0000 0.24849  0.38356  0.94680  Biso   1.000  C
  C28      1.0000 0.22153  0.41206  0.91140  Biso   1.000  C
  H14      1.0000 0.20170  0.42260  0.95610  Biso   1.000  H
  C29      1.0000 0.24450  0.37300  0.06040  Biso   1.000  C
  C30      1.0000 0.31000  0.36420  0.71030  Biso   1.000  C
  C31      1.0000 0.09350  0.57180  0.12510  Biso   1.000  C
  C32      1.0000 0.05150  0.55530  0.09700  Biso   1.000  C
  H15      1.0000 0.03620  0.55040  0.15980  Biso   1.000  H
  H16      1.0000 0.05440  0.53020  0.05910  Biso   1.000  H
  H17      1.0000 0.03730  0.57490  0.05450  Biso   1.000  H
  C33      1.0000 0.11470  0.54140  0.19440  Biso   1.000  C
  H18      1.0000 0.09860  0.53700  0.25610  Biso   1.000  H
  H19      1.0000 0.14110  0.55180  0.21370  Biso   1.000  H
  H20      1.0000 0.11800  0.51610  0.15760  Biso   1.000  H
  C34      1.0000 0.08700  0.60920  0.18640  Biso   1.000  C
  H21      1.0000 0.07150  0.60280  0.24790  Biso   1.000  H
  H22      1.0000 0.07240  0.62880  0.14500  Biso   1.000  H
  H23      1.0000 0.11300  0.62040  0.20650  Biso   1.000  H
  C35      1.0000 0.12470  0.47650  0.54650  Biso   1.000  C
  C36      1.0000 0.07960  0.47430  0.56100  Biso   1.000  C
  H24      1.0000 0.06660  0.47130  0.49420  Biso   1.000  H
  H25      1.0000 0.07020  0.49890  0.59380  Biso   1.000  H
  H26      1.0000 0.07300  0.45130  0.60430  Biso   1.000  H
  C37      1.0000 0.13560  0.51270  0.47690  Biso   1.000  C
  H27      1.0000 0.12220  0.50990  0.41060  Biso   1.000  H
  H28      1.0000 0.16470  0.51350  0.46640  Biso   1.000  H
  H29      1.0000 0.12690  0.53760  0.50970  Biso   1.000  H
  C38      1.0000 0.13640  0.43860  0.49320  Biso   1.000  C
  H30      1.0000 0.12230  0.43680  0.42760  Biso   1.000  H
  H31      1.0000 0.12930  0.41560  0.53610  Biso   1.000  H
  H32      1.0000 0.16530  0.43860  0.48090  Biso   1.000  H
  Mn2      1.0000 0.77680  0.15624  0.49697  Biso   1.000  Mn
  O11      1.0000 0.74984  0.27662  0.59200  Biso   1.000  O
  O12      1.0000 0.76019  0.21692  0.51470  Biso   1.000  O
  O13      1.0000 0.83649  0.21714  0.17890  Biso   1.000  O
  O14      1.0000 0.84988  0.27559  0.11230  Biso   1.000  O
  O15      1.0000 0.88600  0.48935  0.47840  Biso   1.000  O
  O16      1.0000 0.88822  0.45704  0.18520  Biso   1.000  O
  O17      1.0000 0.68812  0.62582  0.11910  Biso   1.000  O
  O18      1.0000 0.66440  0.66244  0.25140  Biso   1.000  O
  O19      1.0000 0.72640  0.64938  0.59220  Biso   1.000  O
  O20      1.0000 0.78210  0.61450  0.61290  Biso   1.000  O
  C39      1.0000 0.76680  0.25420  0.52300  Biso   1.000  C
  C40      1.0000 0.79490  0.27431  0.45010  Biso   1.000  C
  C41      1.0000 0.80503  0.25533  0.35900  Biso   1.000  C
  H33      1.0000 0.79610  0.22880  0.34630  Biso   1.000  H
  C42      1.0000 0.82817  0.27518  0.28670  Biso   1.000  C
  C43      1.0000 0.84119  0.31401  0.30530  Biso   1.000  C
  H34      1.0000 0.85700  0.32760  0.25590  Biso   1.000  H
  C44      1.0000 0.83106  0.33299  0.39640  Biso   1.000  C
  C45      1.0000 0.80792  0.31315  0.46880  Biso   1.000  C
  H35      1.0000 0.80100  0.32610  0.53100  Biso   1.000  H
  C46      1.0000 0.83980  0.25490  0.19130  Biso   1.000  C
  C47      1.0000 0.84482  0.37502  0.41620  Biso   1.000  C
  C48      1.0000 0.83566  0.40638  0.35040  Biso   1.000  C
  C49      1.0000 0.84938  0.44478  0.37150  Biso   1.000  C
  C50      1.0000 0.87227  0.45181  0.45850  Biso   1.000  C
  C51      1.0000 0.88143  0.42045  0.52440  Biso   1.000  C
  C52      1.0000 0.86770  0.38206  0.50320  Biso   1.000  C
  H36      1.0000 0.87400  0.36060  0.54820  Biso   1.000  H
  C53      1.0000 0.80810  0.40020  0.25700  Biso   1.000  C
  H37      1.0000 0.80090  0.37190  0.25150  Biso   1.000  H
  H38      1.0000 0.82210  0.40860  0.19470  Biso   1.000  H
  H39      1.0000 0.78370  0.41620  0.26550  Biso   1.000  H
  C54      1.0000 0.83963  0.47997  0.30480  Biso   1.000  C
  C55      1.0000 0.86045  0.48496  0.21360  Biso   1.000  C
  C56      1.0000 0.85333  0.51837  0.15290  Biso   1.000  C
  C57      1.0000 0.82538  0.54679  0.18330  Biso   1.000  C
  H40      1.0000 0.82050  0.56960  0.14190  Biso   1.000  H
  C58      1.0000 0.80455  0.54179  0.27450  Biso   1.000  C
  C59      1.0000 0.81168  0.50838  0.33530  Biso   1.000  C
  C60      1.0000 0.78630  0.49790  0.43120  Biso   1.000  C
  H41      1.0000 0.76770  0.51990  0.44560  Biso   1.000  H
  H42      1.0000 0.80410  0.49410  0.49010  Biso   1.000  H
  H43      1.0000 0.77120  0.47330  0.41850  Biso   1.000  H
  C61      1.0000 0.77643  0.57478  0.31060  Biso   1.000  C
  C62      1.0000 0.74744  0.59013  0.24520  Biso   1.000  C
  H44      1.0000 0.74600  0.58110  0.17630  Biso   1.000  H
  C63      1.0000 0.72048  0.61863  0.28060  Biso   1.000  C
  C64      1.0000 0.72252  0.63179  0.38130  Biso   1.000  C
  H45      1.0000 0.70410  0.65130  0.40550  Biso   1.000  H
  C65      1.0000 0.75151  0.61644  0.44680  Biso   1.000  C
  C66      1.0000 0.77847  0.58794  0.41140  Biso   1.000  C
  H46      1.0000 0.79830  0.57740  0.45610  Biso   1.000  H
  C67      1.0000 0.75550  0.62700  0.56040  Biso   1.000  C
  C68      1.0000 0.69000  0.63580  0.21030  Biso   1.000  C
  C69      1.0000 0.90650  0.42820  0.62510  Biso   1.000  C
  C70      1.0000 0.94850  0.44470  0.59700  Biso   1.000  C
  H47      1.0000 0.96380  0.44960  0.65980  Biso   1.000  H
  H48      1.0000 0.94560  0.46980  0.55910  Biso   1.000  H
  H49      1.0000 0.96270  0.42510  0.55450  Biso   1.000  H
  C71      1.0000 0.88530  0.45860  0.69440  Biso   1.000  C
  H50      1.0000 0.90140  0.46300  0.75610  Biso   1.000  H
  H51      1.0000 0.85890  0.44820  0.71370  Biso   1.000  H
  H52      1.0000 0.88200  0.48390  0.65760  Biso   1.000  H
  C72      1.0000 0.91300  0.39080  0.68640  Biso   1.000  C
  H53      1.0000 0.92850  0.39720  0.74790  Biso   1.000  H
  H54      1.0000 0.92760  0.37120  0.64500  Biso   1.000  H
  H55      1.0000 0.88700  0.37960  0.70650  Biso   1.000  H
  C73      1.0000 0.87530  0.52350  0.04650  Biso   1.000  C
  C74      1.0000 0.92040  0.52570  0.06100  Biso   1.000  C
  H56      1.0000 0.93340  0.52870  0.99420  Biso   1.000  H
  H57      1.0000 0.92980  0.50110  0.09380  Biso   1.000  H
  H58      1.0000 0.92700  0.54870  0.10430  Biso   1.000  H
  C75      1.0000 0.86440  0.48730  0.97690  Biso   1.000  C
  H59      1.0000 0.87780  0.49010  0.91060  Biso   1.000  H
  H60      1.0000 0.83530  0.48650  0.96640  Biso   1.000  H
  H61      1.0000 0.87310  0.46240  0.00970  Biso   1.000  H
  C76      1.0000 0.86360  0.56140  0.99320  Biso   1.000  C
  H62      1.0000 0.87770  0.56320  0.92760  Biso   1.000  H
  H63      1.0000 0.87070  0.58440  0.03610  Biso   1.000  H
  H64      1.0000 0.83470  0.56140  0.98090  Biso   1.000  H
  Mn3      1.0000 0.65624  0.72320  0.24697  Biso   1.000  Mn
  O21      1.0000 0.77662  0.75016  0.34200  Biso   1.000  O
  O22      1.0000 0.71692  0.73981  0.26470  Biso   1.000  O
  O23      1.0000 0.71714  0.66351  0.92890  Biso   1.000  O
  O24      1.0000 0.77559  0.65012  0.86230  Biso   1.000  O
  O25      1.0000 0.98935  0.61400  0.22840  Biso   1.000  O
  O26      1.0000 0.95704  0.61178  0.93520  Biso   1.000  O
  O27      1.0000 0.12582  0.81188  0.86910  Biso   1.000  O
  O28      1.0000 0.16244  0.83560  0.00140  Biso   1.000  O
  O29      1.0000 0.14938  0.77360  0.34220  Biso   1.000  O
  O30      1.0000 0.11450  0.71790  0.36290  Biso   1.000  O
  C77      1.0000 0.75420  0.73320  0.27300  Biso   1.000  C
  C78      1.0000 0.77431  0.70510  0.20010  Biso   1.000  C
  C79      1.0000 0.75533  0.69497  0.10900  Biso   1.000  C
  H65      1.0000 0.72880  0.70390  0.09630  Biso   1.000  H
  C80      1.0000 0.77518  0.67183  0.03670  Biso   1.000  C
  C81      1.0000 0.81401  0.65881  0.05530  Biso   1.000  C
  H66      1.0000 0.82760  0.64300  0.00590  Biso   1.000  H
  C82      1.0000 0.83299  0.66894  0.14640  Biso   1.000  C
  C83      1.0000 0.81315  0.69208  0.21880  Biso   1.000  C
  H67      1.0000 0.82610  0.69900  0.28100  Biso   1.000  H
  C84      1.0000 0.75490  0.66020  0.94130  Biso   1.000  C
  C85      1.0000 0.87502  0.65518  0.16620  Biso   1.000  C
  C86      1.0000 0.90638  0.66434  0.10040  Biso   1.000  C
  C87      1.0000 0.94478  0.65062  0.12150  Biso   1.000  C
  C88      1.0000 0.95181  0.62773  0.20850  Biso   1.000  C
  C89      1.0000 0.92045  0.61857  0.27440  Biso   1.000  C
  C90      1.0000 0.88206  0.63230  0.25320  Biso   1.000  C
  H68      1.0000 0.86060  0.62600  0.29820  Biso   1.000  H
  C91      1.0000 0.90020  0.69190  0.00700  Biso   1.000  C
  H69      1.0000 0.87190  0.69910  0.00150  Biso   1.000  H
  H70      1.0000 0.90860  0.67790  0.94470  Biso   1.000  H
  H71      1.0000 0.91620  0.71630  0.01550  Biso   1.000  H
  C92      1.0000 0.97997  0.66037  0.05480  Biso   1.000  C
  C93      1.0000 0.98496  0.63955  0.96360  Biso   1.000  C
  C94      1.0000 0.01837  0.64667  0.90290  Biso   1.000  C
  C95      1.0000 0.04679  0.67462  0.93330  Biso   1.000  C
  H72      1.0000 0.06960  0.67950  0.89190  Biso   1.000  H
  C96      1.0000 0.04179  0.69545  0.02450  Biso   1.000  C
  C97      1.0000 0.00838  0.68832  0.08530  Biso   1.000  C
  C98      1.0000 0.99790  0.71370  0.18120  Biso   1.000  C
  H73      1.0000 0.01990  0.73230  0.19560  Biso   1.000  H
  H74      1.0000 0.99410  0.69590  0.24010  Biso   1.000  H
  H75      1.0000 0.97330  0.72880  0.16850  Biso   1.000  H
  C99      1.0000 0.07478  0.72357  0.06060  Biso   1.000  C
  C100     1.0000 0.09013  0.75256  0.99520  Biso   1.000  C
  H76      1.0000 0.08110  0.75400  0.92630  Biso   1.000  H
  C101     1.0000 0.11863  0.77952  0.03060  Biso   1.000  C
  C102     1.0000 0.13179  0.77748  0.13130  Biso   1.000  C
  H77      1.0000 0.15130  0.79590  0.15550  Biso   1.000  H
  C103     1.0000 0.11644  0.74849  0.19680  Biso   1.000  C
  C104     1.0000 0.08794  0.72153  0.16140  Biso   1.000  C
  H78      1.0000 0.07740  0.70170  0.20610  Biso   1.000  H
  C105     1.0000 0.12700  0.74450  0.31040  Biso   1.000  C
  C106     1.0000 0.13580  0.81000  0.96030  Biso   1.000  C
  C107     1.0000 0.92820  0.59350  0.37510  Biso   1.000  C
  C108     1.0000 0.94470  0.55150  0.34700  Biso   1.000  C
  H79      1.0000 0.94960  0.53620  0.40980  Biso   1.000  H
  H80      1.0000 0.96980  0.55440  0.30910  Biso   1.000  H
  H81      1.0000 0.92510  0.53730  0.30450  Biso   1.000  H
  C109     1.0000 0.95860  0.61470  0.44440  Biso   1.000  C
  H82      1.0000 0.96300  0.59860  0.50610  Biso   1.000  H
  H83      1.0000 0.94820  0.64110  0.46370  Biso   1.000  H
  H84      1.0000 0.98390  0.61800  0.40760  Biso   1.000  H
  C110     1.0000 0.89080  0.58700  0.43640  Biso   1.000  C
  H85      1.0000 0.89720  0.57150  0.49790  Biso   1.000  H
  H86      1.0000 0.87120  0.57240  0.39500  Biso   1.000  H
  H87      1.0000 0.87960  0.61300  0.45650  Biso   1.000  H
  C111     1.0000 0.02350  0.62470  0.79650  Biso   1.000  C
  C112     1.0000 0.02570  0.57960  0.81100  Biso   1.000  C
  H88      1.0000 0.02870  0.56660  0.74420  Biso   1.000  H
  H89      1.0000 0.00110  0.57020  0.84380  Biso   1.000  H
  H90      1.0000 0.04870  0.57300  0.85430  Biso   1.000  H
  C113     1.0000 0.98730  0.63560  0.72690  Biso   1.000  C
  H91      1.0000 0.99010  0.62220  0.66060  Biso   1.000  H
  H92      1.0000 0.98650  0.66470  0.71640  Biso   1.000  H
  H93      1.0000 0.96240  0.62690  0.75970  Biso   1.000  H
  C114     1.0000 0.06140  0.63640  0.74320  Biso   1.000  C
  H94      1.0000 0.06320  0.62230  0.67760  Biso   1.000  H
  H95      1.0000 0.08440  0.62930  0.78610  Biso   1.000  H
  H96      1.0000 0.06140  0.66530  0.73090  Biso   1.000  H
  Mn4      1.0000 0.34376  0.27680  0.74697  Biso   1.000  Mn
  O31      1.0000 0.22338  0.24984  0.84200  Biso   1.000  O
  O32      1.0000 0.28308  0.26019  0.76470  Biso   1.000  O
  O33      1.0000 0.28286  0.33649  0.42890  Biso   1.000  O
  O34      1.0000 0.22441  0.34988  0.36230  Biso   1.000  O
  O35      1.0000 0.01065  0.38600  0.72840  Biso   1.000  O
  O36      1.0000 0.04296  0.38822  0.43520  Biso   1.000  O
  O37      1.0000 0.87418  0.18812  0.36910  Biso   1.000  O
  O38      1.0000 0.83756  0.16440  0.50140  Biso   1.000  O
  O39      1.0000 0.85062  0.22640  0.84220  Biso   1.000  O
  O40      1.0000 0.88550  0.28210  0.86290  Biso   1.000  O
  C115     1.0000 0.24580  0.26680  0.77300  Biso   1.000  C
  C116     1.0000 0.22569  0.29490  0.70010  Biso   1.000  C
  C117     1.0000 0.24467  0.30503  0.60900  Biso   1.000  C
  H97      1.0000 0.27120  0.29610  0.59630  Biso   1.000  H
  C118     1.0000 0.22482  0.32817  0.53670  Biso   1.000  C
  C119     1.0000 0.18599  0.34119  0.55530  Biso   1.000  C
  H98      1.0000 0.17240  0.35700  0.50590  Biso   1.000  H
  C120     1.0000 0.16701  0.33106  0.64640  Biso   1.000  C
  C121     1.0000 0.18685  0.30792  0.71880  Biso   1.000  C
  H99      1.0000 0.17390  0.30100  0.78100  Biso   1.000  H
  C122     1.0000 0.24510  0.33980  0.44130  Biso   1.000  C
  C123     1.0000 0.12498  0.34482  0.66620  Biso   1.000  C
  C124     1.0000 0.09362  0.33566  0.60040  Biso   1.000  C
  C125     1.0000 0.05522  0.34938  0.62150  Biso   1.000  C
  C126     1.0000 0.04819  0.37227  0.70850  Biso   1.000  C
  C127     1.0000 0.07955  0.38143  0.77440  Biso   1.000  C
  C128     1.0000 0.11794  0.36770  0.75320  Biso   1.000  C
  H100     1.0000 0.13940  0.37400  0.79820  Biso   1.000  H
  C129     1.0000 0.09980  0.30810  0.50700  Biso   1.000  C
  H101     1.0000 0.12810  0.30090  0.50150  Biso   1.000  H
  H102     1.0000 0.09140  0.32210  0.44470  Biso   1.000  H
  H103     1.0000 0.08380  0.28370  0.51550  Biso   1.000  H
  C130     1.0000 0.02003  0.33963  0.55480  Biso   1.000  C
  C131     1.0000 0.01504  0.36045  0.46360  Biso   1.000  C
  C132     1.0000 0.98163  0.35333  0.40290  Biso   1.000  C
  C133     1.0000 0.95321  0.32538  0.43330  Biso   1.000  C
  H104     1.0000 0.93040  0.32050  0.39190  Biso   1.000  H
  C134     1.0000 0.95821  0.30455  0.52450  Biso   1.000  C
  C135     1.0000 0.99162  0.31168  0.58530  Biso   1.000  C
  C136     1.0000 0.00210  0.28630  0.68120  Biso   1.000  C
  H105     1.0000 0.98010  0.26770  0.69560  Biso   1.000  H
  H106     1.0000 0.00590  0.30410  0.74010  Biso   1.000  H
  H107     1.0000 0.02670  0.27120  0.66850  Biso   1.000  H
  C137     1.0000 0.92522  0.27643  0.56060  Biso   1.000  C
  C138     1.0000 0.90987  0.24744  0.49520  Biso   1.000  C
  H108     1.0000 0.91890  0.24600  0.42630  Biso   1.000  H
  C139     1.0000 0.88137  0.22048  0.53060  Biso   1.000  C
  C140     1.0000 0.86821  0.22252  0.63130  Biso   1.000  C
  H109     1.0000 0.84870  0.20410  0.65550  Biso   1.000  H
  C141     1.0000 0.88356  0.25151  0.69680  Biso   1.000  C
  C142     1.0000 0.91206  0.27847  0.66140  Biso   1.000  C
  H110     1.0000 0.92260  0.29830  0.70610  Biso   1.000  H
  C143     1.0000 0.87300  0.25550  0.81040  Biso   1.000  C
  C144     1.0000 0.86420  0.19000  0.46030  Biso   1.000  C
  C145     1.0000 0.07180  0.40650  0.87510  Biso   1.000  C
  C146     1.0000 0.05530  0.44850  0.84700  Biso   1.000  C
  H111     1.0000 0.05040  0.46380  0.90980  Biso   1.000  H
  H112     1.0000 0.03020  0.44560  0.80910  Biso   1.000  H
  H113     1.0000 0.07490  0.46270  0.80450  Biso   1.000  H
  C147     1.0000 0.04140  0.38530  0.94440  Biso   1.000  C
  H114     1.0000 0.03700  0.40140  0.00610  Biso   1.000  H
  H115     1.0000 0.05180  0.35890  0.96370  Biso   1.000  H
  H116     1.0000 0.01610  0.38200  0.90760  Biso   1.000  H
  C148     1.0000 0.10920  0.41300  0.93640  Biso   1.000  C
  H117     1.0000 0.10280  0.42850  0.99790  Biso   1.000  H
  H118     1.0000 0.12880  0.42760  0.89500  Biso   1.000  H
  H119     1.0000 0.12040  0.38700  0.95650  Biso   1.000  H
  C149     1.0000 0.97650  0.37530  0.29650  Biso   1.000  C
  C150     1.0000 0.97430  0.42040  0.31100  Biso   1.000  C
  H120     1.0000 0.97130  0.43340  0.24420  Biso   1.000  H
  H121     1.0000 0.99890  0.42980  0.34380  Biso   1.000  H
  H122     1.0000 0.95130  0.42700  0.35430  Biso   1.000  H
  C151     1.0000 0.01270  0.36440  0.22690  Biso   1.000  C
  H123     1.0000 0.00990  0.37780  0.16060  Biso   1.000  H
  H124     1.0000 0.01350  0.33530  0.21640  Biso   1.000  H
  H125     1.0000 0.03760  0.37310  0.25970  Biso   1.000  H
  C152     1.0000 0.93860  0.36360  0.24320  Biso   1.000  C
  H126     1.0000 0.93680  0.37770  0.17760  Biso   1.000  H
  H127     1.0000 0.91560  0.37070  0.28610  Biso   1.000  H
  H128     1.0000 0.93860  0.33470  0.23090  Biso   1.000  H
  Mn5      1.0000 0.27680  0.34376  0.25303  Biso   1.000  Mn
  O41      1.0000 0.24984  0.22338  0.15800  Biso   1.000  O
  O42      1.0000 0.26019  0.28308  0.23530  Biso   1.000  O
  O43      1.0000 0.33649  0.28286  0.57110  Biso   1.000  O
  O44      1.0000 0.34988  0.22441  0.63770  Biso   1.000  O
  O45      1.0000 0.38600  0.01065  0.27160  Biso   1.000  O
  O46      1.0000 0.38822  0.04296  0.56480  Biso   1.000  O
  O47      1.0000 0.18812  0.87418  0.63090  Biso   1.000  O
  O48      1.0000 0.16440  0.83756  0.49860  Biso   1.000  O
  O49      1.0000 0.22640  0.85062  0.15780  Biso   1.000  O
  O50      1.0000 0.28210  0.88550  0.13710  Biso   1.000  O
  C153     1.0000 0.26680  0.24580  0.22700  Biso   1.000  C
  C154     1.0000 0.29490  0.22569  0.29990  Biso   1.000  C
  C155     1.0000 0.30503  0.24467  0.39100  Biso   1.000  C
  H129     1.0000 0.29610  0.27120  0.40370  Biso   1.000  H
  C156     1.0000 0.32817  0.22482  0.46330  Biso   1.000  C
  C157     1.0000 0.34119  0.18599  0.44470  Biso   1.000  C
  H130     1.0000 0.35700  0.17240  0.49410  Biso   1.000  H
  C158     1.0000 0.33106  0.16701  0.35360  Biso   1.000  C
  C159     1.0000 0.30792  0.18685  0.28120  Biso   1.000  C
  H131     1.0000 0.30100  0.17390  0.21900  Biso   1.000  H
  C160     1.0000 0.33980  0.24510  0.55870  Biso   1.000  C
  C161     1.0000 0.34482  0.12498  0.33380  Biso   1.000  C
  C162     1.0000 0.33566  0.09362  0.39960  Biso   1.000  C
  C163     1.0000 0.34938  0.05522  0.37850  Biso   1.000  C
  C164     1.0000 0.37227  0.04819  0.29150  Biso   1.000  C
  C165     1.0000 0.38143  0.07955  0.22560  Biso   1.000  C
  C166     1.0000 0.36770  0.11794  0.24680  Biso   1.000  C
  H132     1.0000 0.37400  0.13940  0.20180  Biso   1.000  H
  C167     1.0000 0.30810  0.09980  0.49300  Biso   1.000  C
  H133     1.0000 0.30090  0.12810  0.49850  Biso   1.000  H
  H134     1.0000 0.32210  0.09140  0.55530  Biso   1.000  H
  H135     1.0000 0.28370  0.08380  0.48450  Biso   1.000  H
  C168     1.0000 0.33963  0.02003  0.44520  Biso   1.000  C
  C169     1.0000 0.36045  0.01504  0.53640  Biso   1.000  C
  C170     1.0000 0.35333  0.98163  0.59710  Biso   1.000  C
  C171     1.0000 0.32538  0.95321  0.56670  Biso   1.000  C
  H136     1.0000 0.32050  0.93040  0.60810  Biso   1.000  H
  C172     1.0000 0.30455  0.95821  0.47550  Biso   1.000  C
  C173     1.0000 0.31168  0.99162  0.41470  Biso   1.000  C
  C174     1.0000 0.28630  0.00210  0.31880  Biso   1.000  C
  H137     1.0000 0.26770  0.98010  0.30440  Biso   1.000  H
  H138     1.0000 0.30410  0.00590  0.25990  Biso   1.000  H
  H139     1.0000 0.27120  0.02670  0.33150  Biso   1.000  H
  C175     1.0000 0.27643  0.92522  0.43940  Biso   1.000  C
  C176     1.0000 0.24744  0.90987  0.50480  Biso   1.000  C
  H140     1.0000 0.24600  0.91890  0.57370  Biso   1.000  H
  C177     1.0000 0.22048  0.88137  0.46940  Biso   1.000  C
  C178     1.0000 0.22252  0.86821  0.36870  Biso   1.000  C
  H141     1.0000 0.20410  0.84870  0.34450  Biso   1.000  H
  C179     1.0000 0.25151  0.88356  0.30320  Biso   1.000  C
  C180     1.0000 0.27847  0.91206  0.33860  Biso   1.000  C
  H142     1.0000 0.29830  0.92260  0.29390  Biso   1.000  H
  C181     1.0000 0.25550  0.87300  0.18960  Biso   1.000  C
  C182     1.0000 0.19000  0.86420  0.53970  Biso   1.000  C
  C183     1.0000 0.40650  0.07180  0.12490  Biso   1.000  C
  C184     1.0000 0.44850  0.05530  0.15300  Biso   1.000  C
  H143     1.0000 0.46380  0.05040  0.09020  Biso   1.000  H
  H144     1.0000 0.44560  0.03020  0.19090  Biso   1.000  H
  H145     1.0000 0.46270  0.07490  0.19550  Biso   1.000  H
  C185     1.0000 0.38530  0.04140  0.05560  Biso   1.000  C
  H146     1.0000 0.40140  0.03700  0.99390  Biso   1.000  H
  H147     1.0000 0.35890  0.05180  0.03630  Biso   1.000  H
  H148     1.0000 0.38200  0.01610  0.09240  Biso   1.000  H
  C186     1.0000 0.41300  0.10920  0.06360  Biso   1.000  C
  H149     1.0000 0.42850  0.10280  0.00210  Biso   1.000  H
  H150     1.0000 0.42760  0.12880  0.10500  Biso   1.000  H
  H151     1.0000 0.38700  0.12040  0.04350  Biso   1.000  H
  C187     1.0000 0.37530  0.97650  0.70350  Biso   1.000  C
  C188     1.0000 0.42040  0.97430  0.68900  Biso   1.000  C
  H152     1.0000 0.43340  0.97130  0.75580  Biso   1.000  H
  H153     1.0000 0.42980  0.99890  0.65620  Biso   1.000  H
  H154     1.0000 0.42700  0.95130  0.64570  Biso   1.000  H
  C189     1.0000 0.36440  0.01270  0.77310  Biso   1.000  C
  H155     1.0000 0.37780  0.00990  0.83940  Biso   1.000  H
  H156     1.0000 0.33530  0.01350  0.78360  Biso   1.000  H
  H157     1.0000 0.37310  0.03760  0.74030  Biso   1.000  H
  C190     1.0000 0.36360  0.93860  0.75680  Biso   1.000  C
  H158     1.0000 0.37770  0.93680  0.82240  Biso   1.000  H
  H159     1.0000 0.37070  0.91560  0.71390  Biso   1.000  H
  H160     1.0000 0.33470  0.93860  0.76910  Biso   1.000  H
  Mn6      1.0000 0.72320  0.65624  0.75303  Biso   1.000  Mn
  O51      1.0000 0.75016  0.77662  0.65800  Biso   1.000  O
  O52      1.0000 0.73981  0.71692  0.73530  Biso   1.000  O
  O53      1.0000 0.66351  0.71714  0.07110  Biso   1.000  O
  O54      1.0000 0.65012  0.77559  0.13770  Biso   1.000  O
  O55      1.0000 0.61400  0.98935  0.77160  Biso   1.000  O
  O56      1.0000 0.61178  0.95704  0.06480  Biso   1.000  O
  O57      1.0000 0.81188  0.12582  0.13090  Biso   1.000  O
  O58      1.0000 0.83560  0.16244  0.99860  Biso   1.000  O
  O59      1.0000 0.77360  0.14938  0.65780  Biso   1.000  O
  O60      1.0000 0.71790  0.11450  0.63710  Biso   1.000  O
  C191     1.0000 0.73320  0.75420  0.72700  Biso   1.000  C
  C192     1.0000 0.70510  0.77431  0.79990  Biso   1.000  C
  C193     1.0000 0.69497  0.75533  0.89100  Biso   1.000  C
  H161     1.0000 0.70390  0.72880  0.90370  Biso   1.000  H
  C194     1.0000 0.67183  0.77518  0.96330  Biso   1.000  C
  C195     1.0000 0.65881  0.81401  0.94470  Biso   1.000  C
  H162     1.0000 0.64300  0.82760  0.99410  Biso   1.000  H
  C196     1.0000 0.66894  0.83299  0.85360  Biso   1.000  C
  C197     1.0000 0.69208  0.81315  0.78120  Biso   1.000  C
  H163     1.0000 0.69900  0.82610  0.71900  Biso   1.000  H
  C198     1.0000 0.66020  0.75490  0.05870  Biso   1.000  C
  C199     1.0000 0.65518  0.87502  0.83380  Biso   1.000  C
  C200     1.0000 0.66434  0.90638  0.89960  Biso   1.000  C
  C201     1.0000 0.65062  0.94478  0.87850  Biso   1.000  C
  C202     1.0000 0.62773  0.95181  0.79150  Biso   1.000  C
  C203     1.0000 0.61857  0.92045  0.72560  Biso   1.000  C
  C204     1.0000 0.63230  0.88206  0.74680  Biso   1.000  C
  H164     1.0000 0.62600  0.86060  0.70180  Biso   1.000  H
  C205     1.0000 0.69190  0.90020  0.99300  Biso   1.000  C
  H165     1.0000 0.69910  0.87190  0.99850  Biso   1.000  H
  H166     1.0000 0.67790  0.90860  0.05530  Biso   1.000  H
  H167     1.0000 0.71630  0.91620  0.98450  Biso   1.000  H
  C206     1.0000 0.66037  0.97997  0.94520  Biso   1.000  C
  C207     1.0000 0.63955  0.98496  0.03640  Biso   1.000  C
  C208     1.0000 0.64667  0.01837  0.09710  Biso   1.000  C
  C209     1.0000 0.67462  0.04679  0.06670  Biso   1.000  C
  H168     1.0000 0.67950  0.06960  0.10810  Biso   1.000  H
  C210     1.0000 0.69545  0.04179  0.97550  Biso   1.000  C
  C211     1.0000 0.68832  0.00838  0.91470  Biso   1.000  C
  C212     1.0000 0.71370  0.99790  0.81880  Biso   1.000  C
  H169     1.0000 0.73230  0.01990  0.80440  Biso   1.000  H
  H170     1.0000 0.69590  0.99410  0.75990  Biso   1.000  H
  H171     1.0000 0.72880  0.97330  0.83150  Biso   1.000  H
  C213     1.0000 0.72357  0.07478  0.93940  Biso   1.000  C
  C214     1.0000 0.75256  0.09013  0.00480  Biso   1.000  C
  H172     1.0000 0.75400  0.08110  0.07370  Biso   1.000  H
  C215     1.0000 0.77952  0.11863  0.96940  Biso   1.000  C
  C216     1.0000 0.77748  0.13179  0.86870  Biso   1.000  C
  H173     1.0000 0.79590  0.15130  0.84450  Biso   1.000  H
  C217     1.0000 0.74849  0.11644  0.80320  Biso   1.000  C
  C218     1.0000 0.72153  0.08794  0.83860  Biso   1.000  C
  H174     1.0000 0.70170  0.07740  0.79390  Biso   1.000  H
  C219     1.0000 0.74450  0.12700  0.68960  Biso   1.000  C
  C220     1.0000 0.81000  0.13580  0.03970  Biso   1.000  C
  C221     1.0000 0.59350  0.92820  0.62490  Biso   1.000  C
  C222     1.0000 0.55150  0.94470  0.65300  Biso   1.000  C
  H175     1.0000 0.53620  0.94960  0.59020  Biso   1.000  H
  H176     1.0000 0.55440  0.96980  0.69090  Biso   1.000  H
  H177     1.0000 0.53730  0.92510  0.69550  Biso   1.000  H
  C223     1.0000 0.61470  0.95860  0.55560  Biso   1.000  C
  H178     1.0000 0.59860  0.96300  0.49390  Biso   1.000  H
  H179     1.0000 0.64110  0.94820  0.53630  Biso   1.000  H
  H180     1.0000 0.61800  0.98390  0.59240  Biso   1.000  H
  C224     1.0000 0.58700  0.89080  0.56360  Biso   1.000  C
  H181     1.0000 0.57150  0.89720  0.50210  Biso   1.000  H
  H182     1.0000 0.57240  0.87120  0.60500  Biso   1.000  H
  H183     1.0000 0.61300  0.87960  0.54350  Biso   1.000  H
  C225     1.0000 0.62470  0.02350  0.20350  Biso   1.000  C
  C226     1.0000 0.57960  0.02570  0.18900  Biso   1.000  C
  H184     1.0000 0.56660  0.02870  0.25580  Biso   1.000  H
  H185     1.0000 0.57020  0.00110  0.15620  Biso   1.000  H
  H186     1.0000 0.57300  0.04870  0.14570  Biso   1.000  H
  C227     1.0000 0.63560  0.98730  0.27310  Biso   1.000  C
  H187     1.0000 0.62220  0.99010  0.33940  Biso   1.000  H
  H188     1.0000 0.66470  0.98650  0.28360  Biso   1.000  H
  H189     1.0000 0.62690  0.96240  0.24030  Biso   1.000  H
  C228     1.0000 0.63640  0.06140  0.25680  Biso   1.000  C
  H190     1.0000 0.62230  0.06320  0.32240  Biso   1.000  H
  H191     1.0000 0.62930  0.08440  0.21390  Biso   1.000  H
  H192     1.0000 0.66530  0.06140  0.26910  Biso   1.000  H
  Mn7      1.0000 0.84376  0.22320  0.00303  Biso   1.000  Mn
  O61      1.0000 0.72338  0.25016  0.90800  Biso   1.000  O
  O62      1.0000 0.78308  0.23981  0.98530  Biso   1.000  O
  O63      1.0000 0.78286  0.16351  0.32110  Biso   1.000  O
  O64      1.0000 0.72441  0.15012  0.38770  Biso   1.000  O
  O65      1.0000 0.51065  0.11400  0.02160  Biso   1.000  O
  O66      1.0000 0.54296  0.11178  0.31480  Biso   1.000  O
  O67      1.0000 0.37418  0.31188  0.38090  Biso   1.000  O
  O68      1.0000 0.33756  0.33560  0.24860  Biso   1.000  O
  O69      1.0000 0.35062  0.27360  0.90780  Biso   1.000  O
  O70      1.0000 0.38550  0.21790  0.88710  Biso   1.000  O
  C229     1.0000 0.74580  0.23320  0.97700  Biso   1.000  C
  C230     1.0000 0.72569  0.20510  0.04990  Biso   1.000  C
  C231     1.0000 0.74467  0.19497  0.14100  Biso   1.000  C
  H193     1.0000 0.77120  0.20390  0.15370  Biso   1.000  H
  C232     1.0000 0.72482  0.17183  0.21330  Biso   1.000  C
  C233     1.0000 0.68599  0.15881  0.19470  Biso   1.000  C
  H194     1.0000 0.67240  0.14300  0.24410  Biso   1.000  H
  C234     1.0000 0.66701  0.16894  0.10360  Biso   1.000  C
  C235     1.0000 0.68685  0.19208  0.03120  Biso   1.000  C
  H195     1.0000 0.67390  0.19900  0.96900  Biso   1.000  H
  C236     1.0000 0.74510  0.16020  0.30870  Biso   1.000  C
  C237     1.0000 0.62498  0.15518  0.08380  Biso   1.000  C
  C238     1.0000 0.59362  0.16434  0.14960  Biso   1.000  C
  C239     1.0000 0.55522  0.15062  0.12850  Biso   1.000  C
  C240     1.0000 0.54819  0.12773  0.04150  Biso   1.000  C
  C241     1.0000 0.57955  0.11857  0.97560  Biso   1.000  C
  C242     1.0000 0.61794  0.13230  0.99680  Biso   1.000  C
  H196     1.0000 0.63940  0.12600  0.95180  Biso   1.000  H
  C243     1.0000 0.59980  0.19190  0.24300  Biso   1.000  C
  H197     1.0000 0.62810  0.19910  0.24850  Biso   1.000  H
  H198     1.0000 0.59140  0.17790  0.30530  Biso   1.000  H
  H199     1.0000 0.58380  0.21630  0.23450  Biso   1.000  H
  C244     1.0000 0.52003  0.16037  0.19520  Biso   1.000  C
  C245     1.0000 0.51504  0.13955  0.28640  Biso   1.000  C
  C246     1.0000 0.48163  0.14667  0.34710  Biso   1.000  C
  C247     1.0000 0.45321  0.17462  0.31670  Biso   1.000  C
  H200     1.0000 0.43040  0.17950  0.35810  Biso   1.000  H
  C248     1.0000 0.45821  0.19545  0.22550  Biso   1.000  C
  C249     1.0000 0.49162  0.18832  0.16470  Biso   1.000  C
  C250     1.0000 0.50210  0.21370  0.06880  Biso   1.000  C
  H201     1.0000 0.48010  0.23230  0.05440  Biso   1.000  H
  H202     1.0000 0.50590  0.19590  0.00990  Biso   1.000  H
  H203     1.0000 0.52670  0.22880  0.08150  Biso   1.000  H
  C251     1.0000 0.42522  0.22357  0.18940  Biso   1.000  C
  C252     1.0000 0.40987  0.25256  0.25480  Biso   1.000  C
  H204     1.0000 0.41890  0.25400  0.32370  Biso   1.000  H
  C253     1.0000 0.38137  0.27952  0.21940  Biso   1.000  C
  C254     1.0000 0.36821  0.27748  0.11870  Biso   1.000  C
  H205     1.0000 0.34870  0.29590  0.09450  Biso   1.000  H
  C255     1.0000 0.38356  0.24849  0.05320  Biso   1.000  C
  C256     1.0000 0.41206  0.22153  0.08860  Biso   1.000  C
  H206     1.0000 0.42260  0.20170  0.04390  Biso   1.000  H
  C257     1.0000 0.37300  0.24450  0.93960  Biso   1.000  C
  C258     1.0000 0.36420  0.31000  0.28970  Biso   1.000  C
  C259     1.0000 0.57180  0.09350  0.87490  Biso   1.000  C
  C260     1.0000 0.55530  0.05150  0.90300  Biso   1.000  C
  H207     1.0000 0.55040  0.03620  0.84020  Biso   1.000  H
  H208     1.0000 0.53020  0.05440  0.94090  Biso   1.000  H
  H209     1.0000 0.57490  0.03730  0.94550  Biso   1.000  H
  C261     1.0000 0.54140  0.11470  0.80560  Biso   1.000  C
  H210     1.0000 0.53700  0.09860  0.74390  Biso   1.000  H
  H211     1.0000 0.55180  0.14110  0.78630  Biso   1.000  H
  H212     1.0000 0.51610  0.11800  0.84240  Biso   1.000  H
  C262     1.0000 0.60920  0.08700  0.81360  Biso   1.000  C
  H213     1.0000 0.60280  0.07150  0.75210  Biso   1.000  H
  H214     1.0000 0.62880  0.07240  0.85500  Biso   1.000  H
  H215     1.0000 0.62040  0.11300  0.79350  Biso   1.000  H
  C263     1.0000 0.47650  0.12470  0.45350  Biso   1.000  C
  C264     1.0000 0.47430  0.07960  0.43900  Biso   1.000  C
  H216     1.0000 0.47130  0.06660  0.50580  Biso   1.000  H
  H217     1.0000 0.49890  0.07020  0.40620  Biso   1.000  H
  H218     1.0000 0.45130  0.07300  0.39570  Biso   1.000  H
  C265     1.0000 0.51270  0.13560  0.52310  Biso   1.000  C
  H219     1.0000 0.50990  0.12220  0.58940  Biso   1.000  H
  H220     1.0000 0.51350  0.16470  0.53360  Biso   1.000  H
  H221     1.0000 0.53760  0.12690  0.49030  Biso   1.000  H
  C266     1.0000 0.43860  0.13640  0.50680  Biso   1.000  C
  H222     1.0000 0.43680  0.12230  0.57240  Biso   1.000  H
  H223     1.0000 0.41560  0.12930  0.46390  Biso   1.000  H
  H224     1.0000 0.43860  0.16530  0.51910  Biso   1.000  H
  Mn8      1.0000 0.15624  0.77680  0.50303  Biso   1.000  Mn
  O71      1.0000 0.27662  0.74984  0.40800  Biso   1.000  O
  O72      1.0000 0.21692  0.76019  0.48530  Biso   1.000  O
  O73      1.0000 0.21714  0.83649  0.82110  Biso   1.000  O
  O74      1.0000 0.27559  0.84988  0.88770  Biso   1.000  O
  O75      1.0000 0.48935  0.88600  0.52160  Biso   1.000  O
  O76      1.0000 0.45704  0.88822  0.81480  Biso   1.000  O
  O77      1.0000 0.62582  0.68812  0.88090  Biso   1.000  O
  O78      1.0000 0.66244  0.66440  0.74860  Biso   1.000  O
  O79      1.0000 0.64938  0.72640  0.40780  Biso   1.000  O
  O80      1.0000 0.61450  0.78210  0.38710  Biso   1.000  O
  C267     1.0000 0.25420  0.76680  0.47700  Biso   1.000  C
  C268     1.0000 0.27431  0.79490  0.54990  Biso   1.000  C
  C269     1.0000 0.25533  0.80503  0.64100  Biso   1.000  C
  H225     1.0000 0.22880  0.79610  0.65370  Biso   1.000  H
  C270     1.0000 0.27518  0.82817  0.71330  Biso   1.000  C
  C271     1.0000 0.31401  0.84119  0.69470  Biso   1.000  C
  H226     1.0000 0.32760  0.85700  0.74410  Biso   1.000  H
  C272     1.0000 0.33299  0.83106  0.60360  Biso   1.000  C
  C273     1.0000 0.31315  0.80792  0.53120  Biso   1.000  C
  H227     1.0000 0.32610  0.80100  0.46900  Biso   1.000  H
  C274     1.0000 0.25490  0.83980  0.80870  Biso   1.000  C
  C275     1.0000 0.37502  0.84482  0.58380  Biso   1.000  C
  C276     1.0000 0.40638  0.83566  0.64960  Biso   1.000  C
  C277     1.0000 0.44478  0.84938  0.62850  Biso   1.000  C
  C278     1.0000 0.45181  0.87227  0.54150  Biso   1.000  C
  C279     1.0000 0.42045  0.88143  0.47560  Biso   1.000  C
  C280     1.0000 0.38206  0.86770  0.49680  Biso   1.000  C
  H228     1.0000 0.36060  0.87400  0.45180  Biso   1.000  H
  C281     1.0000 0.40020  0.80810  0.74300  Biso   1.000  C
  H229     1.0000 0.37190  0.80090  0.74850  Biso   1.000  H
  H230     1.0000 0.40860  0.82210  0.80530  Biso   1.000  H
  H231     1.0000 0.41620  0.78370  0.73450  Biso   1.000  H
  C282     1.0000 0.47997  0.83963  0.69520  Biso   1.000  C
  C283     1.0000 0.48496  0.86045  0.78640  Biso   1.000  C
  C284     1.0000 0.51837  0.85333  0.84710  Biso   1.000  C
  C285     1.0000 0.54679  0.82538  0.81670  Biso   1.000  C
  H232     1.0000 0.56960  0.82050  0.85810  Biso   1.000  H
  C286     1.0000 0.54179  0.80455  0.72550  Biso   1.000  C
  C287     1.0000 0.50838  0.81168  0.66470  Biso   1.000  C
  C288     1.0000 0.49790  0.78630  0.56880  Biso   1.000  C
  H233     1.0000 0.51990  0.76770  0.55440  Biso   1.000  H
  H234     1.0000 0.49410  0.80410  0.50990  Biso   1.000  H
  H235     1.0000 0.47330  0.77120  0.58150  Biso   1.000  H
  C289     1.0000 0.57478  0.77643  0.68940  Biso   1.000  C
  C290     1.0000 0.59013  0.74744  0.75480  Biso   1.000  C
  H236     1.0000 0.58110  0.74600  0.82370  Biso   1.000  H
  C291     1.0000 0.61863  0.72048  0.71940  Biso   1.000  C
  C292     1.0000 0.63179  0.72252  0.61870  Biso   1.000  C
  H237     1.0000 0.65130  0.70410  0.59450  Biso   1.000  H
  C293     1.0000 0.61644  0.75151  0.55320  Biso   1.000  C
  C294     1.0000 0.58794  0.77847  0.58860  Biso   1.000  C
  H238     1.0000 0.57740  0.79830  0.54390  Biso   1.000  H
  C295     1.0000 0.62700  0.75550  0.43960  Biso   1.000  C
  C296     1.0000 0.63580  0.69000  0.78970  Biso   1.000  C
  C297     1.0000 0.42820  0.90650  0.37490  Biso   1.000  C
  C298     1.0000 0.44470  0.94850  0.40300  Biso   1.000  C
  H239     1.0000 0.44960  0.96380  0.34020  Biso   1.000  H
  H240     1.0000 0.46980  0.94560  0.44090  Biso   1.000  H
  H241     1.0000 0.42510  0.96270  0.44550  Biso   1.000  H
  C299     1.0000 0.45860  0.88530  0.30560  Biso   1.000  C
  H242     1.0000 0.46300  0.90140  0.24390  Biso   1.000  H
  H243     1.0000 0.44820  0.85890  0.28630  Biso   1.000  H
  H244     1.0000 0.48390  0.88200  0.34240  Biso   1.000  H
  C300     1.0000 0.39080  0.91300  0.31360  Biso   1.000  C
  H245     1.0000 0.39720  0.92850  0.25210  Biso   1.000  H
  H246     1.0000 0.37120  0.92760  0.35500  Biso   1.000  H
  H247     1.0000 0.37960  0.88700  0.29350  Biso   1.000  H
  C301     1.0000 0.52350  0.87530  0.95350  Biso   1.000  C
  C302     1.0000 0.52570  0.92040  0.93900  Biso   1.000  C
  H248     1.0000 0.52870  0.93340  0.00580  Biso   1.000  H
  H249     1.0000 0.50110  0.92980  0.90620  Biso   1.000  H
  H250     1.0000 0.54870  0.92700  0.89570  Biso   1.000  H
  C303     1.0000 0.48730  0.86440  0.02310  Biso   1.000  C
  H251     1.0000 0.49010  0.87780  0.08940  Biso   1.000  H
  H252     1.0000 0.48650  0.83530  0.03360  Biso   1.000  H
  H253     1.0000 0.46240  0.87310  0.99030  Biso   1.000  H
  C304     1.0000 0.56140  0.86360  0.00680  Biso   1.000  C
  H254     1.0000 0.56320  0.87770  0.07240  Biso   1.000  H
  H255     1.0000 0.58440  0.87070  0.96390  Biso   1.000  H
  H256     1.0000 0.56140  0.83470  0.01910  Biso   1.000  H
  Mn9      1.0000 0.26659  0.73341  0.25000  Biso   1.000  Mn
  Mn10     1.0000 0.73341  0.26659  0.75000  Biso   1.000  Mn
  Mn11     1.0000 0.76659  0.76659  0.50000  Biso   1.000  Mn
  Mn12     1.0000 0.23341  0.23341  0.00000  Biso   1.000  Mn
  Mn13     1.0000 0.15725  0.84275  0.75000  Biso   1.000  Mn
  Mn14     1.0000 0.84275  0.15725  0.25000  Biso   1.000  Mn
  Mn15     1.0000 0.65725  0.65725  0.00000  Biso   1.000  Mn
  Mn16     1.0000 0.34275  0.34275  0.50000  Biso   1.000  Mn
