data_image0
_cell_length_a       25.4117
_cell_length_b       25.4117
_cell_length_c       52.162
_cell_angle_alpha    90
_cell_angle_beta     90
_cell_angle_gamma    90

_symmetry_space_group_name_H-M    "P 1"
_symmetry_int_tables_number       1

loop_
  _symmetry_equiv_pos_as_xyz
  'x, y, z'

loop_
  _atom_site_label
  _atom_site_occupancy
  _atom_site_fract_x
  _atom_site_fract_y
  _atom_site_fract_z
  _atom_site_thermal_displace_type
  _atom_site_B_iso_or_equiv
  _atom_site_type_symbol
  Cu1      1.0000 0.22338  0.45168  0.12614  Biso   1.000  Cu
  O1       1.0000 0.20018  0.49879  0.15465  Biso   1.000  O
  O2       1.0000 0.05403  0.58012  0.24114  Biso   1.000  O
  O3       1.0000 0.05402  0.51681  0.21126  Biso   1.000  O
  O4       1.0000 0.05347  0.43708  0.24605  Biso   1.000  O
  O5       1.0000 0.05413  0.49874  0.27633  Biso   1.000  O
  C1       1.0000 0.21653  0.54418  0.15877  Biso   1.000  C
  C2       1.0000 0.16658  0.41510  0.31700  Biso   1.000  C
  C3       1.0000 0.18853  0.57593  0.17816  Biso   1.000  C
  C4       1.0000 0.14349  0.55620  0.18993  Biso   1.000  C
  H1       1.0000 0.13080  0.52260  0.18490  Biso   1.000  H
  C5       1.0000 0.11711  0.58301  0.20826  Biso   1.000  C
  C6       1.0000 0.07128  0.55852  0.22131  Biso   1.000  C
  C7       1.0000 0.06913  0.45581  0.26663  Biso   1.000  C
  C8       1.0000 0.10810  0.42441  0.28153  Biso   1.000  C
  C9       1.0000 0.12057  0.37507  0.27385  Biso   1.000  C
  H2       1.0000 0.10460  0.36020  0.25910  Biso   1.000  H
  C10      1.0000 0.15722  0.34639  0.28806  Biso   1.000  C
  C11      1.0000 0.17941  0.36608  0.30939  Biso   1.000  C
  H3       1.0000 0.20380  0.34570  0.31900  Biso   1.000  H
  C12      1.0000 0.13054  0.44431  0.30337  Biso   1.000  C
  H4       1.0000 0.12110  0.47850  0.30910  Biso   1.000  H
  N1       1.0000 0.16684  0.29248  0.28025  Biso   1.000  N
  C13      1.0000 0.18080  0.27626  0.25538  Biso   1.000  C
  H5       1.0000 0.18870  0.29850  0.24130  Biso   1.000  H
  C14      1.0000 0.13381  0.63391  0.21470  Biso   1.000  C
  H6       1.0000 0.11610  0.65380  0.22750  Biso   1.000  H
  C15      1.0000 0.17648  0.65415  0.20197  Biso   1.000  C
  C16      1.0000 0.20424  0.62647  0.18410  Biso   1.000  C
  H7       1.0000 0.23390  0.64170  0.17590  Biso   1.000  H
  N2       1.0000 0.19322  0.70835  0.20725  Biso   1.000  N
  C17      1.0000 0.24211  0.72347  0.21478  Biso   1.000  C
  H8       1.0000 0.27070  0.70110  0.21920  Biso   1.000  H
  C18      1.0000 0.19313  0.44037  0.33990  Biso   1.000  C
  O6       1.0000 0.23126  0.41611  0.34956  Biso   1.000  O
  O7       1.0000 0.17518  0.48385  0.34728  Biso   1.000  O
  O8       1.0000 0.25538  0.56588  0.14783  Biso   1.000  O
  Cu2      1.0000 0.72338  0.95168  0.62614  Biso   1.000  Cu
  O9       1.0000 0.70018  0.99879  0.65465  Biso   1.000  O
  O10      1.0000 0.55403  0.08012  0.74114  Biso   1.000  O
  O11      1.0000 0.55402  0.01681  0.71126  Biso   1.000  O
  O12      1.0000 0.55347  0.93708  0.74605  Biso   1.000  O
  O13      1.0000 0.55413  0.99874  0.77633  Biso   1.000  O
  C19      1.0000 0.71653  0.04418  0.65877  Biso   1.000  C
  C20      1.0000 0.66658  0.91510  0.81700  Biso   1.000  C
  C21      1.0000 0.68853  0.07593  0.67816  Biso   1.000  C
  C22      1.0000 0.64349  0.05620  0.68993  Biso   1.000  C
  H9       1.0000 0.63080  0.02260  0.68490  Biso   1.000  H
  C23      1.0000 0.61711  0.08301  0.70826  Biso   1.000  C
  C24      1.0000 0.57128  0.05852  0.72131  Biso   1.000  C
  C25      1.0000 0.56913  0.95581  0.76663  Biso   1.000  C
  C26      1.0000 0.60810  0.92441  0.78153  Biso   1.000  C
  C27      1.0000 0.62057  0.87507  0.77385  Biso   1.000  C
  H10      1.0000 0.60460  0.86020  0.75910  Biso   1.000  H
  C28      1.0000 0.65722  0.84639  0.78806  Biso   1.000  C
  C29      1.0000 0.67941  0.86608  0.80939  Biso   1.000  C
  H11      1.0000 0.70380  0.84570  0.81900  Biso   1.000  H
  C30      1.0000 0.63054  0.94431  0.80337  Biso   1.000  C
  H12      1.0000 0.62110  0.97850  0.80910  Biso   1.000  H
  N3       1.0000 0.66684  0.79248  0.78025  Biso   1.000  N
  C31      1.0000 0.68080  0.77626  0.75538  Biso   1.000  C
  H13      1.0000 0.68870  0.79850  0.74130  Biso   1.000  H
  C32      1.0000 0.63381  0.13391  0.71470  Biso   1.000  C
  H14      1.0000 0.61610  0.15380  0.72750  Biso   1.000  H
  C33      1.0000 0.67648  0.15415  0.70197  Biso   1.000  C
  C34      1.0000 0.70424  0.12647  0.68410  Biso   1.000  C
  H15      1.0000 0.73390  0.14170  0.67590  Biso   1.000  H
  N4       1.0000 0.69322  0.20835  0.70725  Biso   1.000  N
  C35      1.0000 0.74211  0.22347  0.71478  Biso   1.000  C
  H16      1.0000 0.77070  0.20110  0.71920  Biso   1.000  H
  C36      1.0000 0.69313  0.94037  0.83990  Biso   1.000  C
  O14      1.0000 0.73126  0.91611  0.84956  Biso   1.000  O
  O15      1.0000 0.67518  0.98385  0.84728  Biso   1.000  O
  O16      1.0000 0.75538  0.06588  0.64783  Biso   1.000  O
  Cu3      1.0000 0.27662  0.54832  0.62614  Biso   1.000  Cu
  O17      1.0000 0.29982  0.50121  0.65465  Biso   1.000  O
  O18      1.0000 0.44597  0.41988  0.74114  Biso   1.000  O
  O19      1.0000 0.44598  0.48319  0.71126  Biso   1.000  O
  O20      1.0000 0.44653  0.56292  0.74605  Biso   1.000  O
  O21      1.0000 0.44587  0.50126  0.77633  Biso   1.000  O
  C37      1.0000 0.28347  0.45582  0.65877  Biso   1.000  C
  C38      1.0000 0.33342  0.58490  0.81700  Biso   1.000  C
  C39      1.0000 0.31147  0.42407  0.67816  Biso   1.000  C
  C40      1.0000 0.35651  0.44380  0.68993  Biso   1.000  C
  H17      1.0000 0.36920  0.47740  0.68490  Biso   1.000  H
  C41      1.0000 0.38289  0.41699  0.70826  Biso   1.000  C
  C42      1.0000 0.42872  0.44148  0.72131  Biso   1.000  C
  C43      1.0000 0.43087  0.54419  0.76663  Biso   1.000  C
  C44      1.0000 0.39190  0.57559  0.78153  Biso   1.000  C
  C45      1.0000 0.37943  0.62493  0.77385  Biso   1.000  C
  H18      1.0000 0.39540  0.63980  0.75910  Biso   1.000  H
  C46      1.0000 0.34278  0.65361  0.78806  Biso   1.000  C
  C47      1.0000 0.32059  0.63392  0.80939  Biso   1.000  C
  H19      1.0000 0.29620  0.65430  0.81900  Biso   1.000  H
  C48      1.0000 0.36946  0.55569  0.80337  Biso   1.000  C
  H20      1.0000 0.37890  0.52150  0.80910  Biso   1.000  H
  N5       1.0000 0.33316  0.70752  0.78025  Biso   1.000  N
  C49      1.0000 0.31920  0.72374  0.75538  Biso   1.000  C
  H21      1.0000 0.31130  0.70150  0.74130  Biso   1.000  H
  C50      1.0000 0.36619  0.36609  0.71470  Biso   1.000  C
  H22      1.0000 0.38390  0.34620  0.72750  Biso   1.000  H
  C51      1.0000 0.32352  0.34585  0.70197  Biso   1.000  C
  C52      1.0000 0.29576  0.37353  0.68410  Biso   1.000  C
  H23      1.0000 0.26610  0.35830  0.67590  Biso   1.000  H
  N6       1.0000 0.30678  0.29165  0.70725  Biso   1.000  N
  C53      1.0000 0.25789  0.27653  0.71478  Biso   1.000  C
  H24      1.0000 0.22930  0.29890  0.71920  Biso   1.000  H
  C54      1.0000 0.30687  0.55963  0.83990  Biso   1.000  C
  O22      1.0000 0.26874  0.58389  0.84956  Biso   1.000  O
  O23      1.0000 0.32482  0.51615  0.84728  Biso   1.000  O
  O24      1.0000 0.24462  0.43412  0.64783  Biso   1.000  O
  Cu4      1.0000 0.77662  0.04832  0.12614  Biso   1.000  Cu
  O25      1.0000 0.79982  0.00121  0.15465  Biso   1.000  O
  O26      1.0000 0.94597  0.91988  0.24114  Biso   1.000  O
  O27      1.0000 0.94598  0.98319  0.21126  Biso   1.000  O
  O28      1.0000 0.94653  0.06292  0.24605  Biso   1.000  O
  O29      1.0000 0.94587  0.00126  0.27633  Biso   1.000  O
  C55      1.0000 0.78347  0.95582  0.15877  Biso   1.000  C
  C56      1.0000 0.83342  0.08490  0.31700  Biso   1.000  C
  C57      1.0000 0.81147  0.92407  0.17816  Biso   1.000  C
  C58      1.0000 0.85651  0.94380  0.18993  Biso   1.000  C
  H25      1.0000 0.86920  0.97740  0.18490  Biso   1.000  H
  C59      1.0000 0.88289  0.91699  0.20826  Biso   1.000  C
  C60      1.0000 0.92872  0.94148  0.22131  Biso   1.000  C
  C61      1.0000 0.93087  0.04419  0.26663  Biso   1.000  C
  C62      1.0000 0.89190  0.07559  0.28153  Biso   1.000  C
  C63      1.0000 0.87943  0.12493  0.27385  Biso   1.000  C
  H26      1.0000 0.89540  0.13980  0.25910  Biso   1.000  H
  C64      1.0000 0.84278  0.15361  0.28806  Biso   1.000  C
  C65      1.0000 0.82059  0.13392  0.30939  Biso   1.000  C
  H27      1.0000 0.79620  0.15430  0.31900  Biso   1.000  H
  C66      1.0000 0.86946  0.05569  0.30337  Biso   1.000  C
  H28      1.0000 0.87890  0.02150  0.30910  Biso   1.000  H
  N7       1.0000 0.83316  0.20752  0.28025  Biso   1.000  N
  C67      1.0000 0.81920  0.22374  0.25538  Biso   1.000  C
  H29      1.0000 0.81130  0.20150  0.24130  Biso   1.000  H
  C68      1.0000 0.86619  0.86609  0.21470  Biso   1.000  C
  H30      1.0000 0.88390  0.84620  0.22750  Biso   1.000  H
  C69      1.0000 0.82352  0.84585  0.20197  Biso   1.000  C
  C70      1.0000 0.79576  0.87353  0.18410  Biso   1.000  C
  H31      1.0000 0.76610  0.85830  0.17590  Biso   1.000  H
  N8       1.0000 0.80678  0.79165  0.20725  Biso   1.000  N
  C71      1.0000 0.75789  0.77653  0.21478  Biso   1.000  C
  H32      1.0000 0.72930  0.79890  0.21920  Biso   1.000  H
  C72      1.0000 0.80687  0.05963  0.33990  Biso   1.000  C
  O30      1.0000 0.76874  0.08389  0.34956  Biso   1.000  O
  O31      1.0000 0.82482  0.01615  0.34728  Biso   1.000  O
  O32      1.0000 0.74462  0.93412  0.14783  Biso   1.000  O
  Cu5      1.0000 0.79832  0.97338  0.37614  Biso   1.000  Cu
  O33      1.0000 0.75121  0.95018  0.40465  Biso   1.000  O
  O34      1.0000 0.66988  0.80403  0.49114  Biso   1.000  O
  O35      1.0000 0.73319  0.80402  0.46126  Biso   1.000  O
  O36      1.0000 0.81292  0.80347  0.49605  Biso   1.000  O
  O37      1.0000 0.75126  0.80413  0.52633  Biso   1.000  O
  C73      1.0000 0.70582  0.96653  0.40877  Biso   1.000  C
  C74      1.0000 0.83490  0.91658  0.56700  Biso   1.000  C
  C75      1.0000 0.67407  0.93853  0.42816  Biso   1.000  C
  C76      1.0000 0.69380  0.89349  0.43993  Biso   1.000  C
  H33      1.0000 0.72740  0.88080  0.43490  Biso   1.000  H
  C77      1.0000 0.66699  0.86711  0.45826  Biso   1.000  C
  C78      1.0000 0.69148  0.82128  0.47131  Biso   1.000  C
  C79      1.0000 0.79419  0.81913  0.51663  Biso   1.000  C
  C80      1.0000 0.82559  0.85810  0.53153  Biso   1.000  C
  C81      1.0000 0.87493  0.87057  0.52385  Biso   1.000  C
  H34      1.0000 0.88980  0.85460  0.50910  Biso   1.000  H
  C82      1.0000 0.90361  0.90722  0.53806  Biso   1.000  C
  C83      1.0000 0.88392  0.92941  0.55939  Biso   1.000  C
  H35      1.0000 0.90430  0.95380  0.56900  Biso   1.000  H
  C84      1.0000 0.80569  0.88054  0.55337  Biso   1.000  C
  H36      1.0000 0.77150  0.87110  0.55910  Biso   1.000  H
  N9       1.0000 0.95752  0.91684  0.53025  Biso   1.000  N
  C85      1.0000 0.97374  0.93080  0.50538  Biso   1.000  C
  H37      1.0000 0.95150  0.93870  0.49130  Biso   1.000  H
  C86      1.0000 0.61609  0.88381  0.46470  Biso   1.000  C
  H38      1.0000 0.59620  0.86610  0.47750  Biso   1.000  H
  C87      1.0000 0.59585  0.92648  0.45197  Biso   1.000  C
  C88      1.0000 0.62353  0.95424  0.43410  Biso   1.000  C
  H39      1.0000 0.60830  0.98390  0.42590  Biso   1.000  H
  N10      1.0000 0.54165  0.94322  0.45725  Biso   1.000  N
  C89      1.0000 0.52653  0.99211  0.46478  Biso   1.000  C
  H40      1.0000 0.54890  0.02070  0.46920  Biso   1.000  H
  C90      1.0000 0.80963  0.94313  0.58990  Biso   1.000  C
  O38      1.0000 0.83389  0.98126  0.59956  Biso   1.000  O
  O39      1.0000 0.76615  0.92518  0.59728  Biso   1.000  O
  O40      1.0000 0.68412  0.00538  0.39783  Biso   1.000  O
  Cu6      1.0000 0.29832  0.47338  0.87614  Biso   1.000  Cu
  O41      1.0000 0.25121  0.45018  0.90465  Biso   1.000  O
  O42      1.0000 0.16988  0.30403  0.99114  Biso   1.000  O
  O43      1.0000 0.23319  0.30402  0.96126  Biso   1.000  O
  O44      1.0000 0.31292  0.30347  0.99605  Biso   1.000  O
  O45      1.0000 0.25126  0.30413  0.02633  Biso   1.000  O
  C91      1.0000 0.20582  0.46653  0.90877  Biso   1.000  C
  C92      1.0000 0.33490  0.41658  0.06700  Biso   1.000  C
  C93      1.0000 0.17407  0.43853  0.92816  Biso   1.000  C
  C94      1.0000 0.19380  0.39349  0.93993  Biso   1.000  C
  H41      1.0000 0.22740  0.38080  0.93490  Biso   1.000  H
  C95      1.0000 0.16699  0.36711  0.95826  Biso   1.000  C
  C96      1.0000 0.19148  0.32128  0.97131  Biso   1.000  C
  C97      1.0000 0.29419  0.31913  0.01663  Biso   1.000  C
  C98      1.0000 0.32559  0.35810  0.03153  Biso   1.000  C
  C99      1.0000 0.37493  0.37057  0.02385  Biso   1.000  C
  H42      1.0000 0.38980  0.35460  0.00910  Biso   1.000  H
  C100     1.0000 0.40361  0.40722  0.03806  Biso   1.000  C
  C101     1.0000 0.38392  0.42941  0.05939  Biso   1.000  C
  H43      1.0000 0.40430  0.45380  0.06900  Biso   1.000  H
  C102     1.0000 0.30569  0.38054  0.05337  Biso   1.000  C
  H44      1.0000 0.27150  0.37110  0.05910  Biso   1.000  H
  N11      1.0000 0.45752  0.41684  0.03025  Biso   1.000  N
  C103     1.0000 0.47374  0.43080  0.00538  Biso   1.000  C
  H45      1.0000 0.45150  0.43870  0.99130  Biso   1.000  H
  C104     1.0000 0.11609  0.38381  0.96470  Biso   1.000  C
  H46      1.0000 0.09620  0.36610  0.97750  Biso   1.000  H
  C105     1.0000 0.09585  0.42648  0.95197  Biso   1.000  C
  C106     1.0000 0.12353  0.45424  0.93410  Biso   1.000  C
  H47      1.0000 0.10830  0.48390  0.92590  Biso   1.000  H
  N12      1.0000 0.04165  0.44322  0.95725  Biso   1.000  N
  C107     1.0000 0.02653  0.49211  0.96478  Biso   1.000  C
  H48      1.0000 0.04890  0.52070  0.96920  Biso   1.000  H
  C108     1.0000 0.30963  0.44313  0.08990  Biso   1.000  C
  O46      1.0000 0.33389  0.48126  0.09956  Biso   1.000  O
  O47      1.0000 0.26615  0.42518  0.09728  Biso   1.000  O
  O48      1.0000 0.18412  0.50538  0.89783  Biso   1.000  O
  Cu7      1.0000 0.70168  0.02662  0.87614  Biso   1.000  Cu
  O49      1.0000 0.74879  0.04982  0.90465  Biso   1.000  O
  O50      1.0000 0.83012  0.19597  0.99114  Biso   1.000  O
  O51      1.0000 0.76681  0.19598  0.96126  Biso   1.000  O
  O52      1.0000 0.68708  0.19653  0.99605  Biso   1.000  O
  O53      1.0000 0.74874  0.19587  0.02633  Biso   1.000  O
  C109     1.0000 0.79418  0.03347  0.90877  Biso   1.000  C
  C110     1.0000 0.66510  0.08342  0.06700  Biso   1.000  C
  C111     1.0000 0.82593  0.06147  0.92816  Biso   1.000  C
  C112     1.0000 0.80620  0.10651  0.93993  Biso   1.000  C
  H49      1.0000 0.77260  0.11920  0.93490  Biso   1.000  H
  C113     1.0000 0.83301  0.13289  0.95826  Biso   1.000  C
  C114     1.0000 0.80852  0.17872  0.97131  Biso   1.000  C
  C115     1.0000 0.70581  0.18087  0.01663  Biso   1.000  C
  C116     1.0000 0.67441  0.14190  0.03153  Biso   1.000  C
  C117     1.0000 0.62507  0.12943  0.02385  Biso   1.000  C
  H50      1.0000 0.61020  0.14540  0.00910  Biso   1.000  H
  C118     1.0000 0.59639  0.09278  0.03806  Biso   1.000  C
  C119     1.0000 0.61608  0.07059  0.05939  Biso   1.000  C
  H51      1.0000 0.59570  0.04620  0.06900  Biso   1.000  H
  C120     1.0000 0.69431  0.11946  0.05337  Biso   1.000  C
  H52      1.0000 0.72850  0.12890  0.05910  Biso   1.000  H
  N13      1.0000 0.54248  0.08316  0.03025  Biso   1.000  N
  C121     1.0000 0.52626  0.06920  0.00538  Biso   1.000  C
  H53      1.0000 0.54850  0.06130  0.99130  Biso   1.000  H
  C122     1.0000 0.88391  0.11619  0.96470  Biso   1.000  C
  H54      1.0000 0.90380  0.13390  0.97750  Biso   1.000  H
  C123     1.0000 0.90415  0.07352  0.95197  Biso   1.000  C
  C124     1.0000 0.87647  0.04576  0.93410  Biso   1.000  C
  H55      1.0000 0.89170  0.01610  0.92590  Biso   1.000  H
  N14      1.0000 0.95835  0.05678  0.95725  Biso   1.000  N
  C125     1.0000 0.97347  0.00789  0.96478  Biso   1.000  C
  H56      1.0000 0.95110  0.97930  0.96920  Biso   1.000  H
  C126     1.0000 0.69037  0.05687  0.08990  Biso   1.000  C
  O54      1.0000 0.66611  0.01874  0.09956  Biso   1.000  O
  O55      1.0000 0.73385  0.07482  0.09728  Biso   1.000  O
  O56      1.0000 0.81588  0.99462  0.89783  Biso   1.000  O
  Cu8      1.0000 0.20168  0.52662  0.37614  Biso   1.000  Cu
  O57      1.0000 0.24879  0.54982  0.40465  Biso   1.000  O
  O58      1.0000 0.33012  0.69597  0.49114  Biso   1.000  O
  O59      1.0000 0.26681  0.69598  0.46126  Biso   1.000  O
  O60      1.0000 0.18708  0.69653  0.49605  Biso   1.000  O
  O61      1.0000 0.24874  0.69587  0.52633  Biso   1.000  O
  C127     1.0000 0.29418  0.53347  0.40877  Biso   1.000  C
  C128     1.0000 0.16510  0.58342  0.56700  Biso   1.000  C
  C129     1.0000 0.32593  0.56147  0.42816  Biso   1.000  C
  C130     1.0000 0.30620  0.60651  0.43993  Biso   1.000  C
  H57      1.0000 0.27260  0.61920  0.43490  Biso   1.000  H
  C131     1.0000 0.33301  0.63289  0.45826  Biso   1.000  C
  C132     1.0000 0.30852  0.67872  0.47131  Biso   1.000  C
  C133     1.0000 0.20581  0.68087  0.51663  Biso   1.000  C
  C134     1.0000 0.17441  0.64190  0.53153  Biso   1.000  C
  C135     1.0000 0.12507  0.62943  0.52385  Biso   1.000  C
  H58      1.0000 0.11020  0.64540  0.50910  Biso   1.000  H
  C136     1.0000 0.09639  0.59278  0.53806  Biso   1.000  C
  C137     1.0000 0.11608  0.57059  0.55939  Biso   1.000  C
  H59      1.0000 0.09570  0.54620  0.56900  Biso   1.000  H
  C138     1.0000 0.19431  0.61946  0.55337  Biso   1.000  C
  H60      1.0000 0.22850  0.62890  0.55910  Biso   1.000  H
  N15      1.0000 0.04248  0.58316  0.53025  Biso   1.000  N
  C139     1.0000 0.02626  0.56920  0.50538  Biso   1.000  C
  H61      1.0000 0.04850  0.56130  0.49130  Biso   1.000  H
  C140     1.0000 0.38391  0.61619  0.46470  Biso   1.000  C
  H62      1.0000 0.40380  0.63390  0.47750  Biso   1.000  H
  C141     1.0000 0.40415  0.57352  0.45197  Biso   1.000  C
  C142     1.0000 0.37647  0.54576  0.43410  Biso   1.000  C
  H63      1.0000 0.39170  0.51610  0.42590  Biso   1.000  H
  N16      1.0000 0.45835  0.55678  0.45725  Biso   1.000  N
  C143     1.0000 0.47347  0.50789  0.46478  Biso   1.000  C
  H64      1.0000 0.45110  0.47930  0.46920  Biso   1.000  H
  C144     1.0000 0.19037  0.55687  0.58990  Biso   1.000  C
  O62      1.0000 0.16611  0.51874  0.59956  Biso   1.000  O
  O63      1.0000 0.23385  0.57482  0.59728  Biso   1.000  O
  O64      1.0000 0.31588  0.49462  0.39783  Biso   1.000  O
  Cu9      1.0000 0.27662  0.45168  0.37386  Biso   1.000  Cu
  O65      1.0000 0.29982  0.49879  0.34535  Biso   1.000  O
  O66      1.0000 0.44597  0.58012  0.25886  Biso   1.000  O
  O67      1.0000 0.44598  0.51681  0.28874  Biso   1.000  O
  O68      1.0000 0.44653  0.43708  0.25395  Biso   1.000  O
  O69      1.0000 0.44587  0.49874  0.22367  Biso   1.000  O
  C145     1.0000 0.28347  0.54418  0.34123  Biso   1.000  C
  C146     1.0000 0.33342  0.41510  0.18300  Biso   1.000  C
  C147     1.0000 0.31147  0.57593  0.32184  Biso   1.000  C
  C148     1.0000 0.35651  0.55620  0.31007  Biso   1.000  C
  H65      1.0000 0.36920  0.52260  0.31510  Biso   1.000  H
  C149     1.0000 0.38289  0.58301  0.29174  Biso   1.000  C
  C150     1.0000 0.42872  0.55852  0.27869  Biso   1.000  C
  C151     1.0000 0.43087  0.45581  0.23337  Biso   1.000  C
  C152     1.0000 0.39190  0.42441  0.21847  Biso   1.000  C
  C153     1.0000 0.37943  0.37507  0.22615  Biso   1.000  C
  H66      1.0000 0.39540  0.36020  0.24090  Biso   1.000  H
  C154     1.0000 0.34278  0.34639  0.21194  Biso   1.000  C
  C155     1.0000 0.32059  0.36608  0.19061  Biso   1.000  C
  H67      1.0000 0.29620  0.34570  0.18100  Biso   1.000  H
  C156     1.0000 0.36946  0.44431  0.19663  Biso   1.000  C
  H68      1.0000 0.37890  0.47850  0.19090  Biso   1.000  H
  N17      1.0000 0.33316  0.29248  0.21975  Biso   1.000  N
  C157     1.0000 0.31920  0.27626  0.24462  Biso   1.000  C
  H69      1.0000 0.31130  0.29850  0.25870  Biso   1.000  H
  C158     1.0000 0.36619  0.63391  0.28530  Biso   1.000  C
  H70      1.0000 0.38390  0.65380  0.27250  Biso   1.000  H
  C159     1.0000 0.32352  0.65415  0.29803  Biso   1.000  C
  C160     1.0000 0.29576  0.62647  0.31590  Biso   1.000  C
  H71      1.0000 0.26610  0.64170  0.32410  Biso   1.000  H
  N18      1.0000 0.30678  0.70835  0.29275  Biso   1.000  N
  C161     1.0000 0.25789  0.72347  0.28522  Biso   1.000  C
  H72      1.0000 0.22930  0.70110  0.28080  Biso   1.000  H
  C162     1.0000 0.30687  0.44037  0.16010  Biso   1.000  C
  O70      1.0000 0.26874  0.41611  0.15044  Biso   1.000  O
  O71      1.0000 0.32482  0.48385  0.15272  Biso   1.000  O
  O72      1.0000 0.24462  0.56588  0.35217  Biso   1.000  O
  Cu10     1.0000 0.77662  0.95168  0.87386  Biso   1.000  Cu
  O73      1.0000 0.79982  0.99879  0.84535  Biso   1.000  O
  O74      1.0000 0.94597  0.08012  0.75886  Biso   1.000  O
  O75      1.0000 0.94598  0.01681  0.78874  Biso   1.000  O
  O76      1.0000 0.94653  0.93708  0.75395  Biso   1.000  O
  O77      1.0000 0.94587  0.99874  0.72367  Biso   1.000  O
  C163     1.0000 0.78347  0.04418  0.84123  Biso   1.000  C
  C164     1.0000 0.83342  0.91510  0.68300  Biso   1.000  C
  C165     1.0000 0.81147  0.07593  0.82184  Biso   1.000  C
  C166     1.0000 0.85651  0.05620  0.81007  Biso   1.000  C
  H73      1.0000 0.86920  0.02260  0.81510  Biso   1.000  H
  C167     1.0000 0.88289  0.08301  0.79174  Biso   1.000  C
  C168     1.0000 0.92872  0.05852  0.77869  Biso   1.000  C
  C169     1.0000 0.93087  0.95581  0.73337  Biso   1.000  C
  C170     1.0000 0.89190  0.92441  0.71847  Biso   1.000  C
  C171     1.0000 0.87943  0.87507  0.72615  Biso   1.000  C
  H74      1.0000 0.89540  0.86020  0.74090  Biso   1.000  H
  C172     1.0000 0.84278  0.84639  0.71194  Biso   1.000  C
  C173     1.0000 0.82059  0.86608  0.69061  Biso   1.000  C
  H75      1.0000 0.79620  0.84570  0.68100  Biso   1.000  H
  C174     1.0000 0.86946  0.94431  0.69663  Biso   1.000  C
  H76      1.0000 0.87890  0.97850  0.69090  Biso   1.000  H
  N19      1.0000 0.83316  0.79248  0.71975  Biso   1.000  N
  C175     1.0000 0.81920  0.77626  0.74462  Biso   1.000  C
  H77      1.0000 0.81130  0.79850  0.75870  Biso   1.000  H
  C176     1.0000 0.86619  0.13391  0.78530  Biso   1.000  C
  H78      1.0000 0.88390  0.15380  0.77250  Biso   1.000  H
  C177     1.0000 0.82352  0.15415  0.79803  Biso   1.000  C
  C178     1.0000 0.79576  0.12647  0.81590  Biso   1.000  C
  H79      1.0000 0.76610  0.14170  0.82410  Biso   1.000  H
  N20      1.0000 0.80678  0.20835  0.79275  Biso   1.000  N
  C179     1.0000 0.75789  0.22347  0.78522  Biso   1.000  C
  H80      1.0000 0.72930  0.20110  0.78080  Biso   1.000  H
  C180     1.0000 0.80687  0.94037  0.66010  Biso   1.000  C
  O78      1.0000 0.76874  0.91611  0.65044  Biso   1.000  O
  O79      1.0000 0.82482  0.98385  0.65272  Biso   1.000  O
  O80      1.0000 0.74462  0.06588  0.85217  Biso   1.000  O
  Cu11     1.0000 0.22338  0.54832  0.87386  Biso   1.000  Cu
  O81      1.0000 0.20018  0.50121  0.84535  Biso   1.000  O
  O82      1.0000 0.05403  0.41988  0.75886  Biso   1.000  O
  O83      1.0000 0.05402  0.48319  0.78874  Biso   1.000  O
  O84      1.0000 0.05347  0.56292  0.75395  Biso   1.000  O
  O85      1.0000 0.05413  0.50126  0.72367  Biso   1.000  O
  C181     1.0000 0.21653  0.45582  0.84123  Biso   1.000  C
  C182     1.0000 0.16658  0.58490  0.68300  Biso   1.000  C
  C183     1.0000 0.18853  0.42407  0.82184  Biso   1.000  C
  C184     1.0000 0.14349  0.44380  0.81007  Biso   1.000  C
  H81      1.0000 0.13080  0.47740  0.81510  Biso   1.000  H
  C185     1.0000 0.11711  0.41699  0.79174  Biso   1.000  C
  C186     1.0000 0.07128  0.44148  0.77869  Biso   1.000  C
  C187     1.0000 0.06913  0.54419  0.73337  Biso   1.000  C
  C188     1.0000 0.10810  0.57559  0.71847  Biso   1.000  C
  C189     1.0000 0.12057  0.62493  0.72615  Biso   1.000  C
  H82      1.0000 0.10460  0.63980  0.74090  Biso   1.000  H
  C190     1.0000 0.15722  0.65361  0.71194  Biso   1.000  C
  C191     1.0000 0.17941  0.63392  0.69061  Biso   1.000  C
  H83      1.0000 0.20380  0.65430  0.68100  Biso   1.000  H
  C192     1.0000 0.13054  0.55569  0.69663  Biso   1.000  C
  H84      1.0000 0.12110  0.52150  0.69090  Biso   1.000  H
  N21      1.0000 0.16684  0.70752  0.71975  Biso   1.000  N
  C193     1.0000 0.18080  0.72374  0.74462  Biso   1.000  C
  H85      1.0000 0.18870  0.70150  0.75870  Biso   1.000  H
  C194     1.0000 0.13381  0.36609  0.78530  Biso   1.000  C
  H86      1.0000 0.11610  0.34620  0.77250  Biso   1.000  H
  C195     1.0000 0.17648  0.34585  0.79803  Biso   1.000  C
  C196     1.0000 0.20424  0.37353  0.81590  Biso   1.000  C
  H87      1.0000 0.23390  0.35830  0.82410  Biso   1.000  H
  N22      1.0000 0.19322  0.29165  0.79275  Biso   1.000  N
  C197     1.0000 0.24211  0.27653  0.78522  Biso   1.000  C
  H88      1.0000 0.27070  0.29890  0.78080  Biso   1.000  H
  C198     1.0000 0.19313  0.55963  0.66010  Biso   1.000  C
  O86      1.0000 0.23126  0.58389  0.65044  Biso   1.000  O
  O87      1.0000 0.17518  0.51615  0.65272  Biso   1.000  O
  O88      1.0000 0.25538  0.43412  0.85217  Biso   1.000  O
  Cu12     1.0000 0.72338  0.04832  0.37386  Biso   1.000  Cu
  O89      1.0000 0.70018  0.00121  0.34535  Biso   1.000  O
  O90      1.0000 0.55403  0.91988  0.25886  Biso   1.000  O
  O91      1.0000 0.55402  0.98319  0.28874  Biso   1.000  O
  O92      1.0000 0.55347  0.06292  0.25395  Biso   1.000  O
  O93      1.0000 0.55413  0.00126  0.22367  Biso   1.000  O
  C199     1.0000 0.71653  0.95582  0.34123  Biso   1.000  C
  C200     1.0000 0.66658  0.08490  0.18300  Biso   1.000  C
  C201     1.0000 0.68853  0.92407  0.32184  Biso   1.000  C
  C202     1.0000 0.64349  0.94380  0.31007  Biso   1.000  C
  H89      1.0000 0.63080  0.97740  0.31510  Biso   1.000  H
  C203     1.0000 0.61711  0.91699  0.29174  Biso   1.000  C
  C204     1.0000 0.57128  0.94148  0.27869  Biso   1.000  C
  C205     1.0000 0.56913  0.04419  0.23337  Biso   1.000  C
  C206     1.0000 0.60810  0.07559  0.21847  Biso   1.000  C
  C207     1.0000 0.62057  0.12493  0.22615  Biso   1.000  C
  H90      1.0000 0.60460  0.13980  0.24090  Biso   1.000  H
  C208     1.0000 0.65722  0.15361  0.21194  Biso   1.000  C
  C209     1.0000 0.67941  0.13392  0.19061  Biso   1.000  C
  H91      1.0000 0.70380  0.15430  0.18100  Biso   1.000  H
  C210     1.0000 0.63054  0.05569  0.19663  Biso   1.000  C
  H92      1.0000 0.62110  0.02150  0.19090  Biso   1.000  H
  N23      1.0000 0.66684  0.20752  0.21975  Biso   1.000  N
  C211     1.0000 0.68080  0.22374  0.24462  Biso   1.000  C
  H93      1.0000 0.68870  0.20150  0.25870  Biso   1.000  H
  C212     1.0000 0.63381  0.86609  0.28530  Biso   1.000  C
  H94      1.0000 0.61610  0.84620  0.27250  Biso   1.000  H
  C213     1.0000 0.67648  0.84585  0.29803  Biso   1.000  C
  C214     1.0000 0.70424  0.87353  0.31590  Biso   1.000  C
  H95      1.0000 0.73390  0.85830  0.32410  Biso   1.000  H
  N24      1.0000 0.69322  0.79165  0.29275  Biso   1.000  N
  C215     1.0000 0.74211  0.77653  0.28522  Biso   1.000  C
  H96      1.0000 0.77070  0.79890  0.28080  Biso   1.000  H
  C216     1.0000 0.69313  0.05963  0.16010  Biso   1.000  C
  O94      1.0000 0.73126  0.08389  0.15044  Biso   1.000  O
  O95      1.0000 0.67518  0.01615  0.15272  Biso   1.000  O
  O96      1.0000 0.75538  0.93412  0.35217  Biso   1.000  O
  Cu13     1.0000 0.70168  0.97338  0.12386  Biso   1.000  Cu
  O97      1.0000 0.74879  0.95018  0.09535  Biso   1.000  O
  O98      1.0000 0.83012  0.80403  0.00886  Biso   1.000  O
  O99      1.0000 0.76681  0.80402  0.03874  Biso   1.000  O
  O100     1.0000 0.68708  0.80347  0.00395  Biso   1.000  O
  O101     1.0000 0.74874  0.80413  0.97367  Biso   1.000  O
  C217     1.0000 0.79418  0.96653  0.09123  Biso   1.000  C
  C218     1.0000 0.66510  0.91658  0.93300  Biso   1.000  C
  C219     1.0000 0.82593  0.93853  0.07184  Biso   1.000  C
  C220     1.0000 0.80620  0.89349  0.06007  Biso   1.000  C
  H97      1.0000 0.77260  0.88080  0.06510  Biso   1.000  H
  C221     1.0000 0.83301  0.86711  0.04174  Biso   1.000  C
  C222     1.0000 0.80852  0.82128  0.02869  Biso   1.000  C
  C223     1.0000 0.70581  0.81913  0.98337  Biso   1.000  C
  C224     1.0000 0.67441  0.85810  0.96847  Biso   1.000  C
  C225     1.0000 0.62507  0.87057  0.97615  Biso   1.000  C
  H98      1.0000 0.61020  0.85460  0.99090  Biso   1.000  H
  C226     1.0000 0.59639  0.90722  0.96194  Biso   1.000  C
  C227     1.0000 0.61608  0.92941  0.94061  Biso   1.000  C
  H99      1.0000 0.59570  0.95380  0.93100  Biso   1.000  H
  C228     1.0000 0.69431  0.88054  0.94663  Biso   1.000  C
  H100     1.0000 0.72850  0.87110  0.94090  Biso   1.000  H
  N25      1.0000 0.54248  0.91684  0.96975  Biso   1.000  N
  C229     1.0000 0.52626  0.93080  0.99462  Biso   1.000  C
  H101     1.0000 0.54850  0.93870  0.00870  Biso   1.000  H
  C230     1.0000 0.88391  0.88381  0.03530  Biso   1.000  C
  H102     1.0000 0.90380  0.86610  0.02250  Biso   1.000  H
  C231     1.0000 0.90415  0.92648  0.04803  Biso   1.000  C
  C232     1.0000 0.87647  0.95424  0.06590  Biso   1.000  C
  H103     1.0000 0.89170  0.98390  0.07410  Biso   1.000  H
  N26      1.0000 0.95835  0.94322  0.04275  Biso   1.000  N
  C233     1.0000 0.97347  0.99211  0.03522  Biso   1.000  C
  H104     1.0000 0.95110  0.02070  0.03080  Biso   1.000  H
  C234     1.0000 0.69037  0.94313  0.91010  Biso   1.000  C
  O102     1.0000 0.66611  0.98126  0.90044  Biso   1.000  O
  O103     1.0000 0.73385  0.92518  0.90272  Biso   1.000  O
  O104     1.0000 0.81588  0.00538  0.10217  Biso   1.000  O
  Cu14     1.0000 0.20168  0.47338  0.62386  Biso   1.000  Cu
  O105     1.0000 0.24879  0.45018  0.59535  Biso   1.000  O
  O106     1.0000 0.33012  0.30403  0.50886  Biso   1.000  O
  O107     1.0000 0.26681  0.30402  0.53874  Biso   1.000  O
  O108     1.0000 0.18708  0.30347  0.50395  Biso   1.000  O
  O109     1.0000 0.24874  0.30413  0.47367  Biso   1.000  O
  C235     1.0000 0.29418  0.46653  0.59123  Biso   1.000  C
  C236     1.0000 0.16510  0.41658  0.43300  Biso   1.000  C
  C237     1.0000 0.32593  0.43853  0.57184  Biso   1.000  C
  C238     1.0000 0.30620  0.39349  0.56007  Biso   1.000  C
  H105     1.0000 0.27260  0.38080  0.56510  Biso   1.000  H
  C239     1.0000 0.33301  0.36711  0.54174  Biso   1.000  C
  C240     1.0000 0.30852  0.32128  0.52869  Biso   1.000  C
  C241     1.0000 0.20581  0.31913  0.48337  Biso   1.000  C
  C242     1.0000 0.17441  0.35810  0.46847  Biso   1.000  C
  C243     1.0000 0.12507  0.37057  0.47615  Biso   1.000  C
  H106     1.0000 0.11020  0.35460  0.49090  Biso   1.000  H
  C244     1.0000 0.09639  0.40722  0.46194  Biso   1.000  C
  C245     1.0000 0.11608  0.42941  0.44061  Biso   1.000  C
  H107     1.0000 0.09570  0.45380  0.43100  Biso   1.000  H
  C246     1.0000 0.19431  0.38054  0.44663  Biso   1.000  C
  H108     1.0000 0.22850  0.37110  0.44090  Biso   1.000  H
  N27      1.0000 0.04248  0.41684  0.46975  Biso   1.000  N
  C247     1.0000 0.02626  0.43080  0.49462  Biso   1.000  C
  H109     1.0000 0.04850  0.43870  0.50870  Biso   1.000  H
  C248     1.0000 0.38391  0.38381  0.53530  Biso   1.000  C
  H110     1.0000 0.40380  0.36610  0.52250  Biso   1.000  H
  C249     1.0000 0.40415  0.42648  0.54803  Biso   1.000  C
  C250     1.0000 0.37647  0.45424  0.56590  Biso   1.000  C
  H111     1.0000 0.39170  0.48390  0.57410  Biso   1.000  H
  N28      1.0000 0.45835  0.44322  0.54275  Biso   1.000  N
  C251     1.0000 0.47347  0.49211  0.53522  Biso   1.000  C
  H112     1.0000 0.45110  0.52070  0.53080  Biso   1.000  H
  C252     1.0000 0.19037  0.44313  0.41010  Biso   1.000  C
  O110     1.0000 0.16611  0.48126  0.40044  Biso   1.000  O
  O111     1.0000 0.23385  0.42518  0.40272  Biso   1.000  O
  O112     1.0000 0.31588  0.50538  0.60217  Biso   1.000  O
  Cu15     1.0000 0.79832  0.02662  0.62386  Biso   1.000  Cu
  O113     1.0000 0.75121  0.04982  0.59535  Biso   1.000  O
  O114     1.0000 0.66988  0.19597  0.50886  Biso   1.000  O
  O115     1.0000 0.73319  0.19598  0.53874  Biso   1.000  O
  O116     1.0000 0.81292  0.19653  0.50395  Biso   1.000  O
  O117     1.0000 0.75126  0.19587  0.47367  Biso   1.000  O
  C253     1.0000 0.70582  0.03347  0.59123  Biso   1.000  C
  C254     1.0000 0.83490  0.08342  0.43300  Biso   1.000  C
  C255     1.0000 0.67407  0.06147  0.57184  Biso   1.000  C
  C256     1.0000 0.69380  0.10651  0.56007  Biso   1.000  C
  H113     1.0000 0.72740  0.11920  0.56510  Biso   1.000  H
  C257     1.0000 0.66699  0.13289  0.54174  Biso   1.000  C
  C258     1.0000 0.69148  0.17872  0.52869  Biso   1.000  C
  C259     1.0000 0.79419  0.18087  0.48337  Biso   1.000  C
  C260     1.0000 0.82559  0.14190  0.46847  Biso   1.000  C
  C261     1.0000 0.87493  0.12943  0.47615  Biso   1.000  C
  H114     1.0000 0.88980  0.14540  0.49090  Biso   1.000  H
  C262     1.0000 0.90361  0.09278  0.46194  Biso   1.000  C
  C263     1.0000 0.88392  0.07059  0.44061  Biso   1.000  C
  H115     1.0000 0.90430  0.04620  0.43100  Biso   1.000  H
  C264     1.0000 0.80569  0.11946  0.44663  Biso   1.000  C
  H116     1.0000 0.77150  0.12890  0.44090  Biso   1.000  H
  N29      1.0000 0.95752  0.08316  0.46975  Biso   1.000  N
  C265     1.0000 0.97374  0.06920  0.49462  Biso   1.000  C
  H117     1.0000 0.95150  0.06130  0.50870  Biso   1.000  H
  C266     1.0000 0.61609  0.11619  0.53530  Biso   1.000  C
  H118     1.0000 0.59620  0.13390  0.52250  Biso   1.000  H
  C267     1.0000 0.59585  0.07352  0.54803  Biso   1.000  C
  C268     1.0000 0.62353  0.04576  0.56590  Biso   1.000  C
  H119     1.0000 0.60830  0.01610  0.57410  Biso   1.000  H
  N30      1.0000 0.54165  0.05678  0.54275  Biso   1.000  N
  C269     1.0000 0.52653  0.00789  0.53522  Biso   1.000  C
  H120     1.0000 0.54890  0.97930  0.53080  Biso   1.000  H
  C270     1.0000 0.80963  0.05687  0.41010  Biso   1.000  C
  O118     1.0000 0.83389  0.01874  0.40044  Biso   1.000  O
  O119     1.0000 0.76615  0.07482  0.40272  Biso   1.000  O
  O120     1.0000 0.68412  0.99462  0.60217  Biso   1.000  O
  Cu16     1.0000 0.29832  0.52662  0.12386  Biso   1.000  Cu
  O121     1.0000 0.25121  0.54982  0.09535  Biso   1.000  O
  O122     1.0000 0.16988  0.69597  0.00886  Biso   1.000  O
  O123     1.0000 0.23319  0.69598  0.03874  Biso   1.000  O
  O124     1.0000 0.31292  0.69653  0.00395  Biso   1.000  O
  O125     1.0000 0.25126  0.69587  0.97367  Biso   1.000  O
  C271     1.0000 0.20582  0.53347  0.09123  Biso   1.000  C
  C272     1.0000 0.33490  0.58342  0.93300  Biso   1.000  C
  C273     1.0000 0.17407  0.56147  0.07184  Biso   1.000  C
  C274     1.0000 0.19380  0.60651  0.06007  Biso   1.000  C
  H121     1.0000 0.22740  0.61920  0.06510  Biso   1.000  H
  C275     1.0000 0.16699  0.63289  0.04174  Biso   1.000  C
  C276     1.0000 0.19148  0.67872  0.02869  Biso   1.000  C
  C277     1.0000 0.29419  0.68087  0.98337  Biso   1.000  C
  C278     1.0000 0.32559  0.64190  0.96847  Biso   1.000  C
  C279     1.0000 0.37493  0.62943  0.97615  Biso   1.000  C
  H122     1.0000 0.38980  0.64540  0.99090  Biso   1.000  H
  C280     1.0000 0.40361  0.59278  0.96194  Biso   1.000  C
  C281     1.0000 0.38392  0.57059  0.94061  Biso   1.000  C
  H123     1.0000 0.40430  0.54620  0.93100  Biso   1.000  H
  C282     1.0000 0.30569  0.61946  0.94663  Biso   1.000  C
  H124     1.0000 0.27150  0.62890  0.94090  Biso   1.000  H
  N31      1.0000 0.45752  0.58316  0.96975  Biso   1.000  N
  C283     1.0000 0.47374  0.56920  0.99462  Biso   1.000  C
  H125     1.0000 0.45150  0.56130  0.00870  Biso   1.000  H
  C284     1.0000 0.11609  0.61619  0.03530  Biso   1.000  C
  H126     1.0000 0.09620  0.63390  0.02250  Biso   1.000  H
  C285     1.0000 0.09585  0.57352  0.04803  Biso   1.000  C
  C286     1.0000 0.12353  0.54576  0.06590  Biso   1.000  C
  H127     1.0000 0.10830  0.51610  0.07410  Biso   1.000  H
  N32      1.0000 0.04165  0.55678  0.04275  Biso   1.000  N
  C287     1.0000 0.02653  0.50789  0.03522  Biso   1.000  C
  H128     1.0000 0.04890  0.47930  0.03080  Biso   1.000  H
  C288     1.0000 0.30963  0.55687  0.91010  Biso   1.000  C
  O126     1.0000 0.33389  0.51874  0.90044  Biso   1.000  O
  O127     1.0000 0.26615  0.57482  0.90272  Biso   1.000  O
  O128     1.0000 0.18412  0.49462  0.10217  Biso   1.000  O
  Cu17     1.0000 0.77662  0.54832  0.87386  Biso   1.000  Cu
  O129     1.0000 0.79982  0.50121  0.84535  Biso   1.000  O
  O130     1.0000 0.94597  0.41988  0.75886  Biso   1.000  O
  O131     1.0000 0.94598  0.48319  0.78874  Biso   1.000  O
  O132     1.0000 0.94653  0.56292  0.75395  Biso   1.000  O
  O133     1.0000 0.94587  0.50126  0.72367  Biso   1.000  O
  C289     1.0000 0.78347  0.45582  0.84123  Biso   1.000  C
  C290     1.0000 0.83342  0.58490  0.68300  Biso   1.000  C
  C291     1.0000 0.81147  0.42407  0.82184  Biso   1.000  C
  C292     1.0000 0.85651  0.44380  0.81007  Biso   1.000  C
  H129     1.0000 0.86920  0.47740  0.81510  Biso   1.000  H
  C293     1.0000 0.88289  0.41699  0.79174  Biso   1.000  C
  C294     1.0000 0.92872  0.44148  0.77869  Biso   1.000  C
  C295     1.0000 0.93087  0.54419  0.73337  Biso   1.000  C
  C296     1.0000 0.89190  0.57559  0.71847  Biso   1.000  C
  C297     1.0000 0.87943  0.62493  0.72615  Biso   1.000  C
  H130     1.0000 0.89540  0.63980  0.74090  Biso   1.000  H
  C298     1.0000 0.84278  0.65361  0.71194  Biso   1.000  C
  C299     1.0000 0.82059  0.63392  0.69061  Biso   1.000  C
  H131     1.0000 0.79620  0.65430  0.68100  Biso   1.000  H
  C300     1.0000 0.86946  0.55569  0.69663  Biso   1.000  C
  H132     1.0000 0.87890  0.52150  0.69090  Biso   1.000  H
  N33      1.0000 0.83316  0.70752  0.71975  Biso   1.000  N
  C301     1.0000 0.81920  0.72374  0.74462  Biso   1.000  C
  H133     1.0000 0.81130  0.70150  0.75870  Biso   1.000  H
  C302     1.0000 0.86619  0.36609  0.78530  Biso   1.000  C
  H134     1.0000 0.88390  0.34620  0.77250  Biso   1.000  H
  C303     1.0000 0.82352  0.34585  0.79803  Biso   1.000  C
  C304     1.0000 0.79576  0.37353  0.81590  Biso   1.000  C
  H135     1.0000 0.76610  0.35830  0.82410  Biso   1.000  H
  N34      1.0000 0.80678  0.29165  0.79275  Biso   1.000  N
  C305     1.0000 0.75789  0.27653  0.78522  Biso   1.000  C
  H136     1.0000 0.72930  0.29890  0.78080  Biso   1.000  H
  C306     1.0000 0.80687  0.55963  0.66010  Biso   1.000  C
  O134     1.0000 0.76874  0.58389  0.65044  Biso   1.000  O
  O135     1.0000 0.82482  0.51615  0.65272  Biso   1.000  O
  O136     1.0000 0.74462  0.43412  0.85217  Biso   1.000  O
  Cu18     1.0000 0.27662  0.04832  0.37386  Biso   1.000  Cu
  O137     1.0000 0.29982  0.00121  0.34535  Biso   1.000  O
  O138     1.0000 0.44597  0.91988  0.25886  Biso   1.000  O
  O139     1.0000 0.44598  0.98319  0.28874  Biso   1.000  O
  O140     1.0000 0.44653  0.06292  0.25395  Biso   1.000  O
  O141     1.0000 0.44587  0.00126  0.22367  Biso   1.000  O
  C307     1.0000 0.28347  0.95582  0.34123  Biso   1.000  C
  C308     1.0000 0.33342  0.08490  0.18300  Biso   1.000  C
  C309     1.0000 0.31147  0.92407  0.32184  Biso   1.000  C
  C310     1.0000 0.35651  0.94380  0.31007  Biso   1.000  C
  H137     1.0000 0.36920  0.97740  0.31510  Biso   1.000  H
  C311     1.0000 0.38289  0.91699  0.29174  Biso   1.000  C
  C312     1.0000 0.42872  0.94148  0.27869  Biso   1.000  C
  C313     1.0000 0.43087  0.04419  0.23337  Biso   1.000  C
  C314     1.0000 0.39190  0.07559  0.21847  Biso   1.000  C
  C315     1.0000 0.37943  0.12493  0.22615  Biso   1.000  C
  H138     1.0000 0.39540  0.13980  0.24090  Biso   1.000  H
  C316     1.0000 0.34278  0.15361  0.21194  Biso   1.000  C
  C317     1.0000 0.32059  0.13392  0.19061  Biso   1.000  C
  H139     1.0000 0.29620  0.15430  0.18100  Biso   1.000  H
  C318     1.0000 0.36946  0.05569  0.19663  Biso   1.000  C
  H140     1.0000 0.37890  0.02150  0.19090  Biso   1.000  H
  N35      1.0000 0.33316  0.20752  0.21975  Biso   1.000  N
  C319     1.0000 0.31920  0.22374  0.24462  Biso   1.000  C
  H141     1.0000 0.31130  0.20150  0.25870  Biso   1.000  H
  C320     1.0000 0.36619  0.86609  0.28530  Biso   1.000  C
  H142     1.0000 0.38390  0.84620  0.27250  Biso   1.000  H
  C321     1.0000 0.32352  0.84585  0.29803  Biso   1.000  C
  C322     1.0000 0.29576  0.87353  0.31590  Biso   1.000  C
  H143     1.0000 0.26610  0.85830  0.32410  Biso   1.000  H
  N36      1.0000 0.30678  0.79165  0.29275  Biso   1.000  N
  C323     1.0000 0.25789  0.77653  0.28522  Biso   1.000  C
  H144     1.0000 0.22930  0.79890  0.28080  Biso   1.000  H
  C324     1.0000 0.30687  0.05963  0.16010  Biso   1.000  C
  O142     1.0000 0.26874  0.08389  0.15044  Biso   1.000  O
  O143     1.0000 0.32482  0.01615  0.15272  Biso   1.000  O
  O144     1.0000 0.24462  0.93412  0.35217  Biso   1.000  O
  Cu19     1.0000 0.72338  0.45168  0.37386  Biso   1.000  Cu
  O145     1.0000 0.70018  0.49879  0.34535  Biso   1.000  O
  O146     1.0000 0.55403  0.58012  0.25886  Biso   1.000  O
  O147     1.0000 0.55402  0.51681  0.28874  Biso   1.000  O
  O148     1.0000 0.55347  0.43708  0.25395  Biso   1.000  O
  O149     1.0000 0.55413  0.49874  0.22367  Biso   1.000  O
  C325     1.0000 0.71653  0.54418  0.34123  Biso   1.000  C
  C326     1.0000 0.66658  0.41510  0.18300  Biso   1.000  C
  C327     1.0000 0.68853  0.57593  0.32184  Biso   1.000  C
  C328     1.0000 0.64349  0.55620  0.31007  Biso   1.000  C
  H145     1.0000 0.63080  0.52260  0.31510  Biso   1.000  H
  C329     1.0000 0.61711  0.58301  0.29174  Biso   1.000  C
  C330     1.0000 0.57128  0.55852  0.27869  Biso   1.000  C
  C331     1.0000 0.56913  0.45581  0.23337  Biso   1.000  C
  C332     1.0000 0.60810  0.42441  0.21847  Biso   1.000  C
  C333     1.0000 0.62057  0.37507  0.22615  Biso   1.000  C
  H146     1.0000 0.60460  0.36020  0.24090  Biso   1.000  H
  C334     1.0000 0.65722  0.34639  0.21194  Biso   1.000  C
  C335     1.0000 0.67941  0.36608  0.19061  Biso   1.000  C
  H147     1.0000 0.70380  0.34570  0.18100  Biso   1.000  H
  C336     1.0000 0.63054  0.44431  0.19663  Biso   1.000  C
  H148     1.0000 0.62110  0.47850  0.19090  Biso   1.000  H
  N37      1.0000 0.66684  0.29248  0.21975  Biso   1.000  N
  C337     1.0000 0.68080  0.27626  0.24462  Biso   1.000  C
  H149     1.0000 0.68870  0.29850  0.25870  Biso   1.000  H
  C338     1.0000 0.63381  0.63391  0.28530  Biso   1.000  C
  H150     1.0000 0.61610  0.65380  0.27250  Biso   1.000  H
  C339     1.0000 0.67648  0.65415  0.29803  Biso   1.000  C
  C340     1.0000 0.70424  0.62647  0.31590  Biso   1.000  C
  H151     1.0000 0.73390  0.64170  0.32410  Biso   1.000  H
  N38      1.0000 0.69322  0.70835  0.29275  Biso   1.000  N
  C341     1.0000 0.74211  0.72347  0.28522  Biso   1.000  C
  H152     1.0000 0.77070  0.70110  0.28080  Biso   1.000  H
  C342     1.0000 0.69313  0.44037  0.16010  Biso   1.000  C
  O150     1.0000 0.73126  0.41611  0.15044  Biso   1.000  O
  O151     1.0000 0.67518  0.48385  0.15272  Biso   1.000  O
  O152     1.0000 0.75538  0.56588  0.35217  Biso   1.000  O
  Cu20     1.0000 0.22338  0.95168  0.87386  Biso   1.000  Cu
  O153     1.0000 0.20018  0.99879  0.84535  Biso   1.000  O
  O154     1.0000 0.05403  0.08012  0.75886  Biso   1.000  O
  O155     1.0000 0.05402  0.01681  0.78874  Biso   1.000  O
  O156     1.0000 0.05347  0.93708  0.75395  Biso   1.000  O
  O157     1.0000 0.05413  0.99874  0.72367  Biso   1.000  O
  C343     1.0000 0.21653  0.04418  0.84123  Biso   1.000  C
  C344     1.0000 0.16658  0.91510  0.68300  Biso   1.000  C
  C345     1.0000 0.18853  0.07593  0.82184  Biso   1.000  C
  C346     1.0000 0.14349  0.05620  0.81007  Biso   1.000  C
  H153     1.0000 0.13080  0.02260  0.81510  Biso   1.000  H
  C347     1.0000 0.11711  0.08301  0.79174  Biso   1.000  C
  C348     1.0000 0.07128  0.05852  0.77869  Biso   1.000  C
  C349     1.0000 0.06913  0.95581  0.73337  Biso   1.000  C
  C350     1.0000 0.10810  0.92441  0.71847  Biso   1.000  C
  C351     1.0000 0.12057  0.87507  0.72615  Biso   1.000  C
  H154     1.0000 0.10460  0.86020  0.74090  Biso   1.000  H
  C352     1.0000 0.15722  0.84639  0.71194  Biso   1.000  C
  C353     1.0000 0.17941  0.86608  0.69061  Biso   1.000  C
  H155     1.0000 0.20380  0.84570  0.68100  Biso   1.000  H
  C354     1.0000 0.13054  0.94431  0.69663  Biso   1.000  C
  H156     1.0000 0.12110  0.97850  0.69090  Biso   1.000  H
  N39      1.0000 0.16684  0.79248  0.71975  Biso   1.000  N
  C355     1.0000 0.18080  0.77626  0.74462  Biso   1.000  C
  H157     1.0000 0.18870  0.79850  0.75870  Biso   1.000  H
  C356     1.0000 0.13381  0.13391  0.78530  Biso   1.000  C
  H158     1.0000 0.11610  0.15380  0.77250  Biso   1.000  H
  C357     1.0000 0.17648  0.15415  0.79803  Biso   1.000  C
  C358     1.0000 0.20424  0.12647  0.81590  Biso   1.000  C
  H159     1.0000 0.23390  0.14170  0.82410  Biso   1.000  H
  N40      1.0000 0.19322  0.20835  0.79275  Biso   1.000  N
  C359     1.0000 0.24211  0.22347  0.78522  Biso   1.000  C
  H160     1.0000 0.27070  0.20110  0.78080  Biso   1.000  H
  C360     1.0000 0.19313  0.94037  0.66010  Biso   1.000  C
  O158     1.0000 0.23126  0.91611  0.65044  Biso   1.000  O
  O159     1.0000 0.17518  0.98385  0.65272  Biso   1.000  O
  O160     1.0000 0.25538  0.06588  0.85217  Biso   1.000  O
  Cu21     1.0000 0.20168  0.02662  0.62386  Biso   1.000  Cu
  O161     1.0000 0.24879  0.04982  0.59535  Biso   1.000  O
  O162     1.0000 0.33012  0.19597  0.50886  Biso   1.000  O
  O163     1.0000 0.26681  0.19598  0.53874  Biso   1.000  O
  O164     1.0000 0.18708  0.19653  0.50395  Biso   1.000  O
  O165     1.0000 0.24874  0.19587  0.47367  Biso   1.000  O
  C361     1.0000 0.29418  0.03347  0.59123  Biso   1.000  C
  C362     1.0000 0.16510  0.08342  0.43300  Biso   1.000  C
  C363     1.0000 0.32593  0.06147  0.57184  Biso   1.000  C
  C364     1.0000 0.30620  0.10651  0.56007  Biso   1.000  C
  H161     1.0000 0.27260  0.11920  0.56510  Biso   1.000  H
  C365     1.0000 0.33301  0.13289  0.54174  Biso   1.000  C
  C366     1.0000 0.30852  0.17872  0.52869  Biso   1.000  C
  C367     1.0000 0.20581  0.18087  0.48337  Biso   1.000  C
  C368     1.0000 0.17441  0.14190  0.46847  Biso   1.000  C
  C369     1.0000 0.12507  0.12943  0.47615  Biso   1.000  C
  H162     1.0000 0.11020  0.14540  0.49090  Biso   1.000  H
  C370     1.0000 0.09639  0.09278  0.46194  Biso   1.000  C
  C371     1.0000 0.11608  0.07059  0.44061  Biso   1.000  C
  H163     1.0000 0.09570  0.04620  0.43100  Biso   1.000  H
  C372     1.0000 0.19431  0.11946  0.44663  Biso   1.000  C
  H164     1.0000 0.22850  0.12890  0.44090  Biso   1.000  H
  N41      1.0000 0.04248  0.08316  0.46975  Biso   1.000  N
  C373     1.0000 0.02626  0.06920  0.49462  Biso   1.000  C
  H165     1.0000 0.04850  0.06130  0.50870  Biso   1.000  H
  C374     1.0000 0.38391  0.11619  0.53530  Biso   1.000  C
  H166     1.0000 0.40380  0.13390  0.52250  Biso   1.000  H
  C375     1.0000 0.40415  0.07352  0.54803  Biso   1.000  C
  C376     1.0000 0.37647  0.04576  0.56590  Biso   1.000  C
  H167     1.0000 0.39170  0.01610  0.57410  Biso   1.000  H
  N42      1.0000 0.45835  0.05678  0.54275  Biso   1.000  N
  C377     1.0000 0.47347  0.00789  0.53522  Biso   1.000  C
  H168     1.0000 0.45110  0.97930  0.53080  Biso   1.000  H
  C378     1.0000 0.19037  0.05687  0.41010  Biso   1.000  C
  O166     1.0000 0.16611  0.01874  0.40044  Biso   1.000  O
  O167     1.0000 0.23385  0.07482  0.40272  Biso   1.000  O
  O168     1.0000 0.31588  0.99462  0.60217  Biso   1.000  O
  Cu22     1.0000 0.70168  0.52662  0.12386  Biso   1.000  Cu
  O169     1.0000 0.74879  0.54982  0.09535  Biso   1.000  O
  O170     1.0000 0.83012  0.69597  0.00886  Biso   1.000  O
  O171     1.0000 0.76681  0.69598  0.03874  Biso   1.000  O
  O172     1.0000 0.68708  0.69653  0.00395  Biso   1.000  O
  O173     1.0000 0.74874  0.69587  0.97367  Biso   1.000  O
  C379     1.0000 0.79418  0.53347  0.09123  Biso   1.000  C
  C380     1.0000 0.66510  0.58342  0.93300  Biso   1.000  C
  C381     1.0000 0.82593  0.56147  0.07184  Biso   1.000  C
  C382     1.0000 0.80620  0.60651  0.06007  Biso   1.000  C
  H169     1.0000 0.77260  0.61920  0.06510  Biso   1.000  H
  C383     1.0000 0.83301  0.63289  0.04174  Biso   1.000  C
  C384     1.0000 0.80852  0.67872  0.02869  Biso   1.000  C
  C385     1.0000 0.70581  0.68087  0.98337  Biso   1.000  C
  C386     1.0000 0.67441  0.64190  0.96847  Biso   1.000  C
  C387     1.0000 0.62507  0.62943  0.97615  Biso   1.000  C
  H170     1.0000 0.61020  0.64540  0.99090  Biso   1.000  H
  C388     1.0000 0.59639  0.59278  0.96194  Biso   1.000  C
  C389     1.0000 0.61608  0.57059  0.94061  Biso   1.000  C
  H171     1.0000 0.59570  0.54620  0.93100  Biso   1.000  H
  C390     1.0000 0.69431  0.61946  0.94663  Biso   1.000  C
  H172     1.0000 0.72850  0.62890  0.94090  Biso   1.000  H
  N43      1.0000 0.54248  0.58316  0.96975  Biso   1.000  N
  C391     1.0000 0.52626  0.56920  0.99462  Biso   1.000  C
  H173     1.0000 0.54850  0.56130  0.00870  Biso   1.000  H
  C392     1.0000 0.88391  0.61619  0.03530  Biso   1.000  C
  H174     1.0000 0.90380  0.63390  0.02250  Biso   1.000  H
  C393     1.0000 0.90415  0.57352  0.04803  Biso   1.000  C
  C394     1.0000 0.87647  0.54576  0.06590  Biso   1.000  C
  H175     1.0000 0.89170  0.51610  0.07410  Biso   1.000  H
  N44      1.0000 0.95835  0.55678  0.04275  Biso   1.000  N
  C395     1.0000 0.97347  0.50789  0.03522  Biso   1.000  C
  H176     1.0000 0.95110  0.47930  0.03080  Biso   1.000  H
  C396     1.0000 0.69037  0.55687  0.91010  Biso   1.000  C
  O174     1.0000 0.66611  0.51874  0.90044  Biso   1.000  O
  O175     1.0000 0.73385  0.57482  0.90272  Biso   1.000  O
  O176     1.0000 0.81588  0.49462  0.10217  Biso   1.000  O
  Cu23     1.0000 0.29832  0.97338  0.12386  Biso   1.000  Cu
  O177     1.0000 0.25121  0.95018  0.09535  Biso   1.000  O
  O178     1.0000 0.16988  0.80403  0.00886  Biso   1.000  O
  O179     1.0000 0.23319  0.80402  0.03874  Biso   1.000  O
  O180     1.0000 0.31292  0.80347  0.00395  Biso   1.000  O
  O181     1.0000 0.25126  0.80413  0.97367  Biso   1.000  O
  C397     1.0000 0.20582  0.96653  0.09123  Biso   1.000  C
  C398     1.0000 0.33490  0.91658  0.93300  Biso   1.000  C
  C399     1.0000 0.17407  0.93853  0.07184  Biso   1.000  C
  C400     1.0000 0.19380  0.89349  0.06007  Biso   1.000  C
  H177     1.0000 0.22740  0.88080  0.06510  Biso   1.000  H
  C401     1.0000 0.16699  0.86711  0.04174  Biso   1.000  C
  C402     1.0000 0.19148  0.82128  0.02869  Biso   1.000  C
  C403     1.0000 0.29419  0.81913  0.98337  Biso   1.000  C
  C404     1.0000 0.32559  0.85810  0.96847  Biso   1.000  C
  C405     1.0000 0.37493  0.87057  0.97615  Biso   1.000  C
  H178     1.0000 0.38980  0.85460  0.99090  Biso   1.000  H
  C406     1.0000 0.40361  0.90722  0.96194  Biso   1.000  C
  C407     1.0000 0.38392  0.92941  0.94061  Biso   1.000  C
  H179     1.0000 0.40430  0.95380  0.93100  Biso   1.000  H
  C408     1.0000 0.30569  0.88054  0.94663  Biso   1.000  C
  H180     1.0000 0.27150  0.87110  0.94090  Biso   1.000  H
  N45      1.0000 0.45752  0.91684  0.96975  Biso   1.000  N
  C409     1.0000 0.47374  0.93080  0.99462  Biso   1.000  C
  H181     1.0000 0.45150  0.93870  0.00870  Biso   1.000  H
  C410     1.0000 0.11609  0.88381  0.03530  Biso   1.000  C
  H182     1.0000 0.09620  0.86610  0.02250  Biso   1.000  H
  C411     1.0000 0.09585  0.92648  0.04803  Biso   1.000  C
  C412     1.0000 0.12353  0.95424  0.06590  Biso   1.000  C
  H183     1.0000 0.10830  0.98390  0.07410  Biso   1.000  H
  N46      1.0000 0.04165  0.94322  0.04275  Biso   1.000  N
  C413     1.0000 0.02653  0.99211  0.03522  Biso   1.000  C
  H184     1.0000 0.04890  0.02070  0.03080  Biso   1.000  H
  C414     1.0000 0.30963  0.94313  0.91010  Biso   1.000  C
  O182     1.0000 0.33389  0.98126  0.90044  Biso   1.000  O
  O183     1.0000 0.26615  0.92518  0.90272  Biso   1.000  O
  O184     1.0000 0.18412  0.00538  0.10217  Biso   1.000  O
  Cu24     1.0000 0.79832  0.47338  0.62386  Biso   1.000  Cu
  O185     1.0000 0.75121  0.45018  0.59535  Biso   1.000  O
  O186     1.0000 0.66988  0.30403  0.50886  Biso   1.000  O
  O187     1.0000 0.73319  0.30402  0.53874  Biso   1.000  O
  O188     1.0000 0.81292  0.30347  0.50395  Biso   1.000  O
  O189     1.0000 0.75126  0.30413  0.47367  Biso   1.000  O
  C415     1.0000 0.70582  0.46653  0.59123  Biso   1.000  C
  C416     1.0000 0.83490  0.41658  0.43300  Biso   1.000  C
  C417     1.0000 0.67407  0.43853  0.57184  Biso   1.000  C
  C418     1.0000 0.69380  0.39349  0.56007  Biso   1.000  C
  H185     1.0000 0.72740  0.38080  0.56510  Biso   1.000  H
  C419     1.0000 0.66699  0.36711  0.54174  Biso   1.000  C
  C420     1.0000 0.69148  0.32128  0.52869  Biso   1.000  C
  C421     1.0000 0.79419  0.31913  0.48337  Biso   1.000  C
  C422     1.0000 0.82559  0.35810  0.46847  Biso   1.000  C
  C423     1.0000 0.87493  0.37057  0.47615  Biso   1.000  C
  H186     1.0000 0.88980  0.35460  0.49090  Biso   1.000  H
  C424     1.0000 0.90361  0.40722  0.46194  Biso   1.000  C
  C425     1.0000 0.88392  0.42941  0.44061  Biso   1.000  C
  H187     1.0000 0.90430  0.45380  0.43100  Biso   1.000  H
  C426     1.0000 0.80569  0.38054  0.44663  Biso   1.000  C
  H188     1.0000 0.77150  0.37110  0.44090  Biso   1.000  H
  N47      1.0000 0.95752  0.41684  0.46975  Biso   1.000  N
  C427     1.0000 0.97374  0.43080  0.49462  Biso   1.000  C
  H189     1.0000 0.95150  0.43870  0.50870  Biso   1.000  H
  C428     1.0000 0.61609  0.38381  0.53530  Biso   1.000  C
  H190     1.0000 0.59620  0.36610  0.52250  Biso   1.000  H
  C429     1.0000 0.59585  0.42648  0.54803  Biso   1.000  C
  C430     1.0000 0.62353  0.45424  0.56590  Biso   1.000  C
  H191     1.0000 0.60830  0.48390  0.57410  Biso   1.000  H
  N48      1.0000 0.54165  0.44322  0.54275  Biso   1.000  N
  C431     1.0000 0.52653  0.49211  0.53522  Biso   1.000  C
  H192     1.0000 0.54890  0.52070  0.53080  Biso   1.000  H
  C432     1.0000 0.80963  0.44313  0.41010  Biso   1.000  C
  O190     1.0000 0.83389  0.48126  0.40044  Biso   1.000  O
  O191     1.0000 0.76615  0.42518  0.40272  Biso   1.000  O
  O192     1.0000 0.68412  0.50538  0.60217  Biso   1.000  O
  Cu25     1.0000 0.72338  0.54832  0.62614  Biso   1.000  Cu
  O193     1.0000 0.70018  0.50121  0.65465  Biso   1.000  O
  O194     1.0000 0.55403  0.41988  0.74114  Biso   1.000  O
  O195     1.0000 0.55402  0.48319  0.71126  Biso   1.000  O
  O196     1.0000 0.55347  0.56292  0.74605  Biso   1.000  O
  O197     1.0000 0.55413  0.50126  0.77633  Biso   1.000  O
  C433     1.0000 0.71653  0.45582  0.65877  Biso   1.000  C
  C434     1.0000 0.66658  0.58490  0.81700  Biso   1.000  C
  C435     1.0000 0.68853  0.42407  0.67816  Biso   1.000  C
  C436     1.0000 0.64349  0.44380  0.68993  Biso   1.000  C
  H193     1.0000 0.63080  0.47740  0.68490  Biso   1.000  H
  C437     1.0000 0.61711  0.41699  0.70826  Biso   1.000  C
  C438     1.0000 0.57128  0.44148  0.72131  Biso   1.000  C
  C439     1.0000 0.56913  0.54419  0.76663  Biso   1.000  C
  C440     1.0000 0.60810  0.57559  0.78153  Biso   1.000  C
  C441     1.0000 0.62057  0.62493  0.77385  Biso   1.000  C
  H194     1.0000 0.60460  0.63980  0.75910  Biso   1.000  H
  C442     1.0000 0.65722  0.65361  0.78806  Biso   1.000  C
  C443     1.0000 0.67941  0.63392  0.80939  Biso   1.000  C
  H195     1.0000 0.70380  0.65430  0.81900  Biso   1.000  H
  C444     1.0000 0.63054  0.55569  0.80337  Biso   1.000  C
  H196     1.0000 0.62110  0.52150  0.80910  Biso   1.000  H
  N49      1.0000 0.66684  0.70752  0.78025  Biso   1.000  N
  C445     1.0000 0.68080  0.72374  0.75538  Biso   1.000  C
  H197     1.0000 0.68870  0.70150  0.74130  Biso   1.000  H
  C446     1.0000 0.63381  0.36609  0.71470  Biso   1.000  C
  H198     1.0000 0.61610  0.34620  0.72750  Biso   1.000  H
  C447     1.0000 0.67648  0.34585  0.70197  Biso   1.000  C
  C448     1.0000 0.70424  0.37353  0.68410  Biso   1.000  C
  H199     1.0000 0.73390  0.35830  0.67590  Biso   1.000  H
  N50      1.0000 0.69322  0.29165  0.70725  Biso   1.000  N
  C449     1.0000 0.74211  0.27653  0.71478  Biso   1.000  C
  H200     1.0000 0.77070  0.29890  0.71920  Biso   1.000  H
  C450     1.0000 0.69313  0.55963  0.83990  Biso   1.000  C
  O198     1.0000 0.73126  0.58389  0.84956  Biso   1.000  O
  O199     1.0000 0.67518  0.51615  0.84728  Biso   1.000  O
  O200     1.0000 0.75538  0.43412  0.64783  Biso   1.000  O
  Cu26     1.0000 0.22338  0.04832  0.12614  Biso   1.000  Cu
  O201     1.0000 0.20018  0.00121  0.15465  Biso   1.000  O
  O202     1.0000 0.05403  0.91988  0.24114  Biso   1.000  O
  O203     1.0000 0.05402  0.98319  0.21126  Biso   1.000  O
  O204     1.0000 0.05347  0.06292  0.24605  Biso   1.000  O
  O205     1.0000 0.05413  0.00126  0.27633  Biso   1.000  O
  C451     1.0000 0.21653  0.95582  0.15877  Biso   1.000  C
  C452     1.0000 0.16658  0.08490  0.31700  Biso   1.000  C
  C453     1.0000 0.18853  0.92407  0.17816  Biso   1.000  C
  C454     1.0000 0.14349  0.94380  0.18993  Biso   1.000  C
  H201     1.0000 0.13080  0.97740  0.18490  Biso   1.000  H
  C455     1.0000 0.11711  0.91699  0.20826  Biso   1.000  C
  C456     1.0000 0.07128  0.94148  0.22131  Biso   1.000  C
  C457     1.0000 0.06913  0.04419  0.26663  Biso   1.000  C
  C458     1.0000 0.10810  0.07559  0.28153  Biso   1.000  C
  C459     1.0000 0.12057  0.12493  0.27385  Biso   1.000  C
  H202     1.0000 0.10460  0.13980  0.25910  Biso   1.000  H
  C460     1.0000 0.15722  0.15361  0.28806  Biso   1.000  C
  C461     1.0000 0.17941  0.13392  0.30939  Biso   1.000  C
  H203     1.0000 0.20380  0.15430  0.31900  Biso   1.000  H
  C462     1.0000 0.13054  0.05569  0.30337  Biso   1.000  C
  H204     1.0000 0.12110  0.02150  0.30910  Biso   1.000  H
  N51      1.0000 0.16684  0.20752  0.28025  Biso   1.000  N
  C463     1.0000 0.18080  0.22374  0.25538  Biso   1.000  C
  H205     1.0000 0.18870  0.20150  0.24130  Biso   1.000  H
  C464     1.0000 0.13381  0.86609  0.21470  Biso   1.000  C
  H206     1.0000 0.11610  0.84620  0.22750  Biso   1.000  H
  C465     1.0000 0.17648  0.84585  0.20197  Biso   1.000  C
  C466     1.0000 0.20424  0.87353  0.18410  Biso   1.000  C
  H207     1.0000 0.23390  0.85830  0.17590  Biso   1.000  H
  N52      1.0000 0.19322  0.79165  0.20725  Biso   1.000  N
  C467     1.0000 0.24211  0.77653  0.21478  Biso   1.000  C
  H208     1.0000 0.27070  0.79890  0.21920  Biso   1.000  H
  C468     1.0000 0.19313  0.05963  0.33990  Biso   1.000  C
  O206     1.0000 0.23126  0.08389  0.34956  Biso   1.000  O
  O207     1.0000 0.17518  0.01615  0.34728  Biso   1.000  O
  O208     1.0000 0.25538  0.93412  0.14783  Biso   1.000  O
  Cu27     1.0000 0.77662  0.45168  0.12614  Biso   1.000  Cu
  O209     1.0000 0.79982  0.49879  0.15465  Biso   1.000  O
  O210     1.0000 0.94597  0.58012  0.24114  Biso   1.000  O
  O211     1.0000 0.94598  0.51681  0.21126  Biso   1.000  O
  O212     1.0000 0.94653  0.43708  0.24605  Biso   1.000  O
  O213     1.0000 0.94587  0.49874  0.27633  Biso   1.000  O
  C469     1.0000 0.78347  0.54418  0.15877  Biso   1.000  C
  C470     1.0000 0.83342  0.41510  0.31700  Biso   1.000  C
  C471     1.0000 0.81147  0.57593  0.17816  Biso   1.000  C
  C472     1.0000 0.85651  0.55620  0.18993  Biso   1.000  C
  H209     1.0000 0.86920  0.52260  0.18490  Biso   1.000  H
  C473     1.0000 0.88289  0.58301  0.20826  Biso   1.000  C
  C474     1.0000 0.92872  0.55852  0.22131  Biso   1.000  C
  C475     1.0000 0.93087  0.45581  0.26663  Biso   1.000  C
  C476     1.0000 0.89190  0.42441  0.28153  Biso   1.000  C
  C477     1.0000 0.87943  0.37507  0.27385  Biso   1.000  C
  H210     1.0000 0.89540  0.36020  0.25910  Biso   1.000  H
  C478     1.0000 0.84278  0.34639  0.28806  Biso   1.000  C
  C479     1.0000 0.82059  0.36608  0.30939  Biso   1.000  C
  H211     1.0000 0.79620  0.34570  0.31900  Biso   1.000  H
  C480     1.0000 0.86946  0.44431  0.30337  Biso   1.000  C
  H212     1.0000 0.87890  0.47850  0.30910  Biso   1.000  H
  N53      1.0000 0.83316  0.29248  0.28025  Biso   1.000  N
  C481     1.0000 0.81920  0.27626  0.25538  Biso   1.000  C
  H213     1.0000 0.81130  0.29850  0.24130  Biso   1.000  H
  C482     1.0000 0.86619  0.63391  0.21470  Biso   1.000  C
  H214     1.0000 0.88390  0.65380  0.22750  Biso   1.000  H
  C483     1.0000 0.82352  0.65415  0.20197  Biso   1.000  C
  C484     1.0000 0.79576  0.62647  0.18410  Biso   1.000  C
  H215     1.0000 0.76610  0.64170  0.17590  Biso   1.000  H
  N54      1.0000 0.80678  0.70835  0.20725  Biso   1.000  N
  C485     1.0000 0.75789  0.72347  0.21478  Biso   1.000  C
  H216     1.0000 0.72930  0.70110  0.21920  Biso   1.000  H
  C486     1.0000 0.80687  0.44037  0.33990  Biso   1.000  C
  O214     1.0000 0.76874  0.41611  0.34956  Biso   1.000  O
  O215     1.0000 0.82482  0.48385  0.34728  Biso   1.000  O
  O216     1.0000 0.74462  0.56588  0.14783  Biso   1.000  O
  Cu28     1.0000 0.27662  0.95168  0.62614  Biso   1.000  Cu
  O217     1.0000 0.29982  0.99879  0.65465  Biso   1.000  O
  O218     1.0000 0.44597  0.08012  0.74114  Biso   1.000  O
  O219     1.0000 0.44598  0.01681  0.71126  Biso   1.000  O
  O220     1.0000 0.44653  0.93708  0.74605  Biso   1.000  O
  O221     1.0000 0.44587  0.99874  0.77633  Biso   1.000  O
  C487     1.0000 0.28347  0.04418  0.65877  Biso   1.000  C
  C488     1.0000 0.33342  0.91510  0.81700  Biso   1.000  C
  C489     1.0000 0.31147  0.07593  0.67816  Biso   1.000  C
  C490     1.0000 0.35651  0.05620  0.68993  Biso   1.000  C
  H217     1.0000 0.36920  0.02260  0.68490  Biso   1.000  H
  C491     1.0000 0.38289  0.08301  0.70826  Biso   1.000  C
  C492     1.0000 0.42872  0.05852  0.72131  Biso   1.000  C
  C493     1.0000 0.43087  0.95581  0.76663  Biso   1.000  C
  C494     1.0000 0.39190  0.92441  0.78153  Biso   1.000  C
  C495     1.0000 0.37943  0.87507  0.77385  Biso   1.000  C
  H218     1.0000 0.39540  0.86020  0.75910  Biso   1.000  H
  C496     1.0000 0.34278  0.84639  0.78806  Biso   1.000  C
  C497     1.0000 0.32059  0.86608  0.80939  Biso   1.000  C
  H219     1.0000 0.29620  0.84570  0.81900  Biso   1.000  H
  C498     1.0000 0.36946  0.94431  0.80337  Biso   1.000  C
  H220     1.0000 0.37890  0.97850  0.80910  Biso   1.000  H
  N55      1.0000 0.33316  0.79248  0.78025  Biso   1.000  N
  C499     1.0000 0.31920  0.77626  0.75538  Biso   1.000  C
  H221     1.0000 0.31130  0.79850  0.74130  Biso   1.000  H
  C500     1.0000 0.36619  0.13391  0.71470  Biso   1.000  C
  H222     1.0000 0.38390  0.15380  0.72750  Biso   1.000  H
  C501     1.0000 0.32352  0.15415  0.70197  Biso   1.000  C
  C502     1.0000 0.29576  0.12647  0.68410  Biso   1.000  C
  H223     1.0000 0.26610  0.14170  0.67590  Biso   1.000  H
  N56      1.0000 0.30678  0.20835  0.70725  Biso   1.000  N
  C503     1.0000 0.25789  0.22347  0.71478  Biso   1.000  C
  H224     1.0000 0.22930  0.20110  0.71920  Biso   1.000  H
  C504     1.0000 0.30687  0.94037  0.83990  Biso   1.000  C
  O222     1.0000 0.26874  0.91611  0.84956  Biso   1.000  O
  O223     1.0000 0.32482  0.98385  0.84728  Biso   1.000  O
  O224     1.0000 0.24462  0.06588  0.64783  Biso   1.000  O
  Cu29     1.0000 0.29832  0.02662  0.87614  Biso   1.000  Cu
  O225     1.0000 0.25121  0.04982  0.90465  Biso   1.000  O
  O226     1.0000 0.16988  0.19597  0.99114  Biso   1.000  O
  O227     1.0000 0.23319  0.19598  0.96126  Biso   1.000  O
  O228     1.0000 0.31292  0.19653  0.99605  Biso   1.000  O
  O229     1.0000 0.25126  0.19587  0.02633  Biso   1.000  O
  C505     1.0000 0.20582  0.03347  0.90877  Biso   1.000  C
  C506     1.0000 0.33490  0.08342  0.06700  Biso   1.000  C
  C507     1.0000 0.17407  0.06147  0.92816  Biso   1.000  C
  C508     1.0000 0.19380  0.10651  0.93993  Biso   1.000  C
  H225     1.0000 0.22740  0.11920  0.93490  Biso   1.000  H
  C509     1.0000 0.16699  0.13289  0.95826  Biso   1.000  C
  C510     1.0000 0.19148  0.17872  0.97131  Biso   1.000  C
  C511     1.0000 0.29419  0.18087  0.01663  Biso   1.000  C
  C512     1.0000 0.32559  0.14190  0.03153  Biso   1.000  C
  C513     1.0000 0.37493  0.12943  0.02385  Biso   1.000  C
  H226     1.0000 0.38980  0.14540  0.00910  Biso   1.000  H
  C514     1.0000 0.40361  0.09278  0.03806  Biso   1.000  C
  C515     1.0000 0.38392  0.07059  0.05939  Biso   1.000  C
  H227     1.0000 0.40430  0.04620  0.06900  Biso   1.000  H
  C516     1.0000 0.30569  0.11946  0.05337  Biso   1.000  C
  H228     1.0000 0.27150  0.12890  0.05910  Biso   1.000  H
  N57      1.0000 0.45752  0.08316  0.03025  Biso   1.000  N
  C517     1.0000 0.47374  0.06920  0.00538  Biso   1.000  C
  H229     1.0000 0.45150  0.06130  0.99130  Biso   1.000  H
  C518     1.0000 0.11609  0.11619  0.96470  Biso   1.000  C
  H230     1.0000 0.09620  0.13390  0.97750  Biso   1.000  H
  C519     1.0000 0.09585  0.07352  0.95197  Biso   1.000  C
  C520     1.0000 0.12353  0.04576  0.93410  Biso   1.000  C
  H231     1.0000 0.10830  0.01610  0.92590  Biso   1.000  H
  N58      1.0000 0.04165  0.05678  0.95725  Biso   1.000  N
  C521     1.0000 0.02653  0.00789  0.96478  Biso   1.000  C
  H232     1.0000 0.04890  0.97930  0.96920  Biso   1.000  H
  C522     1.0000 0.30963  0.05687  0.08990  Biso   1.000  C
  O230     1.0000 0.33389  0.01874  0.09956  Biso   1.000  O
  O231     1.0000 0.26615  0.07482  0.09728  Biso   1.000  O
  O232     1.0000 0.18412  0.99462  0.89783  Biso   1.000  O
  Cu30     1.0000 0.79832  0.52662  0.37614  Biso   1.000  Cu
  O233     1.0000 0.75121  0.54982  0.40465  Biso   1.000  O
  O234     1.0000 0.66988  0.69597  0.49114  Biso   1.000  O
  O235     1.0000 0.73319  0.69598  0.46126  Biso   1.000  O
  O236     1.0000 0.81292  0.69653  0.49605  Biso   1.000  O
  O237     1.0000 0.75126  0.69587  0.52633  Biso   1.000  O
  C523     1.0000 0.70582  0.53347  0.40877  Biso   1.000  C
  C524     1.0000 0.83490  0.58342  0.56700  Biso   1.000  C
  C525     1.0000 0.67407  0.56147  0.42816  Biso   1.000  C
  C526     1.0000 0.69380  0.60651  0.43993  Biso   1.000  C
  H233     1.0000 0.72740  0.61920  0.43490  Biso   1.000  H
  C527     1.0000 0.66699  0.63289  0.45826  Biso   1.000  C
  C528     1.0000 0.69148  0.67872  0.47131  Biso   1.000  C
  C529     1.0000 0.79419  0.68087  0.51663  Biso   1.000  C
  C530     1.0000 0.82559  0.64190  0.53153  Biso   1.000  C
  C531     1.0000 0.87493  0.62943  0.52385  Biso   1.000  C
  H234     1.0000 0.88980  0.64540  0.50910  Biso   1.000  H
  C532     1.0000 0.90361  0.59278  0.53806  Biso   1.000  C
  C533     1.0000 0.88392  0.57059  0.55939  Biso   1.000  C
  H235     1.0000 0.90430  0.54620  0.56900  Biso   1.000  H
  C534     1.0000 0.80569  0.61946  0.55337  Biso   1.000  C
  H236     1.0000 0.77150  0.62890  0.55910  Biso   1.000  H
  N59      1.0000 0.95752  0.58316  0.53025  Biso   1.000  N
  C535     1.0000 0.97374  0.56920  0.50538  Biso   1.000  C
  H237     1.0000 0.95150  0.56130  0.49130  Biso   1.000  H
  C536     1.0000 0.61609  0.61619  0.46470  Biso   1.000  C
  H238     1.0000 0.59620  0.63390  0.47750  Biso   1.000  H
  C537     1.0000 0.59585  0.57352  0.45197  Biso   1.000  C
  C538     1.0000 0.62353  0.54576  0.43410  Biso   1.000  C
  H239     1.0000 0.60830  0.51610  0.42590  Biso   1.000  H
  N60      1.0000 0.54165  0.55678  0.45725  Biso   1.000  N
  C539     1.0000 0.52653  0.50789  0.46478  Biso   1.000  C
  H240     1.0000 0.54890  0.47930  0.46920  Biso   1.000  H
  C540     1.0000 0.80963  0.55687  0.58990  Biso   1.000  C
  O238     1.0000 0.83389  0.51874  0.59956  Biso   1.000  O
  O239     1.0000 0.76615  0.57482  0.59728  Biso   1.000  O
  O240     1.0000 0.68412  0.49462  0.39783  Biso   1.000  O
  Cu31     1.0000 0.20168  0.97338  0.37614  Biso   1.000  Cu
  O241     1.0000 0.24879  0.95018  0.40465  Biso   1.000  O
  O242     1.0000 0.33012  0.80403  0.49114  Biso   1.000  O
  O243     1.0000 0.26681  0.80402  0.46126  Biso   1.000  O
  O244     1.0000 0.18708  0.80347  0.49605  Biso   1.000  O
  O245     1.0000 0.24874  0.80413  0.52633  Biso   1.000  O
  C541     1.0000 0.29418  0.96653  0.40877  Biso   1.000  C
  C542     1.0000 0.16510  0.91658  0.56700  Biso   1.000  C
  C543     1.0000 0.32593  0.93853  0.42816  Biso   1.000  C
  C544     1.0000 0.30620  0.89349  0.43993  Biso   1.000  C
  H241     1.0000 0.27260  0.88080  0.43490  Biso   1.000  H
  C545     1.0000 0.33301  0.86711  0.45826  Biso   1.000  C
  C546     1.0000 0.30852  0.82128  0.47131  Biso   1.000  C
  C547     1.0000 0.20581  0.81913  0.51663  Biso   1.000  C
  C548     1.0000 0.17441  0.85810  0.53153  Biso   1.000  C
  C549     1.0000 0.12507  0.87057  0.52385  Biso   1.000  C
  H242     1.0000 0.11020  0.85460  0.50910  Biso   1.000  H
  C550     1.0000 0.09639  0.90722  0.53806  Biso   1.000  C
  C551     1.0000 0.11608  0.92941  0.55939  Biso   1.000  C
  H243     1.0000 0.09570  0.95380  0.56900  Biso   1.000  H
  C552     1.0000 0.19431  0.88054  0.55337  Biso   1.000  C
  H244     1.0000 0.22850  0.87110  0.55910  Biso   1.000  H
  N61      1.0000 0.04248  0.91684  0.53025  Biso   1.000  N
  C553     1.0000 0.02626  0.93080  0.50538  Biso   1.000  C
  H245     1.0000 0.04850  0.93870  0.49130  Biso   1.000  H
  C554     1.0000 0.38391  0.88381  0.46470  Biso   1.000  C
  H246     1.0000 0.40380  0.86610  0.47750  Biso   1.000  H
  C555     1.0000 0.40415  0.92648  0.45197  Biso   1.000  C
  C556     1.0000 0.37647  0.95424  0.43410  Biso   1.000  C
  H247     1.0000 0.39170  0.98390  0.42590  Biso   1.000  H
  N62      1.0000 0.45835  0.94322  0.45725  Biso   1.000  N
  C557     1.0000 0.47347  0.99211  0.46478  Biso   1.000  C
  H248     1.0000 0.45110  0.02070  0.46920  Biso   1.000  H
  C558     1.0000 0.19037  0.94313  0.58990  Biso   1.000  C
  O246     1.0000 0.16611  0.98126  0.59956  Biso   1.000  O
  O247     1.0000 0.23385  0.92518  0.59728  Biso   1.000  O
  O248     1.0000 0.31588  0.00538  0.39783  Biso   1.000  O
  Cu32     1.0000 0.70168  0.47338  0.87614  Biso   1.000  Cu
  O249     1.0000 0.74879  0.45018  0.90465  Biso   1.000  O
  O250     1.0000 0.83012  0.30403  0.99114  Biso   1.000  O
  O251     1.0000 0.76681  0.30402  0.96126  Biso   1.000  O
  O252     1.0000 0.68708  0.30347  0.99605  Biso   1.000  O
  O253     1.0000 0.74874  0.30413  0.02633  Biso   1.000  O
  C559     1.0000 0.79418  0.46653  0.90877  Biso   1.000  C
  C560     1.0000 0.66510  0.41658  0.06700  Biso   1.000  C
  C561     1.0000 0.82593  0.43853  0.92816  Biso   1.000  C
  C562     1.0000 0.80620  0.39349  0.93993  Biso   1.000  C
  H249     1.0000 0.77260  0.38080  0.93490  Biso   1.000  H
  C563     1.0000 0.83301  0.36711  0.95826  Biso   1.000  C
  C564     1.0000 0.80852  0.32128  0.97131  Biso   1.000  C
  C565     1.0000 0.70581  0.31913  0.01663  Biso   1.000  C
  C566     1.0000 0.67441  0.35810  0.03153  Biso   1.000  C
  C567     1.0000 0.62507  0.37057  0.02385  Biso   1.000  C
  H250     1.0000 0.61020  0.35460  0.00910  Biso   1.000  H
  C568     1.0000 0.59639  0.40722  0.03806  Biso   1.000  C
  C569     1.0000 0.61608  0.42941  0.05939  Biso   1.000  C
  H251     1.0000 0.59570  0.45380  0.06900  Biso   1.000  H
  C570     1.0000 0.69431  0.38054  0.05337  Biso   1.000  C
  H252     1.0000 0.72850  0.37110  0.05910  Biso   1.000  H
  N63      1.0000 0.54248  0.41684  0.03025  Biso   1.000  N
  C571     1.0000 0.52626  0.43080  0.00538  Biso   1.000  C
  H253     1.0000 0.54850  0.43870  0.99130  Biso   1.000  H
  C572     1.0000 0.88391  0.38381  0.96470  Biso   1.000  C
  H254     1.0000 0.90380  0.36610  0.97750  Biso   1.000  H
  C573     1.0000 0.90415  0.42648  0.95197  Biso   1.000  C
  C574     1.0000 0.87647  0.45424  0.93410  Biso   1.000  C
  H255     1.0000 0.89170  0.48390  0.92590  Biso   1.000  H
  N64      1.0000 0.95835  0.44322  0.95725  Biso   1.000  N
  C575     1.0000 0.97347  0.49211  0.96478  Biso   1.000  C
  H256     1.0000 0.95110  0.52070  0.96920  Biso   1.000  H
  C576     1.0000 0.69037  0.44313  0.08990  Biso   1.000  C
  O254     1.0000 0.66611  0.48126  0.09956  Biso   1.000  O
  O255     1.0000 0.73385  0.42518  0.09728  Biso   1.000  O
  O256     1.0000 0.81588  0.50538  0.89783  Biso   1.000  O
  Cu33     1.0000 0.00000  0.54479  0.26183  Biso   1.000  Cu
  Cu34     1.0000 0.00000  0.47153  0.22536  Biso   1.000  Cu
  Cu35     1.0000 0.50000  0.04479  0.76183  Biso   1.000  Cu
  Cu36     1.0000 0.50000  0.97153  0.72536  Biso   1.000  Cu
  Cu37     1.0000 0.50000  0.45521  0.76183  Biso   1.000  Cu
  Cu38     1.0000 0.50000  0.52847  0.72536  Biso   1.000  Cu
  Cu39     1.0000 0.00000  0.95521  0.26183  Biso   1.000  Cu
  Cu40     1.0000 0.00000  0.02847  0.22536  Biso   1.000  Cu
  Cu41     1.0000 0.70521  0.75000  0.51183  Biso   1.000  Cu
  Cu42     1.0000 0.77847  0.75000  0.47536  Biso   1.000  Cu
  Cu43     1.0000 0.79479  0.25000  0.01183  Biso   1.000  Cu
  Cu44     1.0000 0.72153  0.25000  0.97536  Biso   1.000  Cu
  Cu45     1.0000 0.50000  0.54479  0.23817  Biso   1.000  Cu
  Cu46     1.0000 0.50000  0.47153  0.27464  Biso   1.000  Cu
  Cu47     1.0000 0.00000  0.04479  0.73817  Biso   1.000  Cu
  Cu48     1.0000 0.00000  0.97153  0.77464  Biso   1.000  Cu
  Cu49     1.0000 0.00000  0.45521  0.73817  Biso   1.000  Cu
  Cu50     1.0000 0.00000  0.52847  0.77464  Biso   1.000  Cu
  Cu51     1.0000 0.50000  0.95521  0.23817  Biso   1.000  Cu
  Cu52     1.0000 0.50000  0.02847  0.27464  Biso   1.000  Cu
  Cu53     1.0000 0.79479  0.75000  0.98817  Biso   1.000  Cu
  Cu54     1.0000 0.72153  0.75000  0.02464  Biso   1.000  Cu
  Cu55     1.0000 0.70521  0.25000  0.48817  Biso   1.000  Cu
  Cu56     1.0000 0.77847  0.25000  0.52464  Biso   1.000  Cu
  Cu57     1.0000 0.29479  0.25000  0.48817  Biso   1.000  Cu
  Cu58     1.0000 0.22153  0.25000  0.52464  Biso   1.000  Cu
  Cu59     1.0000 0.20521  0.75000  0.98817  Biso   1.000  Cu
  Cu60     1.0000 0.27847  0.75000  0.02464  Biso   1.000  Cu
  Cu61     1.0000 0.20521  0.25000  0.01183  Biso   1.000  Cu
  Cu62     1.0000 0.27847  0.25000  0.97536  Biso   1.000  Cu
  Cu63     1.0000 0.29479  0.75000  0.51183  Biso   1.000  Cu
  Cu64     1.0000 0.22153  0.75000  0.47536  Biso   1.000  Cu
  C577     1.0000 0.15600  0.25000  0.29551  Biso   1.000  C
  H257     1.0000 0.14380  0.25000  0.31270  Biso   1.000  H
  C578     1.0000 0.34400  0.75000  0.79551  Biso   1.000  C
  H258     1.0000 0.35620  0.75000  0.81270  Biso   1.000  H
  C579     1.0000 0.00000  0.90600  0.54551  Biso   1.000  C
  H259     1.0000 0.00000  0.89380  0.56270  Biso   1.000  H
  C580     1.0000 0.50000  0.40600  0.04551  Biso   1.000  C
  H260     1.0000 0.50000  0.39380  0.06270  Biso   1.000  H
  C581     1.0000 0.50000  0.09400  0.04551  Biso   1.000  C
  H261     1.0000 0.50000  0.10620  0.06270  Biso   1.000  H
  C582     1.0000 0.00000  0.59400  0.54551  Biso   1.000  C
  H262     1.0000 0.00000  0.60620  0.56270  Biso   1.000  H
  C583     1.0000 0.34400  0.25000  0.20449  Biso   1.000  C
  H263     1.0000 0.35620  0.25000  0.18730  Biso   1.000  H
  C584     1.0000 0.15600  0.75000  0.70449  Biso   1.000  C
  H264     1.0000 0.14380  0.75000  0.68730  Biso   1.000  H
  C585     1.0000 0.65600  0.25000  0.20449  Biso   1.000  C
  H265     1.0000 0.64380  0.25000  0.18730  Biso   1.000  H
  C586     1.0000 0.50000  0.90600  0.95449  Biso   1.000  C
  H266     1.0000 0.50000  0.89380  0.93730  Biso   1.000  H
  C587     1.0000 0.00000  0.40600  0.45449  Biso   1.000  C
  H267     1.0000 0.00000  0.39380  0.43730  Biso   1.000  H
  C588     1.0000 0.00000  0.09400  0.45449  Biso   1.000  C
  H268     1.0000 0.00000  0.10620  0.43730  Biso   1.000  H
  C589     1.0000 0.50000  0.59400  0.95449  Biso   1.000  C
  H269     1.0000 0.50000  0.60620  0.93730  Biso   1.000  H
  C590     1.0000 0.84400  0.75000  0.70449  Biso   1.000  C
  H270     1.0000 0.85620  0.75000  0.68730  Biso   1.000  H
  C591     1.0000 0.65600  0.75000  0.79551  Biso   1.000  C
  H271     1.0000 0.64380  0.75000  0.81270  Biso   1.000  H
  C592     1.0000 0.84400  0.25000  0.29551  Biso   1.000  C
  H272     1.0000 0.85620  0.25000  0.31270  Biso   1.000  H
  C593     1.0000 0.16490  0.75000  0.20184  Biso   1.000  C
  H273     1.0000 0.13010  0.75000  0.19520  Biso   1.000  H
  C594     1.0000 0.33510  0.25000  0.70184  Biso   1.000  C
  H274     1.0000 0.36990  0.25000  0.69520  Biso   1.000  H
  C595     1.0000 0.50000  0.91490  0.45184  Biso   1.000  C
  H275     1.0000 0.50000  0.88010  0.44520  Biso   1.000  H
  C596     1.0000 0.00000  0.41490  0.95184  Biso   1.000  C
  H276     1.0000 0.00000  0.38010  0.94520  Biso   1.000  H
  C597     1.0000 0.00000  0.08510  0.95184  Biso   1.000  C
  H277     1.0000 0.00000  0.11990  0.94520  Biso   1.000  H
  C598     1.0000 0.50000  0.58510  0.45184  Biso   1.000  C
  H278     1.0000 0.50000  0.61990  0.44520  Biso   1.000  H
  C599     1.0000 0.33510  0.75000  0.29816  Biso   1.000  C
  H279     1.0000 0.36990  0.75000  0.30480  Biso   1.000  H
  C600     1.0000 0.16490  0.25000  0.79816  Biso   1.000  C
  H280     1.0000 0.13010  0.25000  0.80480  Biso   1.000  H
  C601     1.0000 0.00000  0.91490  0.04816  Biso   1.000  C
  H281     1.0000 0.00000  0.88010  0.05480  Biso   1.000  H
  C602     1.0000 0.50000  0.41490  0.54816  Biso   1.000  C
  H282     1.0000 0.50000  0.38010  0.55480  Biso   1.000  H
  C603     1.0000 0.50000  0.08510  0.54816  Biso   1.000  C
  H283     1.0000 0.50000  0.11990  0.55480  Biso   1.000  H
  C604     1.0000 0.00000  0.58510  0.04816  Biso   1.000  C
  H284     1.0000 0.00000  0.61990  0.05480  Biso   1.000  H
  C605     1.0000 0.83510  0.25000  0.79816  Biso   1.000  C
  H285     1.0000 0.86990  0.25000  0.80480  Biso   1.000  H
  C606     1.0000 0.66490  0.75000  0.29816  Biso   1.000  C
  H286     1.0000 0.63010  0.75000  0.30480  Biso   1.000  H
  C607     1.0000 0.66490  0.25000  0.70184  Biso   1.000  C
  H287     1.0000 0.63010  0.25000  0.69520  Biso   1.000  H
  C608     1.0000 0.83510  0.75000  0.20184  Biso   1.000  C
  H288     1.0000 0.86990  0.75000  0.19520  Biso   1.000  H
