data_image0
_cell_length_a       25.444
_cell_length_b       25.444
_cell_length_c       53.616
_cell_angle_alpha    90
_cell_angle_beta     90
_cell_angle_gamma    90

_symmetry_space_group_name_H-M    "P 1"
_symmetry_int_tables_number       1

loop_
  _symmetry_equiv_pos_as_xyz
  'x, y, z'

loop_
  _atom_site_label
  _atom_site_occupancy
  _atom_site_fract_x
  _atom_site_fract_y
  _atom_site_fract_z
  _atom_site_thermal_displace_type
  _atom_site_B_iso_or_equiv
  _atom_site_type_symbol
  Zn1      1.0000 0.22329  0.44460  0.12680  Biso   1.000  Zn
  O1       1.0000 0.27730  0.41182  0.14975  Biso   1.000  O
  C1       1.0000 0.31290  0.43870  0.16016  Biso   1.000  C
  O2       1.0000 0.44400  0.50263  0.22583  Biso   1.000  O
  O3       1.0000 0.32897  0.48403  0.15272  Biso   1.000  O
  C2       1.0000 0.18910  0.67670  0.03065  Biso   1.000  C
  O4       1.0000 0.16653  0.69525  0.01205  Biso   1.000  O
  N1       1.0000 0.04220  0.55683  0.04645  Biso   1.000  N
  O5       1.0000 0.25417  0.54599  0.09491  Biso   1.000  O
  C3       1.0000 0.20750  0.53210  0.09201  Biso   1.000  C
  O6       1.0000 0.23206  0.69538  0.03973  Biso   1.000  O
  C4       1.0000 0.37170  0.44697  0.19756  Biso   1.000  C
  H1       1.0000 0.37850  0.48240  0.19300  Biso   1.000  H
  N2       1.0000 0.34010  0.29140  0.21826  Biso   1.000  N
  C5       1.0000 0.38270  0.37508  0.22577  Biso   1.000  C
  H2       1.0000 0.39770  0.36060  0.24050  Biso   1.000  H
  C6       1.0000 0.12510  0.54398  0.06778  Biso   1.000  C
  H3       1.0000 0.11130  0.51320  0.07530  Biso   1.000  H
  C7       1.0000 0.11566  0.61477  0.03818  Biso   1.000  C
  H4       1.0000 0.09520  0.63220  0.02590  Biso   1.000  H
  C8       1.0000 0.43020  0.46030  0.23359  Biso   1.000  C
  C9       1.0000 0.32770  0.36447  0.18936  Biso   1.000  C
  H5       1.0000 0.30580  0.34270  0.17930  Biso   1.000  H
  C10      1.0000 0.16665  0.63151  0.04368  Biso   1.000  C
  C11      1.0000 0.33820  0.41568  0.18218  Biso   1.000  C
  O7       1.0000 0.44673  0.43919  0.25394  Biso   1.000  O
  C12      1.0000 0.19668  0.60365  0.06190  Biso   1.000  C
  H6       1.0000 0.23130  0.61480  0.06590  Biso   1.000  H
  C13      1.0000 0.34910  0.34525  0.21111  Biso   1.000  C
  C14      1.0000 0.17573  0.56130  0.07354  Biso   1.000  C
  C15      1.0000 0.09582  0.57210  0.05113  Biso   1.000  C
  C16      1.0000 0.32340  0.27710  0.24354  Biso   1.000  C
  H7       1.0000 0.31460  0.30000  0.25690  Biso   1.000  H
  C17      1.0000 0.03020  0.50770  0.03989  Biso   1.000  C
  H8       1.0000 0.05340  0.47960  0.03610  Biso   1.000  H
  C18      1.0000 0.39420  0.42710  0.21865  Biso   1.000  C
  O8       1.0000 0.18501  0.49495  0.10366  Biso   1.000  O
  Zn2      1.0000 0.72329  0.94460  0.62680  Biso   1.000  Zn
  O9       1.0000 0.77730  0.91182  0.64975  Biso   1.000  O
  C19      1.0000 0.81290  0.93870  0.66016  Biso   1.000  C
  O10      1.0000 0.94400  0.00263  0.72583  Biso   1.000  O
  O11      1.0000 0.82897  0.98403  0.65272  Biso   1.000  O
  C20      1.0000 0.68910  0.17670  0.53065  Biso   1.000  C
  O12      1.0000 0.66653  0.19525  0.51205  Biso   1.000  O
  N3       1.0000 0.54220  0.05683  0.54645  Biso   1.000  N
  O13      1.0000 0.75417  0.04599  0.59491  Biso   1.000  O
  C21      1.0000 0.70750  0.03210  0.59201  Biso   1.000  C
  O14      1.0000 0.73206  0.19538  0.53973  Biso   1.000  O
  C22      1.0000 0.87170  0.94697  0.69756  Biso   1.000  C
  H9       1.0000 0.87850  0.98240  0.69300  Biso   1.000  H
  N4       1.0000 0.84010  0.79140  0.71826  Biso   1.000  N
  C23      1.0000 0.88270  0.87508  0.72577  Biso   1.000  C
  H10      1.0000 0.89770  0.86060  0.74050  Biso   1.000  H
  C24      1.0000 0.62510  0.04398  0.56778  Biso   1.000  C
  H11      1.0000 0.61130  0.01320  0.57530  Biso   1.000  H
  C25      1.0000 0.61566  0.11477  0.53818  Biso   1.000  C
  H12      1.0000 0.59520  0.13220  0.52590  Biso   1.000  H
  C26      1.0000 0.93020  0.96030  0.73359  Biso   1.000  C
  C27      1.0000 0.82770  0.86447  0.68936  Biso   1.000  C
  H13      1.0000 0.80580  0.84270  0.67930  Biso   1.000  H
  C28      1.0000 0.66665  0.13151  0.54368  Biso   1.000  C
  C29      1.0000 0.83820  0.91568  0.68218  Biso   1.000  C
  O15      1.0000 0.94673  0.93919  0.75394  Biso   1.000  O
  C30      1.0000 0.69668  0.10365  0.56190  Biso   1.000  C
  H14      1.0000 0.73130  0.11480  0.56590  Biso   1.000  H
  C31      1.0000 0.84910  0.84525  0.71111  Biso   1.000  C
  C32      1.0000 0.67573  0.06130  0.57354  Biso   1.000  C
  C33      1.0000 0.59582  0.07210  0.55113  Biso   1.000  C
  C34      1.0000 0.82340  0.77710  0.74354  Biso   1.000  C
  H15      1.0000 0.81460  0.80000  0.75690  Biso   1.000  H
  C35      1.0000 0.53020  0.00770  0.53989  Biso   1.000  C
  H16      1.0000 0.55340  0.97960  0.53610  Biso   1.000  H
  C36      1.0000 0.89420  0.92710  0.71865  Biso   1.000  C
  O16      1.0000 0.68501  0.99495  0.60366  Biso   1.000  O
  Zn3      1.0000 0.27671  0.55540  0.62680  Biso   1.000  Zn
  O17      1.0000 0.22270  0.58818  0.64975  Biso   1.000  O
  C37      1.0000 0.18710  0.56130  0.66016  Biso   1.000  C
  O18      1.0000 0.05600  0.49737  0.72583  Biso   1.000  O
  O19      1.0000 0.17103  0.51597  0.65272  Biso   1.000  O
  C38      1.0000 0.31090  0.32330  0.53065  Biso   1.000  C
  O20      1.0000 0.33347  0.30475  0.51205  Biso   1.000  O
  N5       1.0000 0.45780  0.44317  0.54645  Biso   1.000  N
  O21      1.0000 0.24583  0.45401  0.59491  Biso   1.000  O
  C39      1.0000 0.29250  0.46790  0.59201  Biso   1.000  C
  O22      1.0000 0.26794  0.30462  0.53973  Biso   1.000  O
  C40      1.0000 0.12830  0.55303  0.69756  Biso   1.000  C
  H17      1.0000 0.12150  0.51760  0.69300  Biso   1.000  H
  N6       1.0000 0.15990  0.70860  0.71826  Biso   1.000  N
  C41      1.0000 0.11730  0.62492  0.72577  Biso   1.000  C
  H18      1.0000 0.10230  0.63940  0.74050  Biso   1.000  H
  C42      1.0000 0.37490  0.45602  0.56778  Biso   1.000  C
  H19      1.0000 0.38870  0.48680  0.57530  Biso   1.000  H
  C43      1.0000 0.38434  0.38523  0.53818  Biso   1.000  C
  H20      1.0000 0.40480  0.36780  0.52590  Biso   1.000  H
  C44      1.0000 0.06980  0.53970  0.73359  Biso   1.000  C
  C45      1.0000 0.17230  0.63553  0.68936  Biso   1.000  C
  H21      1.0000 0.19420  0.65730  0.67930  Biso   1.000  H
  C46      1.0000 0.33335  0.36849  0.54368  Biso   1.000  C
  C47      1.0000 0.16180  0.58432  0.68218  Biso   1.000  C
  O23      1.0000 0.05327  0.56081  0.75394  Biso   1.000  O
  C48      1.0000 0.30332  0.39635  0.56190  Biso   1.000  C
  H22      1.0000 0.26870  0.38520  0.56590  Biso   1.000  H
  C49      1.0000 0.15090  0.65475  0.71111  Biso   1.000  C
  C50      1.0000 0.32427  0.43870  0.57354  Biso   1.000  C
  C51      1.0000 0.40418  0.42790  0.55113  Biso   1.000  C
  C52      1.0000 0.17660  0.72290  0.74354  Biso   1.000  C
  H23      1.0000 0.18540  0.70000  0.75690  Biso   1.000  H
  C53      1.0000 0.46980  0.49230  0.53989  Biso   1.000  C
  H24      1.0000 0.44660  0.52040  0.53610  Biso   1.000  H
  C54      1.0000 0.10580  0.57290  0.71865  Biso   1.000  C
  O24      1.0000 0.31499  0.50505  0.60366  Biso   1.000  O
  Zn4      1.0000 0.77671  0.05540  0.12680  Biso   1.000  Zn
  O25      1.0000 0.72270  0.08818  0.14975  Biso   1.000  O
  C55      1.0000 0.68710  0.06130  0.16016  Biso   1.000  C
  O26      1.0000 0.55600  0.99737  0.22583  Biso   1.000  O
  O27      1.0000 0.67103  0.01597  0.15272  Biso   1.000  O
  C56      1.0000 0.81090  0.82330  0.03065  Biso   1.000  C
  O28      1.0000 0.83347  0.80475  0.01205  Biso   1.000  O
  N7       1.0000 0.95780  0.94317  0.04645  Biso   1.000  N
  O29      1.0000 0.74583  0.95401  0.09491  Biso   1.000  O
  C57      1.0000 0.79250  0.96790  0.09201  Biso   1.000  C
  O30      1.0000 0.76794  0.80462  0.03973  Biso   1.000  O
  C58      1.0000 0.62830  0.05303  0.19756  Biso   1.000  C
  H25      1.0000 0.62150  0.01760  0.19300  Biso   1.000  H
  N8       1.0000 0.65990  0.20860  0.21826  Biso   1.000  N
  C59      1.0000 0.61730  0.12492  0.22577  Biso   1.000  C
  H26      1.0000 0.60230  0.13940  0.24050  Biso   1.000  H
  C60      1.0000 0.87490  0.95602  0.06778  Biso   1.000  C
  H27      1.0000 0.88870  0.98680  0.07530  Biso   1.000  H
  C61      1.0000 0.88434  0.88523  0.03818  Biso   1.000  C
  H28      1.0000 0.90480  0.86780  0.02590  Biso   1.000  H
  C62      1.0000 0.56980  0.03970  0.23359  Biso   1.000  C
  C63      1.0000 0.67230  0.13553  0.18936  Biso   1.000  C
  H29      1.0000 0.69420  0.15730  0.17930  Biso   1.000  H
  C64      1.0000 0.83335  0.86849  0.04368  Biso   1.000  C
  C65      1.0000 0.66180  0.08432  0.18218  Biso   1.000  C
  O31      1.0000 0.55327  0.06081  0.25394  Biso   1.000  O
  C66      1.0000 0.80332  0.89635  0.06190  Biso   1.000  C
  H30      1.0000 0.76870  0.88520  0.06590  Biso   1.000  H
  C67      1.0000 0.65090  0.15475  0.21111  Biso   1.000  C
  C68      1.0000 0.82427  0.93870  0.07354  Biso   1.000  C
  C69      1.0000 0.90418  0.92790  0.05113  Biso   1.000  C
  C70      1.0000 0.67660  0.22290  0.24354  Biso   1.000  C
  H31      1.0000 0.68540  0.20000  0.25690  Biso   1.000  H
  C71      1.0000 0.96980  0.99230  0.03989  Biso   1.000  C
  H32      1.0000 0.94660  0.02040  0.03610  Biso   1.000  H
  C72      1.0000 0.60580  0.07290  0.21865  Biso   1.000  C
  O32      1.0000 0.81499  0.00505  0.10366  Biso   1.000  O
  Zn5      1.0000 0.80540  0.97329  0.37680  Biso   1.000  Zn
  O33      1.0000 0.83818  0.02730  0.39975  Biso   1.000  O
  C73      1.0000 0.81130  0.06290  0.41016  Biso   1.000  C
  O34      1.0000 0.74737  0.19400  0.47583  Biso   1.000  O
  O35      1.0000 0.76597  0.07897  0.40272  Biso   1.000  O
  C74      1.0000 0.57330  0.93910  0.28065  Biso   1.000  C
  O36      1.0000 0.55475  0.91653  0.26205  Biso   1.000  O
  N9       1.0000 0.69317  0.79220  0.29645  Biso   1.000  N
  O37      1.0000 0.70401  0.00417  0.34491  Biso   1.000  O
  C75      1.0000 0.71790  0.95750  0.34201  Biso   1.000  C
  O38      1.0000 0.55462  0.98206  0.28973  Biso   1.000  O
  C76      1.0000 0.80303  0.12170  0.44756  Biso   1.000  C
  H33      1.0000 0.76760  0.12850  0.44300  Biso   1.000  H
  N10      1.0000 0.95860  0.09010  0.46826  Biso   1.000  N
  C77      1.0000 0.87492  0.13270  0.47577  Biso   1.000  C
  H34      1.0000 0.88940  0.14770  0.49050  Biso   1.000  H
  C78      1.0000 0.70602  0.87510  0.31778  Biso   1.000  C
  H35      1.0000 0.73680  0.86130  0.32530  Biso   1.000  H
  C79      1.0000 0.63523  0.86566  0.28818  Biso   1.000  C
  H36      1.0000 0.61780  0.84520  0.27590  Biso   1.000  H
  C80      1.0000 0.78970  0.18020  0.48359  Biso   1.000  C
  C81      1.0000 0.88553  0.07770  0.43936  Biso   1.000  C
  H37      1.0000 0.90730  0.05580  0.42930  Biso   1.000  H
  C82      1.0000 0.61849  0.91665  0.29368  Biso   1.000  C
  C83      1.0000 0.83432  0.08820  0.43218  Biso   1.000  C
  O39      1.0000 0.81081  0.19673  0.50394  Biso   1.000  O
  C84      1.0000 0.64635  0.94668  0.31190  Biso   1.000  C
  H38      1.0000 0.63520  0.98130  0.31590  Biso   1.000  H
  C85      1.0000 0.90475  0.09910  0.46111  Biso   1.000  C
  C86      1.0000 0.68870  0.92573  0.32354  Biso   1.000  C
  C87      1.0000 0.67790  0.84582  0.30113  Biso   1.000  C
  C88      1.0000 0.97290  0.07340  0.49354  Biso   1.000  C
  H39      1.0000 0.95000  0.06460  0.50690  Biso   1.000  H
  C89      1.0000 0.74230  0.78020  0.28989  Biso   1.000  C
  H40      1.0000 0.77040  0.80340  0.28610  Biso   1.000  H
  C90      1.0000 0.82290  0.14420  0.46865  Biso   1.000  C
  O40      1.0000 0.75505  0.93501  0.35366  Biso   1.000  O
  Zn6      1.0000 0.30540  0.47329  0.87680  Biso   1.000  Zn
  O41      1.0000 0.33818  0.52730  0.89975  Biso   1.000  O
  C91      1.0000 0.31130  0.56290  0.91016  Biso   1.000  C
  O42      1.0000 0.24737  0.69400  0.97583  Biso   1.000  O
  O43      1.0000 0.26597  0.57897  0.90272  Biso   1.000  O
  C92      1.0000 0.07330  0.43910  0.78065  Biso   1.000  C
  O44      1.0000 0.05475  0.41653  0.76205  Biso   1.000  O
  N11      1.0000 0.19317  0.29220  0.79645  Biso   1.000  N
  O45      1.0000 0.20401  0.50417  0.84491  Biso   1.000  O
  C93      1.0000 0.21790  0.45750  0.84201  Biso   1.000  C
  O46      1.0000 0.05462  0.48206  0.78973  Biso   1.000  O
  C94      1.0000 0.30303  0.62170  0.94756  Biso   1.000  C
  H41      1.0000 0.26760  0.62850  0.94300  Biso   1.000  H
  N12      1.0000 0.45860  0.59010  0.96826  Biso   1.000  N
  C95      1.0000 0.37492  0.63270  0.97577  Biso   1.000  C
  H42      1.0000 0.38940  0.64770  0.99050  Biso   1.000  H
  C96      1.0000 0.20602  0.37510  0.81778  Biso   1.000  C
  H43      1.0000 0.23680  0.36130  0.82530  Biso   1.000  H
  C97      1.0000 0.13523  0.36566  0.78818  Biso   1.000  C
  H44      1.0000 0.11780  0.34520  0.77590  Biso   1.000  H
  C98      1.0000 0.28970  0.68020  0.98359  Biso   1.000  C
  C99      1.0000 0.38553  0.57770  0.93936  Biso   1.000  C
  H45      1.0000 0.40730  0.55580  0.92930  Biso   1.000  H
  C100     1.0000 0.11849  0.41665  0.79368  Biso   1.000  C
  C101     1.0000 0.33432  0.58820  0.93218  Biso   1.000  C
  O47      1.0000 0.31081  0.69673  0.00394  Biso   1.000  O
  C102     1.0000 0.14635  0.44668  0.81190  Biso   1.000  C
  H46      1.0000 0.13520  0.48130  0.81590  Biso   1.000  H
  C103     1.0000 0.40475  0.59910  0.96111  Biso   1.000  C
  C104     1.0000 0.18870  0.42573  0.82354  Biso   1.000  C
  C105     1.0000 0.17790  0.34582  0.80113  Biso   1.000  C
  C106     1.0000 0.47290  0.57340  0.99354  Biso   1.000  C
  H47      1.0000 0.45000  0.56460  0.00690  Biso   1.000  H
  C107     1.0000 0.24230  0.28020  0.78989  Biso   1.000  C
  H48      1.0000 0.27040  0.30340  0.78610  Biso   1.000  H
  C108     1.0000 0.32290  0.64420  0.96865  Biso   1.000  C
  O48      1.0000 0.25505  0.43501  0.85366  Biso   1.000  O
  Zn7      1.0000 0.69460  0.02671  0.87680  Biso   1.000  Zn
  O49      1.0000 0.66182  0.97270  0.89975  Biso   1.000  O
  C109     1.0000 0.68870  0.93710  0.91016  Biso   1.000  C
  O50      1.0000 0.75263  0.80600  0.97583  Biso   1.000  O
  O51      1.0000 0.73403  0.92103  0.90272  Biso   1.000  O
  C110     1.0000 0.92670  0.06090  0.78065  Biso   1.000  C
  O52      1.0000 0.94525  0.08347  0.76205  Biso   1.000  O
  N13      1.0000 0.80683  0.20780  0.79645  Biso   1.000  N
  O53      1.0000 0.79599  0.99583  0.84491  Biso   1.000  O
  C111     1.0000 0.78210  0.04250  0.84201  Biso   1.000  C
  O54      1.0000 0.94538  0.01794  0.78973  Biso   1.000  O
  C112     1.0000 0.69697  0.87830  0.94756  Biso   1.000  C
  H49      1.0000 0.73240  0.87150  0.94300  Biso   1.000  H
  N14      1.0000 0.54140  0.90990  0.96826  Biso   1.000  N
  C113     1.0000 0.62508  0.86730  0.97577  Biso   1.000  C
  H50      1.0000 0.61060  0.85230  0.99050  Biso   1.000  H
  C114     1.0000 0.79398  0.12490  0.81778  Biso   1.000  C
  H51      1.0000 0.76320  0.13870  0.82530  Biso   1.000  H
  C115     1.0000 0.86477  0.13434  0.78818  Biso   1.000  C
  H52      1.0000 0.88220  0.15480  0.77590  Biso   1.000  H
  C116     1.0000 0.71030  0.81980  0.98359  Biso   1.000  C
  C117     1.0000 0.61447  0.92230  0.93936  Biso   1.000  C
  H53      1.0000 0.59270  0.94420  0.92930  Biso   1.000  H
  C118     1.0000 0.88151  0.08335  0.79368  Biso   1.000  C
  C119     1.0000 0.66568  0.91180  0.93218  Biso   1.000  C
  O55      1.0000 0.68919  0.80327  0.00394  Biso   1.000  O
  C120     1.0000 0.85365  0.05332  0.81190  Biso   1.000  C
  H54      1.0000 0.86480  0.01870  0.81590  Biso   1.000  H
  C121     1.0000 0.59525  0.90090  0.96111  Biso   1.000  C
  C122     1.0000 0.81130  0.07427  0.82354  Biso   1.000  C
  C123     1.0000 0.82210  0.15418  0.80113  Biso   1.000  C
  C124     1.0000 0.52710  0.92660  0.99354  Biso   1.000  C
  H55      1.0000 0.55000  0.93540  0.00690  Biso   1.000  H
  C125     1.0000 0.75770  0.21980  0.78989  Biso   1.000  C
  H56      1.0000 0.72960  0.19660  0.78610  Biso   1.000  H
  C126     1.0000 0.67710  0.85580  0.96865  Biso   1.000  C
  O56      1.0000 0.74495  0.06499  0.85366  Biso   1.000  O
  Zn8      1.0000 0.19460  0.52671  0.37680  Biso   1.000  Zn
  O57      1.0000 0.16182  0.47270  0.39975  Biso   1.000  O
  C127     1.0000 0.18870  0.43710  0.41016  Biso   1.000  C
  O58      1.0000 0.25263  0.30600  0.47583  Biso   1.000  O
  O59      1.0000 0.23403  0.42103  0.40272  Biso   1.000  O
  C128     1.0000 0.42670  0.56090  0.28065  Biso   1.000  C
  O60      1.0000 0.44525  0.58347  0.26205  Biso   1.000  O
  N15      1.0000 0.30683  0.70780  0.29645  Biso   1.000  N
  O61      1.0000 0.29599  0.49583  0.34491  Biso   1.000  O
  C129     1.0000 0.28210  0.54250  0.34201  Biso   1.000  C
  O62      1.0000 0.44538  0.51794  0.28973  Biso   1.000  O
  C130     1.0000 0.19697  0.37830  0.44756  Biso   1.000  C
  H57      1.0000 0.23240  0.37150  0.44300  Biso   1.000  H
  N16      1.0000 0.04140  0.40990  0.46826  Biso   1.000  N
  C131     1.0000 0.12508  0.36730  0.47577  Biso   1.000  C
  H58      1.0000 0.11060  0.35230  0.49050  Biso   1.000  H
  C132     1.0000 0.29398  0.62490  0.31778  Biso   1.000  C
  H59      1.0000 0.26320  0.63870  0.32530  Biso   1.000  H
  C133     1.0000 0.36477  0.63434  0.28818  Biso   1.000  C
  H60      1.0000 0.38220  0.65480  0.27590  Biso   1.000  H
  C134     1.0000 0.21030  0.31980  0.48359  Biso   1.000  C
  C135     1.0000 0.11447  0.42230  0.43936  Biso   1.000  C
  H61      1.0000 0.09270  0.44420  0.42930  Biso   1.000  H
  C136     1.0000 0.38151  0.58335  0.29368  Biso   1.000  C
  C137     1.0000 0.16568  0.41180  0.43218  Biso   1.000  C
  O63      1.0000 0.18919  0.30327  0.50394  Biso   1.000  O
  C138     1.0000 0.35365  0.55332  0.31190  Biso   1.000  C
  H62      1.0000 0.36480  0.51870  0.31590  Biso   1.000  H
  C139     1.0000 0.09525  0.40090  0.46111  Biso   1.000  C
  C140     1.0000 0.31130  0.57427  0.32354  Biso   1.000  C
  C141     1.0000 0.32210  0.65418  0.30113  Biso   1.000  C
  C142     1.0000 0.02710  0.42660  0.49354  Biso   1.000  C
  H63      1.0000 0.05000  0.43540  0.50690  Biso   1.000  H
  C143     1.0000 0.25770  0.71980  0.28989  Biso   1.000  C
  H64      1.0000 0.22960  0.69660  0.28610  Biso   1.000  H
  C144     1.0000 0.17710  0.35580  0.46865  Biso   1.000  C
  O64      1.0000 0.24495  0.56499  0.35366  Biso   1.000  O
  Zn9      1.0000 0.27671  0.44460  0.37320  Biso   1.000  Zn
  O65      1.0000 0.22270  0.41182  0.35025  Biso   1.000  O
  C145     1.0000 0.18710  0.43870  0.33984  Biso   1.000  C
  O66      1.0000 0.05600  0.50263  0.27417  Biso   1.000  O
  O67      1.0000 0.17103  0.48403  0.34728  Biso   1.000  O
  C146     1.0000 0.31090  0.67670  0.46935  Biso   1.000  C
  O68      1.0000 0.33347  0.69525  0.48795  Biso   1.000  O
  N17      1.0000 0.45780  0.55683  0.45355  Biso   1.000  N
  O69      1.0000 0.24583  0.54599  0.40509  Biso   1.000  O
  C147     1.0000 0.29250  0.53210  0.40799  Biso   1.000  C
  O70      1.0000 0.26794  0.69538  0.46027  Biso   1.000  O
  C148     1.0000 0.12830  0.44697  0.30244  Biso   1.000  C
  H65      1.0000 0.12150  0.48240  0.30700  Biso   1.000  H
  N18      1.0000 0.15990  0.29140  0.28174  Biso   1.000  N
  C149     1.0000 0.11730  0.37508  0.27423  Biso   1.000  C
  H66      1.0000 0.10230  0.36060  0.25950  Biso   1.000  H
  C150     1.0000 0.37490  0.54398  0.43222  Biso   1.000  C
  H67      1.0000 0.38870  0.51320  0.42470  Biso   1.000  H
  C151     1.0000 0.38434  0.61477  0.46182  Biso   1.000  C
  H68      1.0000 0.40480  0.63220  0.47410  Biso   1.000  H
  C152     1.0000 0.06980  0.46030  0.26641  Biso   1.000  C
  C153     1.0000 0.17230  0.36447  0.31064  Biso   1.000  C
  H69      1.0000 0.19420  0.34270  0.32070  Biso   1.000  H
  C154     1.0000 0.33335  0.63151  0.45632  Biso   1.000  C
  C155     1.0000 0.16180  0.41568  0.31782  Biso   1.000  C
  O71      1.0000 0.05327  0.43919  0.24606  Biso   1.000  O
  C156     1.0000 0.30332  0.60365  0.43810  Biso   1.000  C
  H70      1.0000 0.26870  0.61480  0.43410  Biso   1.000  H
  C157     1.0000 0.15090  0.34525  0.28889  Biso   1.000  C
  C158     1.0000 0.32427  0.56130  0.42646  Biso   1.000  C
  C159     1.0000 0.40418  0.57210  0.44887  Biso   1.000  C
  C160     1.0000 0.17660  0.27710  0.25646  Biso   1.000  C
  H71      1.0000 0.18540  0.30000  0.24310  Biso   1.000  H
  C161     1.0000 0.46980  0.50770  0.46011  Biso   1.000  C
  H72      1.0000 0.44660  0.47960  0.46390  Biso   1.000  H
  C162     1.0000 0.10580  0.42710  0.28135  Biso   1.000  C
  O72      1.0000 0.31499  0.49495  0.39634  Biso   1.000  O
  Zn10     1.0000 0.77671  0.94460  0.87320  Biso   1.000  Zn
  O73      1.0000 0.72270  0.91182  0.85025  Biso   1.000  O
  C163     1.0000 0.68710  0.93870  0.83984  Biso   1.000  C
  O74      1.0000 0.55600  0.00263  0.77417  Biso   1.000  O
  O75      1.0000 0.67103  0.98403  0.84728  Biso   1.000  O
  C164     1.0000 0.81090  0.17670  0.96935  Biso   1.000  C
  O76      1.0000 0.83347  0.19525  0.98795  Biso   1.000  O
  N19      1.0000 0.95780  0.05683  0.95355  Biso   1.000  N
  O77      1.0000 0.74583  0.04599  0.90509  Biso   1.000  O
  C165     1.0000 0.79250  0.03210  0.90799  Biso   1.000  C
  O78      1.0000 0.76794  0.19538  0.96027  Biso   1.000  O
  C166     1.0000 0.62830  0.94697  0.80244  Biso   1.000  C
  H73      1.0000 0.62150  0.98240  0.80700  Biso   1.000  H
  N20      1.0000 0.65990  0.79140  0.78174  Biso   1.000  N
  C167     1.0000 0.61730  0.87508  0.77423  Biso   1.000  C
  H74      1.0000 0.60230  0.86060  0.75950  Biso   1.000  H
  C168     1.0000 0.87490  0.04398  0.93222  Biso   1.000  C
  H75      1.0000 0.88870  0.01320  0.92470  Biso   1.000  H
  C169     1.0000 0.88434  0.11477  0.96182  Biso   1.000  C
  H76      1.0000 0.90480  0.13220  0.97410  Biso   1.000  H
  C170     1.0000 0.56980  0.96030  0.76641  Biso   1.000  C
  C171     1.0000 0.67230  0.86447  0.81064  Biso   1.000  C
  H77      1.0000 0.69420  0.84270  0.82070  Biso   1.000  H
  C172     1.0000 0.83335  0.13151  0.95632  Biso   1.000  C
  C173     1.0000 0.66180  0.91568  0.81782  Biso   1.000  C
  O79      1.0000 0.55327  0.93919  0.74606  Biso   1.000  O
  C174     1.0000 0.80332  0.10365  0.93810  Biso   1.000  C
  H78      1.0000 0.76870  0.11480  0.93410  Biso   1.000  H
  C175     1.0000 0.65090  0.84525  0.78889  Biso   1.000  C
  C176     1.0000 0.82427  0.06130  0.92646  Biso   1.000  C
  C177     1.0000 0.90418  0.07210  0.94887  Biso   1.000  C
  C178     1.0000 0.67660  0.77710  0.75646  Biso   1.000  C
  H79      1.0000 0.68540  0.80000  0.74310  Biso   1.000  H
  C179     1.0000 0.96980  0.00770  0.96011  Biso   1.000  C
  H80      1.0000 0.94660  0.97960  0.96390  Biso   1.000  H
  C180     1.0000 0.60580  0.92710  0.78135  Biso   1.000  C
  O80      1.0000 0.81499  0.99495  0.89634  Biso   1.000  O
  Zn11     1.0000 0.22329  0.55540  0.87320  Biso   1.000  Zn
  O81      1.0000 0.27730  0.58818  0.85025  Biso   1.000  O
  C181     1.0000 0.31290  0.56130  0.83984  Biso   1.000  C
  O82      1.0000 0.44400  0.49737  0.77417  Biso   1.000  O
  O83      1.0000 0.32897  0.51597  0.84728  Biso   1.000  O
  C182     1.0000 0.18910  0.32330  0.96935  Biso   1.000  C
  O84      1.0000 0.16653  0.30475  0.98795  Biso   1.000  O
  N21      1.0000 0.04220  0.44317  0.95355  Biso   1.000  N
  O85      1.0000 0.25417  0.45401  0.90509  Biso   1.000  O
  C183     1.0000 0.20750  0.46790  0.90799  Biso   1.000  C
  O86      1.0000 0.23206  0.30462  0.96027  Biso   1.000  O
  C184     1.0000 0.37170  0.55303  0.80244  Biso   1.000  C
  H81      1.0000 0.37850  0.51760  0.80700  Biso   1.000  H
  N22      1.0000 0.34010  0.70860  0.78174  Biso   1.000  N
  C185     1.0000 0.38270  0.62492  0.77423  Biso   1.000  C
  H82      1.0000 0.39770  0.63940  0.75950  Biso   1.000  H
  C186     1.0000 0.12510  0.45602  0.93222  Biso   1.000  C
  H83      1.0000 0.11130  0.48680  0.92470  Biso   1.000  H
  C187     1.0000 0.11566  0.38523  0.96182  Biso   1.000  C
  H84      1.0000 0.09520  0.36780  0.97410  Biso   1.000  H
  C188     1.0000 0.43020  0.53970  0.76641  Biso   1.000  C
  C189     1.0000 0.32770  0.63553  0.81064  Biso   1.000  C
  H85      1.0000 0.30580  0.65730  0.82070  Biso   1.000  H
  C190     1.0000 0.16665  0.36849  0.95632  Biso   1.000  C
  C191     1.0000 0.33820  0.58432  0.81782  Biso   1.000  C
  O87      1.0000 0.44673  0.56081  0.74606  Biso   1.000  O
  C192     1.0000 0.19668  0.39635  0.93810  Biso   1.000  C
  H86      1.0000 0.23130  0.38520  0.93410  Biso   1.000  H
  C193     1.0000 0.34910  0.65475  0.78889  Biso   1.000  C
  C194     1.0000 0.17573  0.43870  0.92646  Biso   1.000  C
  C195     1.0000 0.09582  0.42790  0.94887  Biso   1.000  C
  C196     1.0000 0.32340  0.72290  0.75646  Biso   1.000  C
  H87      1.0000 0.31460  0.70000  0.74310  Biso   1.000  H
  C197     1.0000 0.03020  0.49230  0.96011  Biso   1.000  C
  H88      1.0000 0.05340  0.52040  0.96390  Biso   1.000  H
  C198     1.0000 0.39420  0.57290  0.78135  Biso   1.000  C
  O88      1.0000 0.18501  0.50505  0.89634  Biso   1.000  O
  Zn12     1.0000 0.72329  0.05540  0.37320  Biso   1.000  Zn
  O89      1.0000 0.77730  0.08818  0.35025  Biso   1.000  O
  C199     1.0000 0.81290  0.06130  0.33984  Biso   1.000  C
  O90      1.0000 0.94400  0.99737  0.27417  Biso   1.000  O
  O91      1.0000 0.82897  0.01597  0.34728  Biso   1.000  O
  C200     1.0000 0.68910  0.82330  0.46935  Biso   1.000  C
  O92      1.0000 0.66653  0.80475  0.48795  Biso   1.000  O
  N23      1.0000 0.54220  0.94317  0.45355  Biso   1.000  N
  O93      1.0000 0.75417  0.95401  0.40509  Biso   1.000  O
  C201     1.0000 0.70750  0.96790  0.40799  Biso   1.000  C
  O94      1.0000 0.73206  0.80462  0.46027  Biso   1.000  O
  C202     1.0000 0.87170  0.05303  0.30244  Biso   1.000  C
  H89      1.0000 0.87850  0.01760  0.30700  Biso   1.000  H
  N24      1.0000 0.84010  0.20860  0.28174  Biso   1.000  N
  C203     1.0000 0.88270  0.12492  0.27423  Biso   1.000  C
  H90      1.0000 0.89770  0.13940  0.25950  Biso   1.000  H
  C204     1.0000 0.62510  0.95602  0.43222  Biso   1.000  C
  H91      1.0000 0.61130  0.98680  0.42470  Biso   1.000  H
  C205     1.0000 0.61566  0.88523  0.46182  Biso   1.000  C
  H92      1.0000 0.59520  0.86780  0.47410  Biso   1.000  H
  C206     1.0000 0.93020  0.03970  0.26641  Biso   1.000  C
  C207     1.0000 0.82770  0.13553  0.31064  Biso   1.000  C
  H93      1.0000 0.80580  0.15730  0.32070  Biso   1.000  H
  C208     1.0000 0.66665  0.86849  0.45632  Biso   1.000  C
  C209     1.0000 0.83820  0.08432  0.31782  Biso   1.000  C
  O95      1.0000 0.94673  0.06081  0.24606  Biso   1.000  O
  C210     1.0000 0.69668  0.89635  0.43810  Biso   1.000  C
  H94      1.0000 0.73130  0.88520  0.43410  Biso   1.000  H
  C211     1.0000 0.84910  0.15475  0.28889  Biso   1.000  C
  C212     1.0000 0.67573  0.93870  0.42646  Biso   1.000  C
  C213     1.0000 0.59582  0.92790  0.44887  Biso   1.000  C
  C214     1.0000 0.82340  0.22290  0.25646  Biso   1.000  C
  H95      1.0000 0.81460  0.20000  0.24310  Biso   1.000  H
  C215     1.0000 0.53020  0.99230  0.46011  Biso   1.000  C
  H96      1.0000 0.55340  0.02040  0.46390  Biso   1.000  H
  C216     1.0000 0.89420  0.07290  0.28135  Biso   1.000  C
  O96      1.0000 0.68501  0.00505  0.39634  Biso   1.000  O
  Zn13     1.0000 0.69460  0.97329  0.12320  Biso   1.000  Zn
  O97      1.0000 0.66182  0.02730  0.10025  Biso   1.000  O
  C217     1.0000 0.68870  0.06290  0.08984  Biso   1.000  C
  O98      1.0000 0.75263  0.19400  0.02417  Biso   1.000  O
  O99      1.0000 0.73403  0.07897  0.09728  Biso   1.000  O
  C218     1.0000 0.92670  0.93910  0.21935  Biso   1.000  C
  O100     1.0000 0.94525  0.91653  0.23795  Biso   1.000  O
  N25      1.0000 0.80683  0.79220  0.20355  Biso   1.000  N
  O101     1.0000 0.79599  0.00417  0.15509  Biso   1.000  O
  C219     1.0000 0.78210  0.95750  0.15799  Biso   1.000  C
  O102     1.0000 0.94538  0.98206  0.21027  Biso   1.000  O
  C220     1.0000 0.69697  0.12170  0.05244  Biso   1.000  C
  H97      1.0000 0.73240  0.12850  0.05700  Biso   1.000  H
  N26      1.0000 0.54140  0.09010  0.03174  Biso   1.000  N
  C221     1.0000 0.62508  0.13270  0.02423  Biso   1.000  C
  H98      1.0000 0.61060  0.14770  0.00950  Biso   1.000  H
  C222     1.0000 0.79398  0.87510  0.18222  Biso   1.000  C
  H99      1.0000 0.76320  0.86130  0.17470  Biso   1.000  H
  C223     1.0000 0.86477  0.86566  0.21182  Biso   1.000  C
  H100     1.0000 0.88220  0.84520  0.22410  Biso   1.000  H
  C224     1.0000 0.71030  0.18020  0.01641  Biso   1.000  C
  C225     1.0000 0.61447  0.07770  0.06064  Biso   1.000  C
  H101     1.0000 0.59270  0.05580  0.07070  Biso   1.000  H
  C226     1.0000 0.88151  0.91665  0.20632  Biso   1.000  C
  C227     1.0000 0.66568  0.08820  0.06782  Biso   1.000  C
  O103     1.0000 0.68919  0.19673  0.99606  Biso   1.000  O
  C228     1.0000 0.85365  0.94668  0.18810  Biso   1.000  C
  H102     1.0000 0.86480  0.98130  0.18410  Biso   1.000  H
  C229     1.0000 0.59525  0.09910  0.03889  Biso   1.000  C
  C230     1.0000 0.81130  0.92573  0.17646  Biso   1.000  C
  C231     1.0000 0.82210  0.84582  0.19887  Biso   1.000  C
  C232     1.0000 0.52710  0.07340  0.00646  Biso   1.000  C
  H103     1.0000 0.55000  0.06460  0.99310  Biso   1.000  H
  C233     1.0000 0.75770  0.78020  0.21011  Biso   1.000  C
  H104     1.0000 0.72960  0.80340  0.21390  Biso   1.000  H
  C234     1.0000 0.67710  0.14420  0.03135  Biso   1.000  C
  O104     1.0000 0.74495  0.93501  0.14634  Biso   1.000  O
  Zn14     1.0000 0.19460  0.47329  0.62320  Biso   1.000  Zn
  O105     1.0000 0.16182  0.52730  0.60025  Biso   1.000  O
  C235     1.0000 0.18870  0.56290  0.58984  Biso   1.000  C
  O106     1.0000 0.25263  0.69400  0.52417  Biso   1.000  O
  O107     1.0000 0.23403  0.57897  0.59728  Biso   1.000  O
  C236     1.0000 0.42670  0.43910  0.71935  Biso   1.000  C
  O108     1.0000 0.44525  0.41653  0.73795  Biso   1.000  O
  N27      1.0000 0.30683  0.29220  0.70355  Biso   1.000  N
  O109     1.0000 0.29599  0.50417  0.65509  Biso   1.000  O
  C237     1.0000 0.28210  0.45750  0.65799  Biso   1.000  C
  O110     1.0000 0.44538  0.48206  0.71027  Biso   1.000  O
  C238     1.0000 0.19697  0.62170  0.55244  Biso   1.000  C
  H105     1.0000 0.23240  0.62850  0.55700  Biso   1.000  H
  N28      1.0000 0.04140  0.59010  0.53174  Biso   1.000  N
  C239     1.0000 0.12508  0.63270  0.52423  Biso   1.000  C
  H106     1.0000 0.11060  0.64770  0.50950  Biso   1.000  H
  C240     1.0000 0.29398  0.37510  0.68222  Biso   1.000  C
  H107     1.0000 0.26320  0.36130  0.67470  Biso   1.000  H
  C241     1.0000 0.36477  0.36566  0.71182  Biso   1.000  C
  H108     1.0000 0.38220  0.34520  0.72410  Biso   1.000  H
  C242     1.0000 0.21030  0.68020  0.51641  Biso   1.000  C
  C243     1.0000 0.11447  0.57770  0.56064  Biso   1.000  C
  H109     1.0000 0.09270  0.55580  0.57070  Biso   1.000  H
  C244     1.0000 0.38151  0.41665  0.70632  Biso   1.000  C
  C245     1.0000 0.16568  0.58820  0.56782  Biso   1.000  C
  O111     1.0000 0.18919  0.69673  0.49606  Biso   1.000  O
  C246     1.0000 0.35365  0.44668  0.68810  Biso   1.000  C
  H110     1.0000 0.36480  0.48130  0.68410  Biso   1.000  H
  C247     1.0000 0.09525  0.59910  0.53889  Biso   1.000  C
  C248     1.0000 0.31130  0.42573  0.67646  Biso   1.000  C
  C249     1.0000 0.32210  0.34582  0.69887  Biso   1.000  C
  C250     1.0000 0.02710  0.57340  0.50646  Biso   1.000  C
  H111     1.0000 0.05000  0.56460  0.49310  Biso   1.000  H
  C251     1.0000 0.25770  0.28020  0.71011  Biso   1.000  C
  H112     1.0000 0.22960  0.30340  0.71390  Biso   1.000  H
  C252     1.0000 0.17710  0.64420  0.53135  Biso   1.000  C
  O112     1.0000 0.24495  0.43501  0.64634  Biso   1.000  O
  Zn15     1.0000 0.80540  0.02671  0.62320  Biso   1.000  Zn
  O113     1.0000 0.83818  0.97270  0.60025  Biso   1.000  O
  C253     1.0000 0.81130  0.93710  0.58984  Biso   1.000  C
  O114     1.0000 0.74737  0.80600  0.52417  Biso   1.000  O
  O115     1.0000 0.76597  0.92103  0.59728  Biso   1.000  O
  C254     1.0000 0.57330  0.06090  0.71935  Biso   1.000  C
  O116     1.0000 0.55475  0.08347  0.73795  Biso   1.000  O
  N29      1.0000 0.69317  0.20780  0.70355  Biso   1.000  N
  O117     1.0000 0.70401  0.99583  0.65509  Biso   1.000  O
  C255     1.0000 0.71790  0.04250  0.65799  Biso   1.000  C
  O118     1.0000 0.55462  0.01794  0.71027  Biso   1.000  O
  C256     1.0000 0.80303  0.87830  0.55244  Biso   1.000  C
  H113     1.0000 0.76760  0.87150  0.55700  Biso   1.000  H
  N30      1.0000 0.95860  0.90990  0.53174  Biso   1.000  N
  C257     1.0000 0.87492  0.86730  0.52423  Biso   1.000  C
  H114     1.0000 0.88940  0.85230  0.50950  Biso   1.000  H
  C258     1.0000 0.70602  0.12490  0.68222  Biso   1.000  C
  H115     1.0000 0.73680  0.13870  0.67470  Biso   1.000  H
  C259     1.0000 0.63523  0.13434  0.71182  Biso   1.000  C
  H116     1.0000 0.61780  0.15480  0.72410  Biso   1.000  H
  C260     1.0000 0.78970  0.81980  0.51641  Biso   1.000  C
  C261     1.0000 0.88553  0.92230  0.56064  Biso   1.000  C
  H117     1.0000 0.90730  0.94420  0.57070  Biso   1.000  H
  C262     1.0000 0.61849  0.08335  0.70632  Biso   1.000  C
  C263     1.0000 0.83432  0.91180  0.56782  Biso   1.000  C
  O119     1.0000 0.81081  0.80327  0.49606  Biso   1.000  O
  C264     1.0000 0.64635  0.05332  0.68810  Biso   1.000  C
  H118     1.0000 0.63520  0.01870  0.68410  Biso   1.000  H
  C265     1.0000 0.90475  0.90090  0.53889  Biso   1.000  C
  C266     1.0000 0.68870  0.07427  0.67646  Biso   1.000  C
  C267     1.0000 0.67790  0.15418  0.69887  Biso   1.000  C
  C268     1.0000 0.97290  0.92660  0.50646  Biso   1.000  C
  H119     1.0000 0.95000  0.93540  0.49310  Biso   1.000  H
  C269     1.0000 0.74230  0.21980  0.71011  Biso   1.000  C
  H120     1.0000 0.77040  0.19660  0.71390  Biso   1.000  H
  C270     1.0000 0.82290  0.85580  0.53135  Biso   1.000  C
  O120     1.0000 0.75505  0.06499  0.64634  Biso   1.000  O
  Zn16     1.0000 0.30540  0.52671  0.12320  Biso   1.000  Zn
  O121     1.0000 0.33818  0.47270  0.10025  Biso   1.000  O
  C271     1.0000 0.31130  0.43710  0.08984  Biso   1.000  C
  O122     1.0000 0.24737  0.30600  0.02417  Biso   1.000  O
  O123     1.0000 0.26597  0.42103  0.09728  Biso   1.000  O
  C272     1.0000 0.07330  0.56090  0.21935  Biso   1.000  C
  O124     1.0000 0.05475  0.58347  0.23795  Biso   1.000  O
  N31      1.0000 0.19317  0.70780  0.20355  Biso   1.000  N
  O125     1.0000 0.20401  0.49583  0.15509  Biso   1.000  O
  C273     1.0000 0.21790  0.54250  0.15799  Biso   1.000  C
  O126     1.0000 0.05462  0.51794  0.21027  Biso   1.000  O
  C274     1.0000 0.30303  0.37830  0.05244  Biso   1.000  C
  H121     1.0000 0.26760  0.37150  0.05700  Biso   1.000  H
  N32      1.0000 0.45860  0.40990  0.03174  Biso   1.000  N
  C275     1.0000 0.37492  0.36730  0.02423  Biso   1.000  C
  H122     1.0000 0.38940  0.35230  0.00950  Biso   1.000  H
  C276     1.0000 0.20602  0.62490  0.18222  Biso   1.000  C
  H123     1.0000 0.23680  0.63870  0.17470  Biso   1.000  H
  C277     1.0000 0.13523  0.63434  0.21182  Biso   1.000  C
  H124     1.0000 0.11780  0.65480  0.22410  Biso   1.000  H
  C278     1.0000 0.28970  0.31980  0.01641  Biso   1.000  C
  C279     1.0000 0.38553  0.42230  0.06064  Biso   1.000  C
  H125     1.0000 0.40730  0.44420  0.07070  Biso   1.000  H
  C280     1.0000 0.11849  0.58335  0.20632  Biso   1.000  C
  C281     1.0000 0.33432  0.41180  0.06782  Biso   1.000  C
  O127     1.0000 0.31081  0.30327  0.99606  Biso   1.000  O
  C282     1.0000 0.14635  0.55332  0.18810  Biso   1.000  C
  H126     1.0000 0.13520  0.51870  0.18410  Biso   1.000  H
  C283     1.0000 0.40475  0.40090  0.03889  Biso   1.000  C
  C284     1.0000 0.18870  0.57427  0.17646  Biso   1.000  C
  C285     1.0000 0.17790  0.65418  0.19887  Biso   1.000  C
  C286     1.0000 0.47290  0.42660  0.00646  Biso   1.000  C
  H127     1.0000 0.45000  0.43540  0.99310  Biso   1.000  H
  C287     1.0000 0.24230  0.71980  0.21011  Biso   1.000  C
  H128     1.0000 0.27040  0.69660  0.21390  Biso   1.000  H
  C288     1.0000 0.32290  0.35580  0.03135  Biso   1.000  C
  O128     1.0000 0.25505  0.56499  0.14634  Biso   1.000  O
  Zn17     1.0000 0.77671  0.55540  0.87320  Biso   1.000  Zn
  O129     1.0000 0.72270  0.58818  0.85025  Biso   1.000  O
  C289     1.0000 0.68710  0.56130  0.83984  Biso   1.000  C
  O130     1.0000 0.55600  0.49737  0.77417  Biso   1.000  O
  O131     1.0000 0.67103  0.51597  0.84728  Biso   1.000  O
  C290     1.0000 0.81090  0.32330  0.96935  Biso   1.000  C
  O132     1.0000 0.83347  0.30475  0.98795  Biso   1.000  O
  N33      1.0000 0.95780  0.44317  0.95355  Biso   1.000  N
  O133     1.0000 0.74583  0.45401  0.90509  Biso   1.000  O
  C291     1.0000 0.79250  0.46790  0.90799  Biso   1.000  C
  O134     1.0000 0.76794  0.30462  0.96027  Biso   1.000  O
  C292     1.0000 0.62830  0.55303  0.80244  Biso   1.000  C
  H129     1.0000 0.62150  0.51760  0.80700  Biso   1.000  H
  N34      1.0000 0.65990  0.70860  0.78174  Biso   1.000  N
  C293     1.0000 0.61730  0.62492  0.77423  Biso   1.000  C
  H130     1.0000 0.60230  0.63940  0.75950  Biso   1.000  H
  C294     1.0000 0.87490  0.45602  0.93222  Biso   1.000  C
  H131     1.0000 0.88870  0.48680  0.92470  Biso   1.000  H
  C295     1.0000 0.88434  0.38523  0.96182  Biso   1.000  C
  H132     1.0000 0.90480  0.36780  0.97410  Biso   1.000  H
  C296     1.0000 0.56980  0.53970  0.76641  Biso   1.000  C
  C297     1.0000 0.67230  0.63553  0.81064  Biso   1.000  C
  H133     1.0000 0.69420  0.65730  0.82070  Biso   1.000  H
  C298     1.0000 0.83335  0.36849  0.95632  Biso   1.000  C
  C299     1.0000 0.66180  0.58432  0.81782  Biso   1.000  C
  O135     1.0000 0.55327  0.56081  0.74606  Biso   1.000  O
  C300     1.0000 0.80332  0.39635  0.93810  Biso   1.000  C
  H134     1.0000 0.76870  0.38520  0.93410  Biso   1.000  H
  C301     1.0000 0.65090  0.65475  0.78889  Biso   1.000  C
  C302     1.0000 0.82427  0.43870  0.92646  Biso   1.000  C
  C303     1.0000 0.90418  0.42790  0.94887  Biso   1.000  C
  C304     1.0000 0.67660  0.72290  0.75646  Biso   1.000  C
  H135     1.0000 0.68540  0.70000  0.74310  Biso   1.000  H
  C305     1.0000 0.96980  0.49230  0.96011  Biso   1.000  C
  H136     1.0000 0.94660  0.52040  0.96390  Biso   1.000  H
  C306     1.0000 0.60580  0.57290  0.78135  Biso   1.000  C
  O136     1.0000 0.81499  0.50505  0.89634  Biso   1.000  O
  Zn18     1.0000 0.27671  0.05540  0.37320  Biso   1.000  Zn
  O137     1.0000 0.22270  0.08818  0.35025  Biso   1.000  O
  C307     1.0000 0.18710  0.06130  0.33984  Biso   1.000  C
  O138     1.0000 0.05600  0.99737  0.27417  Biso   1.000  O
  O139     1.0000 0.17103  0.01597  0.34728  Biso   1.000  O
  C308     1.0000 0.31090  0.82330  0.46935  Biso   1.000  C
  O140     1.0000 0.33347  0.80475  0.48795  Biso   1.000  O
  N35      1.0000 0.45780  0.94317  0.45355  Biso   1.000  N
  O141     1.0000 0.24583  0.95401  0.40509  Biso   1.000  O
  C309     1.0000 0.29250  0.96790  0.40799  Biso   1.000  C
  O142     1.0000 0.26794  0.80462  0.46027  Biso   1.000  O
  C310     1.0000 0.12830  0.05303  0.30244  Biso   1.000  C
  H137     1.0000 0.12150  0.01760  0.30700  Biso   1.000  H
  N36      1.0000 0.15990  0.20860  0.28174  Biso   1.000  N
  C311     1.0000 0.11730  0.12492  0.27423  Biso   1.000  C
  H138     1.0000 0.10230  0.13940  0.25950  Biso   1.000  H
  C312     1.0000 0.37490  0.95602  0.43222  Biso   1.000  C
  H139     1.0000 0.38870  0.98680  0.42470  Biso   1.000  H
  C313     1.0000 0.38434  0.88523  0.46182  Biso   1.000  C
  H140     1.0000 0.40480  0.86780  0.47410  Biso   1.000  H
  C314     1.0000 0.06980  0.03970  0.26641  Biso   1.000  C
  C315     1.0000 0.17230  0.13553  0.31064  Biso   1.000  C
  H141     1.0000 0.19420  0.15730  0.32070  Biso   1.000  H
  C316     1.0000 0.33335  0.86849  0.45632  Biso   1.000  C
  C317     1.0000 0.16180  0.08432  0.31782  Biso   1.000  C
  O143     1.0000 0.05327  0.06081  0.24606  Biso   1.000  O
  C318     1.0000 0.30332  0.89635  0.43810  Biso   1.000  C
  H142     1.0000 0.26870  0.88520  0.43410  Biso   1.000  H
  C319     1.0000 0.15090  0.15475  0.28889  Biso   1.000  C
  C320     1.0000 0.32427  0.93870  0.42646  Biso   1.000  C
  C321     1.0000 0.40418  0.92790  0.44887  Biso   1.000  C
  C322     1.0000 0.17660  0.22290  0.25646  Biso   1.000  C
  H143     1.0000 0.18540  0.20000  0.24310  Biso   1.000  H
  C323     1.0000 0.46980  0.99230  0.46011  Biso   1.000  C
  H144     1.0000 0.44660  0.02040  0.46390  Biso   1.000  H
  C324     1.0000 0.10580  0.07290  0.28135  Biso   1.000  C
  O144     1.0000 0.31499  0.00505  0.39634  Biso   1.000  O
  Zn19     1.0000 0.72329  0.44460  0.37320  Biso   1.000  Zn
  O145     1.0000 0.77730  0.41182  0.35025  Biso   1.000  O
  C325     1.0000 0.81290  0.43870  0.33984  Biso   1.000  C
  O146     1.0000 0.94400  0.50263  0.27417  Biso   1.000  O
  O147     1.0000 0.82897  0.48403  0.34728  Biso   1.000  O
  C326     1.0000 0.68910  0.67670  0.46935  Biso   1.000  C
  O148     1.0000 0.66653  0.69525  0.48795  Biso   1.000  O
  N37      1.0000 0.54220  0.55683  0.45355  Biso   1.000  N
  O149     1.0000 0.75417  0.54599  0.40509  Biso   1.000  O
  C327     1.0000 0.70750  0.53210  0.40799  Biso   1.000  C
  O150     1.0000 0.73206  0.69538  0.46027  Biso   1.000  O
  C328     1.0000 0.87170  0.44697  0.30244  Biso   1.000  C
  H145     1.0000 0.87850  0.48240  0.30700  Biso   1.000  H
  N38      1.0000 0.84010  0.29140  0.28174  Biso   1.000  N
  C329     1.0000 0.88270  0.37508  0.27423  Biso   1.000  C
  H146     1.0000 0.89770  0.36060  0.25950  Biso   1.000  H
  C330     1.0000 0.62510  0.54398  0.43222  Biso   1.000  C
  H147     1.0000 0.61130  0.51320  0.42470  Biso   1.000  H
  C331     1.0000 0.61566  0.61477  0.46182  Biso   1.000  C
  H148     1.0000 0.59520  0.63220  0.47410  Biso   1.000  H
  C332     1.0000 0.93020  0.46030  0.26641  Biso   1.000  C
  C333     1.0000 0.82770  0.36447  0.31064  Biso   1.000  C
  H149     1.0000 0.80580  0.34270  0.32070  Biso   1.000  H
  C334     1.0000 0.66665  0.63151  0.45632  Biso   1.000  C
  C335     1.0000 0.83820  0.41568  0.31782  Biso   1.000  C
  O151     1.0000 0.94673  0.43919  0.24606  Biso   1.000  O
  C336     1.0000 0.69668  0.60365  0.43810  Biso   1.000  C
  H150     1.0000 0.73130  0.61480  0.43410  Biso   1.000  H
  C337     1.0000 0.84910  0.34525  0.28889  Biso   1.000  C
  C338     1.0000 0.67573  0.56130  0.42646  Biso   1.000  C
  C339     1.0000 0.59582  0.57210  0.44887  Biso   1.000  C
  C340     1.0000 0.82340  0.27710  0.25646  Biso   1.000  C
  H151     1.0000 0.81460  0.30000  0.24310  Biso   1.000  H
  C341     1.0000 0.53020  0.50770  0.46011  Biso   1.000  C
  H152     1.0000 0.55340  0.47960  0.46390  Biso   1.000  H
  C342     1.0000 0.89420  0.42710  0.28135  Biso   1.000  C
  O152     1.0000 0.68501  0.49495  0.39634  Biso   1.000  O
  Zn20     1.0000 0.22329  0.94460  0.87320  Biso   1.000  Zn
  O153     1.0000 0.27730  0.91182  0.85025  Biso   1.000  O
  C343     1.0000 0.31290  0.93870  0.83984  Biso   1.000  C
  O154     1.0000 0.44400  0.00263  0.77417  Biso   1.000  O
  O155     1.0000 0.32897  0.98403  0.84728  Biso   1.000  O
  C344     1.0000 0.18910  0.17670  0.96935  Biso   1.000  C
  O156     1.0000 0.16653  0.19525  0.98795  Biso   1.000  O
  N39      1.0000 0.04220  0.05683  0.95355  Biso   1.000  N
  O157     1.0000 0.25417  0.04599  0.90509  Biso   1.000  O
  C345     1.0000 0.20750  0.03210  0.90799  Biso   1.000  C
  O158     1.0000 0.23206  0.19538  0.96027  Biso   1.000  O
  C346     1.0000 0.37170  0.94697  0.80244  Biso   1.000  C
  H153     1.0000 0.37850  0.98240  0.80700  Biso   1.000  H
  N40      1.0000 0.34010  0.79140  0.78174  Biso   1.000  N
  C347     1.0000 0.38270  0.87508  0.77423  Biso   1.000  C
  H154     1.0000 0.39770  0.86060  0.75950  Biso   1.000  H
  C348     1.0000 0.12510  0.04398  0.93222  Biso   1.000  C
  H155     1.0000 0.11130  0.01320  0.92470  Biso   1.000  H
  C349     1.0000 0.11566  0.11477  0.96182  Biso   1.000  C
  H156     1.0000 0.09520  0.13220  0.97410  Biso   1.000  H
  C350     1.0000 0.43020  0.96030  0.76641  Biso   1.000  C
  C351     1.0000 0.32770  0.86447  0.81064  Biso   1.000  C
  H157     1.0000 0.30580  0.84270  0.82070  Biso   1.000  H
  C352     1.0000 0.16665  0.13151  0.95632  Biso   1.000  C
  C353     1.0000 0.33820  0.91568  0.81782  Biso   1.000  C
  O159     1.0000 0.44673  0.93919  0.74606  Biso   1.000  O
  C354     1.0000 0.19668  0.10365  0.93810  Biso   1.000  C
  H158     1.0000 0.23130  0.11480  0.93410  Biso   1.000  H
  C355     1.0000 0.34910  0.84525  0.78889  Biso   1.000  C
  C356     1.0000 0.17573  0.06130  0.92646  Biso   1.000  C
  C357     1.0000 0.09582  0.07210  0.94887  Biso   1.000  C
  C358     1.0000 0.32340  0.77710  0.75646  Biso   1.000  C
  H159     1.0000 0.31460  0.80000  0.74310  Biso   1.000  H
  C359     1.0000 0.03020  0.00770  0.96011  Biso   1.000  C
  H160     1.0000 0.05340  0.97960  0.96390  Biso   1.000  H
  C360     1.0000 0.39420  0.92710  0.78135  Biso   1.000  C
  O160     1.0000 0.18501  0.99495  0.89634  Biso   1.000  O
  Zn21     1.0000 0.19460  0.02671  0.62320  Biso   1.000  Zn
  O161     1.0000 0.16182  0.97270  0.60025  Biso   1.000  O
  C361     1.0000 0.18870  0.93710  0.58984  Biso   1.000  C
  O162     1.0000 0.25263  0.80600  0.52417  Biso   1.000  O
  O163     1.0000 0.23403  0.92103  0.59728  Biso   1.000  O
  C362     1.0000 0.42670  0.06090  0.71935  Biso   1.000  C
  O164     1.0000 0.44525  0.08347  0.73795  Biso   1.000  O
  N41      1.0000 0.30683  0.20780  0.70355  Biso   1.000  N
  O165     1.0000 0.29599  0.99583  0.65509  Biso   1.000  O
  C363     1.0000 0.28210  0.04250  0.65799  Biso   1.000  C
  O166     1.0000 0.44538  0.01794  0.71027  Biso   1.000  O
  C364     1.0000 0.19697  0.87830  0.55244  Biso   1.000  C
  H161     1.0000 0.23240  0.87150  0.55700  Biso   1.000  H
  N42      1.0000 0.04140  0.90990  0.53174  Biso   1.000  N
  C365     1.0000 0.12508  0.86730  0.52423  Biso   1.000  C
  H162     1.0000 0.11060  0.85230  0.50950  Biso   1.000  H
  C366     1.0000 0.29398  0.12490  0.68222  Biso   1.000  C
  H163     1.0000 0.26320  0.13870  0.67470  Biso   1.000  H
  C367     1.0000 0.36477  0.13434  0.71182  Biso   1.000  C
  H164     1.0000 0.38220  0.15480  0.72410  Biso   1.000  H
  C368     1.0000 0.21030  0.81980  0.51641  Biso   1.000  C
  C369     1.0000 0.11447  0.92230  0.56064  Biso   1.000  C
  H165     1.0000 0.09270  0.94420  0.57070  Biso   1.000  H
  C370     1.0000 0.38151  0.08335  0.70632  Biso   1.000  C
  C371     1.0000 0.16568  0.91180  0.56782  Biso   1.000  C
  O167     1.0000 0.18919  0.80327  0.49606  Biso   1.000  O
  C372     1.0000 0.35365  0.05332  0.68810  Biso   1.000  C
  H166     1.0000 0.36480  0.01870  0.68410  Biso   1.000  H
  C373     1.0000 0.09525  0.90090  0.53889  Biso   1.000  C
  C374     1.0000 0.31130  0.07427  0.67646  Biso   1.000  C
  C375     1.0000 0.32210  0.15418  0.69887  Biso   1.000  C
  C376     1.0000 0.02710  0.92660  0.50646  Biso   1.000  C
  H167     1.0000 0.05000  0.93540  0.49310  Biso   1.000  H
  C377     1.0000 0.25770  0.21980  0.71011  Biso   1.000  C
  H168     1.0000 0.22960  0.19660  0.71390  Biso   1.000  H
  C378     1.0000 0.17710  0.85580  0.53135  Biso   1.000  C
  O168     1.0000 0.24495  0.06499  0.64634  Biso   1.000  O
  Zn22     1.0000 0.69460  0.52671  0.12320  Biso   1.000  Zn
  O169     1.0000 0.66182  0.47270  0.10025  Biso   1.000  O
  C379     1.0000 0.68870  0.43710  0.08984  Biso   1.000  C
  O170     1.0000 0.75263  0.30600  0.02417  Biso   1.000  O
  O171     1.0000 0.73403  0.42103  0.09728  Biso   1.000  O
  C380     1.0000 0.92670  0.56090  0.21935  Biso   1.000  C
  O172     1.0000 0.94525  0.58347  0.23795  Biso   1.000  O
  N43      1.0000 0.80683  0.70780  0.20355  Biso   1.000  N
  O173     1.0000 0.79599  0.49583  0.15509  Biso   1.000  O
  C381     1.0000 0.78210  0.54250  0.15799  Biso   1.000  C
  O174     1.0000 0.94538  0.51794  0.21027  Biso   1.000  O
  C382     1.0000 0.69697  0.37830  0.05244  Biso   1.000  C
  H169     1.0000 0.73240  0.37150  0.05700  Biso   1.000  H
  N44      1.0000 0.54140  0.40990  0.03174  Biso   1.000  N
  C383     1.0000 0.62508  0.36730  0.02423  Biso   1.000  C
  H170     1.0000 0.61060  0.35230  0.00950  Biso   1.000  H
  C384     1.0000 0.79398  0.62490  0.18222  Biso   1.000  C
  H171     1.0000 0.76320  0.63870  0.17470  Biso   1.000  H
  C385     1.0000 0.86477  0.63434  0.21182  Biso   1.000  C
  H172     1.0000 0.88220  0.65480  0.22410  Biso   1.000  H
  C386     1.0000 0.71030  0.31980  0.01641  Biso   1.000  C
  C387     1.0000 0.61447  0.42230  0.06064  Biso   1.000  C
  H173     1.0000 0.59270  0.44420  0.07070  Biso   1.000  H
  C388     1.0000 0.88151  0.58335  0.20632  Biso   1.000  C
  C389     1.0000 0.66568  0.41180  0.06782  Biso   1.000  C
  O175     1.0000 0.68919  0.30327  0.99606  Biso   1.000  O
  C390     1.0000 0.85365  0.55332  0.18810  Biso   1.000  C
  H174     1.0000 0.86480  0.51870  0.18410  Biso   1.000  H
  C391     1.0000 0.59525  0.40090  0.03889  Biso   1.000  C
  C392     1.0000 0.81130  0.57427  0.17646  Biso   1.000  C
  C393     1.0000 0.82210  0.65418  0.19887  Biso   1.000  C
  C394     1.0000 0.52710  0.42660  0.00646  Biso   1.000  C
  H175     1.0000 0.55000  0.43540  0.99310  Biso   1.000  H
  C395     1.0000 0.75770  0.71980  0.21011  Biso   1.000  C
  H176     1.0000 0.72960  0.69660  0.21390  Biso   1.000  H
  C396     1.0000 0.67710  0.35580  0.03135  Biso   1.000  C
  O176     1.0000 0.74495  0.56499  0.14634  Biso   1.000  O
  Zn23     1.0000 0.30540  0.97329  0.12320  Biso   1.000  Zn
  O177     1.0000 0.33818  0.02730  0.10025  Biso   1.000  O
  C397     1.0000 0.31130  0.06290  0.08984  Biso   1.000  C
  O178     1.0000 0.24737  0.19400  0.02417  Biso   1.000  O
  O179     1.0000 0.26597  0.07897  0.09728  Biso   1.000  O
  C398     1.0000 0.07330  0.93910  0.21935  Biso   1.000  C
  O180     1.0000 0.05475  0.91653  0.23795  Biso   1.000  O
  N45      1.0000 0.19317  0.79220  0.20355  Biso   1.000  N
  O181     1.0000 0.20401  0.00417  0.15509  Biso   1.000  O
  C399     1.0000 0.21790  0.95750  0.15799  Biso   1.000  C
  O182     1.0000 0.05462  0.98206  0.21027  Biso   1.000  O
  C400     1.0000 0.30303  0.12170  0.05244  Biso   1.000  C
  H177     1.0000 0.26760  0.12850  0.05700  Biso   1.000  H
  N46      1.0000 0.45860  0.09010  0.03174  Biso   1.000  N
  C401     1.0000 0.37492  0.13270  0.02423  Biso   1.000  C
  H178     1.0000 0.38940  0.14770  0.00950  Biso   1.000  H
  C402     1.0000 0.20602  0.87510  0.18222  Biso   1.000  C
  H179     1.0000 0.23680  0.86130  0.17470  Biso   1.000  H
  C403     1.0000 0.13523  0.86566  0.21182  Biso   1.000  C
  H180     1.0000 0.11780  0.84520  0.22410  Biso   1.000  H
  C404     1.0000 0.28970  0.18020  0.01641  Biso   1.000  C
  C405     1.0000 0.38553  0.07770  0.06064  Biso   1.000  C
  H181     1.0000 0.40730  0.05580  0.07070  Biso   1.000  H
  C406     1.0000 0.11849  0.91665  0.20632  Biso   1.000  C
  C407     1.0000 0.33432  0.08820  0.06782  Biso   1.000  C
  O183     1.0000 0.31081  0.19673  0.99606  Biso   1.000  O
  C408     1.0000 0.14635  0.94668  0.18810  Biso   1.000  C
  H182     1.0000 0.13520  0.98130  0.18410  Biso   1.000  H
  C409     1.0000 0.40475  0.09910  0.03889  Biso   1.000  C
  C410     1.0000 0.18870  0.92573  0.17646  Biso   1.000  C
  C411     1.0000 0.17790  0.84582  0.19887  Biso   1.000  C
  C412     1.0000 0.47290  0.07340  0.00646  Biso   1.000  C
  H183     1.0000 0.45000  0.06460  0.99310  Biso   1.000  H
  C413     1.0000 0.24230  0.78020  0.21011  Biso   1.000  C
  H184     1.0000 0.27040  0.80340  0.21390  Biso   1.000  H
  C414     1.0000 0.32290  0.14420  0.03135  Biso   1.000  C
  O184     1.0000 0.25505  0.93501  0.14634  Biso   1.000  O
  Zn24     1.0000 0.80540  0.47329  0.62320  Biso   1.000  Zn
  O185     1.0000 0.83818  0.52730  0.60025  Biso   1.000  O
  C415     1.0000 0.81130  0.56290  0.58984  Biso   1.000  C
  O186     1.0000 0.74737  0.69400  0.52417  Biso   1.000  O
  O187     1.0000 0.76597  0.57897  0.59728  Biso   1.000  O
  C416     1.0000 0.57330  0.43910  0.71935  Biso   1.000  C
  O188     1.0000 0.55475  0.41653  0.73795  Biso   1.000  O
  N47      1.0000 0.69317  0.29220  0.70355  Biso   1.000  N
  O189     1.0000 0.70401  0.50417  0.65509  Biso   1.000  O
  C417     1.0000 0.71790  0.45750  0.65799  Biso   1.000  C
  O190     1.0000 0.55462  0.48206  0.71027  Biso   1.000  O
  C418     1.0000 0.80303  0.62170  0.55244  Biso   1.000  C
  H185     1.0000 0.76760  0.62850  0.55700  Biso   1.000  H
  N48      1.0000 0.95860  0.59010  0.53174  Biso   1.000  N
  C419     1.0000 0.87492  0.63270  0.52423  Biso   1.000  C
  H186     1.0000 0.88940  0.64770  0.50950  Biso   1.000  H
  C420     1.0000 0.70602  0.37510  0.68222  Biso   1.000  C
  H187     1.0000 0.73680  0.36130  0.67470  Biso   1.000  H
  C421     1.0000 0.63523  0.36566  0.71182  Biso   1.000  C
  H188     1.0000 0.61780  0.34520  0.72410  Biso   1.000  H
  C422     1.0000 0.78970  0.68020  0.51641  Biso   1.000  C
  C423     1.0000 0.88553  0.57770  0.56064  Biso   1.000  C
  H189     1.0000 0.90730  0.55580  0.57070  Biso   1.000  H
  C424     1.0000 0.61849  0.41665  0.70632  Biso   1.000  C
  C425     1.0000 0.83432  0.58820  0.56782  Biso   1.000  C
  O191     1.0000 0.81081  0.69673  0.49606  Biso   1.000  O
  C426     1.0000 0.64635  0.44668  0.68810  Biso   1.000  C
  H190     1.0000 0.63520  0.48130  0.68410  Biso   1.000  H
  C427     1.0000 0.90475  0.59910  0.53889  Biso   1.000  C
  C428     1.0000 0.68870  0.42573  0.67646  Biso   1.000  C
  C429     1.0000 0.67790  0.34582  0.69887  Biso   1.000  C
  C430     1.0000 0.97290  0.57340  0.50646  Biso   1.000  C
  H191     1.0000 0.95000  0.56460  0.49310  Biso   1.000  H
  C431     1.0000 0.74230  0.28020  0.71011  Biso   1.000  C
  H192     1.0000 0.77040  0.30340  0.71390  Biso   1.000  H
  C432     1.0000 0.82290  0.64420  0.53135  Biso   1.000  C
  O192     1.0000 0.75505  0.43501  0.64634  Biso   1.000  O
  Zn25     1.0000 0.72329  0.55540  0.62680  Biso   1.000  Zn
  O193     1.0000 0.77730  0.58818  0.64975  Biso   1.000  O
  C433     1.0000 0.81290  0.56130  0.66016  Biso   1.000  C
  O194     1.0000 0.94400  0.49737  0.72583  Biso   1.000  O
  O195     1.0000 0.82897  0.51597  0.65272  Biso   1.000  O
  C434     1.0000 0.68910  0.32330  0.53065  Biso   1.000  C
  O196     1.0000 0.66653  0.30475  0.51205  Biso   1.000  O
  N49      1.0000 0.54220  0.44317  0.54645  Biso   1.000  N
  O197     1.0000 0.75417  0.45401  0.59491  Biso   1.000  O
  C435     1.0000 0.70750  0.46790  0.59201  Biso   1.000  C
  O198     1.0000 0.73206  0.30462  0.53973  Biso   1.000  O
  C436     1.0000 0.87170  0.55303  0.69756  Biso   1.000  C
  H193     1.0000 0.87850  0.51760  0.69300  Biso   1.000  H
  N50      1.0000 0.84010  0.70860  0.71826  Biso   1.000  N
  C437     1.0000 0.88270  0.62492  0.72577  Biso   1.000  C
  H194     1.0000 0.89770  0.63940  0.74050  Biso   1.000  H
  C438     1.0000 0.62510  0.45602  0.56778  Biso   1.000  C
  H195     1.0000 0.61130  0.48680  0.57530  Biso   1.000  H
  C439     1.0000 0.61566  0.38523  0.53818  Biso   1.000  C
  H196     1.0000 0.59520  0.36780  0.52590  Biso   1.000  H
  C440     1.0000 0.93020  0.53970  0.73359  Biso   1.000  C
  C441     1.0000 0.82770  0.63553  0.68936  Biso   1.000  C
  H197     1.0000 0.80580  0.65730  0.67930  Biso   1.000  H
  C442     1.0000 0.66665  0.36849  0.54368  Biso   1.000  C
  C443     1.0000 0.83820  0.58432  0.68218  Biso   1.000  C
  O199     1.0000 0.94673  0.56081  0.75394  Biso   1.000  O
  C444     1.0000 0.69668  0.39635  0.56190  Biso   1.000  C
  H198     1.0000 0.73130  0.38520  0.56590  Biso   1.000  H
  C445     1.0000 0.84910  0.65475  0.71111  Biso   1.000  C
  C446     1.0000 0.67573  0.43870  0.57354  Biso   1.000  C
  C447     1.0000 0.59582  0.42790  0.55113  Biso   1.000  C
  C448     1.0000 0.82340  0.72290  0.74354  Biso   1.000  C
  H199     1.0000 0.81460  0.70000  0.75690  Biso   1.000  H
  C449     1.0000 0.53020  0.49230  0.53989  Biso   1.000  C
  H200     1.0000 0.55340  0.52040  0.53610  Biso   1.000  H
  C450     1.0000 0.89420  0.57290  0.71865  Biso   1.000  C
  O200     1.0000 0.68501  0.50505  0.60366  Biso   1.000  O
  Zn26     1.0000 0.22329  0.05540  0.12680  Biso   1.000  Zn
  O201     1.0000 0.27730  0.08818  0.14975  Biso   1.000  O
  C451     1.0000 0.31290  0.06130  0.16016  Biso   1.000  C
  O202     1.0000 0.44400  0.99737  0.22583  Biso   1.000  O
  O203     1.0000 0.32897  0.01597  0.15272  Biso   1.000  O
  C452     1.0000 0.18910  0.82330  0.03065  Biso   1.000  C
  O204     1.0000 0.16653  0.80475  0.01205  Biso   1.000  O
  N51      1.0000 0.04220  0.94317  0.04645  Biso   1.000  N
  O205     1.0000 0.25417  0.95401  0.09491  Biso   1.000  O
  C453     1.0000 0.20750  0.96790  0.09201  Biso   1.000  C
  O206     1.0000 0.23206  0.80462  0.03973  Biso   1.000  O
  C454     1.0000 0.37170  0.05303  0.19756  Biso   1.000  C
  H201     1.0000 0.37850  0.01760  0.19300  Biso   1.000  H
  N52      1.0000 0.34010  0.20860  0.21826  Biso   1.000  N
  C455     1.0000 0.38270  0.12492  0.22577  Biso   1.000  C
  H202     1.0000 0.39770  0.13940  0.24050  Biso   1.000  H
  C456     1.0000 0.12510  0.95602  0.06778  Biso   1.000  C
  H203     1.0000 0.11130  0.98680  0.07530  Biso   1.000  H
  C457     1.0000 0.11566  0.88523  0.03818  Biso   1.000  C
  H204     1.0000 0.09520  0.86780  0.02590  Biso   1.000  H
  C458     1.0000 0.43020  0.03970  0.23359  Biso   1.000  C
  C459     1.0000 0.32770  0.13553  0.18936  Biso   1.000  C
  H205     1.0000 0.30580  0.15730  0.17930  Biso   1.000  H
  C460     1.0000 0.16665  0.86849  0.04368  Biso   1.000  C
  C461     1.0000 0.33820  0.08432  0.18218  Biso   1.000  C
  O207     1.0000 0.44673  0.06081  0.25394  Biso   1.000  O
  C462     1.0000 0.19668  0.89635  0.06190  Biso   1.000  C
  H206     1.0000 0.23130  0.88520  0.06590  Biso   1.000  H
  C463     1.0000 0.34910  0.15475  0.21111  Biso   1.000  C
  C464     1.0000 0.17573  0.93870  0.07354  Biso   1.000  C
  C465     1.0000 0.09582  0.92790  0.05113  Biso   1.000  C
  C466     1.0000 0.32340  0.22290  0.24354  Biso   1.000  C
  H207     1.0000 0.31460  0.20000  0.25690  Biso   1.000  H
  C467     1.0000 0.03020  0.99230  0.03989  Biso   1.000  C
  H208     1.0000 0.05340  0.02040  0.03610  Biso   1.000  H
  C468     1.0000 0.39420  0.07290  0.21865  Biso   1.000  C
  O208     1.0000 0.18501  0.00505  0.10366  Biso   1.000  O
  Zn27     1.0000 0.77671  0.44460  0.12680  Biso   1.000  Zn
  O209     1.0000 0.72270  0.41182  0.14975  Biso   1.000  O
  C469     1.0000 0.68710  0.43870  0.16016  Biso   1.000  C
  O210     1.0000 0.55600  0.50263  0.22583  Biso   1.000  O
  O211     1.0000 0.67103  0.48403  0.15272  Biso   1.000  O
  C470     1.0000 0.81090  0.67670  0.03065  Biso   1.000  C
  O212     1.0000 0.83347  0.69525  0.01205  Biso   1.000  O
  N53      1.0000 0.95780  0.55683  0.04645  Biso   1.000  N
  O213     1.0000 0.74583  0.54599  0.09491  Biso   1.000  O
  C471     1.0000 0.79250  0.53210  0.09201  Biso   1.000  C
  O214     1.0000 0.76794  0.69538  0.03973  Biso   1.000  O
  C472     1.0000 0.62830  0.44697  0.19756  Biso   1.000  C
  H209     1.0000 0.62150  0.48240  0.19300  Biso   1.000  H
  N54      1.0000 0.65990  0.29140  0.21826  Biso   1.000  N
  C473     1.0000 0.61730  0.37508  0.22577  Biso   1.000  C
  H210     1.0000 0.60230  0.36060  0.24050  Biso   1.000  H
  C474     1.0000 0.87490  0.54398  0.06778  Biso   1.000  C
  H211     1.0000 0.88870  0.51320  0.07530  Biso   1.000  H
  C475     1.0000 0.88434  0.61477  0.03818  Biso   1.000  C
  H212     1.0000 0.90480  0.63220  0.02590  Biso   1.000  H
  C476     1.0000 0.56980  0.46030  0.23359  Biso   1.000  C
  C477     1.0000 0.67230  0.36447  0.18936  Biso   1.000  C
  H213     1.0000 0.69420  0.34270  0.17930  Biso   1.000  H
  C478     1.0000 0.83335  0.63151  0.04368  Biso   1.000  C
  C479     1.0000 0.66180  0.41568  0.18218  Biso   1.000  C
  O215     1.0000 0.55327  0.43919  0.25394  Biso   1.000  O
  C480     1.0000 0.80332  0.60365  0.06190  Biso   1.000  C
  H214     1.0000 0.76870  0.61480  0.06590  Biso   1.000  H
  C481     1.0000 0.65090  0.34525  0.21111  Biso   1.000  C
  C482     1.0000 0.82427  0.56130  0.07354  Biso   1.000  C
  C483     1.0000 0.90418  0.57210  0.05113  Biso   1.000  C
  C484     1.0000 0.67660  0.27710  0.24354  Biso   1.000  C
  H215     1.0000 0.68540  0.30000  0.25690  Biso   1.000  H
  C485     1.0000 0.96980  0.50770  0.03989  Biso   1.000  C
  H216     1.0000 0.94660  0.47960  0.03610  Biso   1.000  H
  C486     1.0000 0.60580  0.42710  0.21865  Biso   1.000  C
  O216     1.0000 0.81499  0.49495  0.10366  Biso   1.000  O
  Zn28     1.0000 0.27671  0.94460  0.62680  Biso   1.000  Zn
  O217     1.0000 0.22270  0.91182  0.64975  Biso   1.000  O
  C487     1.0000 0.18710  0.93870  0.66016  Biso   1.000  C
  O218     1.0000 0.05600  0.00263  0.72583  Biso   1.000  O
  O219     1.0000 0.17103  0.98403  0.65272  Biso   1.000  O
  C488     1.0000 0.31090  0.17670  0.53065  Biso   1.000  C
  O220     1.0000 0.33347  0.19525  0.51205  Biso   1.000  O
  N55      1.0000 0.45780  0.05683  0.54645  Biso   1.000  N
  O221     1.0000 0.24583  0.04599  0.59491  Biso   1.000  O
  C489     1.0000 0.29250  0.03210  0.59201  Biso   1.000  C
  O222     1.0000 0.26794  0.19538  0.53973  Biso   1.000  O
  C490     1.0000 0.12830  0.94697  0.69756  Biso   1.000  C
  H217     1.0000 0.12150  0.98240  0.69300  Biso   1.000  H
  N56      1.0000 0.15990  0.79140  0.71826  Biso   1.000  N
  C491     1.0000 0.11730  0.87508  0.72577  Biso   1.000  C
  H218     1.0000 0.10230  0.86060  0.74050  Biso   1.000  H
  C492     1.0000 0.37490  0.04398  0.56778  Biso   1.000  C
  H219     1.0000 0.38870  0.01320  0.57530  Biso   1.000  H
  C493     1.0000 0.38434  0.11477  0.53818  Biso   1.000  C
  H220     1.0000 0.40480  0.13220  0.52590  Biso   1.000  H
  C494     1.0000 0.06980  0.96030  0.73359  Biso   1.000  C
  C495     1.0000 0.17230  0.86447  0.68936  Biso   1.000  C
  H221     1.0000 0.19420  0.84270  0.67930  Biso   1.000  H
  C496     1.0000 0.33335  0.13151  0.54368  Biso   1.000  C
  C497     1.0000 0.16180  0.91568  0.68218  Biso   1.000  C
  O223     1.0000 0.05327  0.93919  0.75394  Biso   1.000  O
  C498     1.0000 0.30332  0.10365  0.56190  Biso   1.000  C
  H222     1.0000 0.26870  0.11480  0.56590  Biso   1.000  H
  C499     1.0000 0.15090  0.84525  0.71111  Biso   1.000  C
  C500     1.0000 0.32427  0.06130  0.57354  Biso   1.000  C
  C501     1.0000 0.40418  0.07210  0.55113  Biso   1.000  C
  C502     1.0000 0.17660  0.77710  0.74354  Biso   1.000  C
  H223     1.0000 0.18540  0.80000  0.75690  Biso   1.000  H
  C503     1.0000 0.46980  0.00770  0.53989  Biso   1.000  C
  H224     1.0000 0.44660  0.97960  0.53610  Biso   1.000  H
  C504     1.0000 0.10580  0.92710  0.71865  Biso   1.000  C
  O224     1.0000 0.31499  0.99495  0.60366  Biso   1.000  O
  Zn29     1.0000 0.30540  0.02671  0.87680  Biso   1.000  Zn
  O225     1.0000 0.33818  0.97270  0.89975  Biso   1.000  O
  C505     1.0000 0.31130  0.93710  0.91016  Biso   1.000  C
  O226     1.0000 0.24737  0.80600  0.97583  Biso   1.000  O
  O227     1.0000 0.26597  0.92103  0.90272  Biso   1.000  O
  C506     1.0000 0.07330  0.06090  0.78065  Biso   1.000  C
  O228     1.0000 0.05475  0.08347  0.76205  Biso   1.000  O
  N57      1.0000 0.19317  0.20780  0.79645  Biso   1.000  N
  O229     1.0000 0.20401  0.99583  0.84491  Biso   1.000  O
  C507     1.0000 0.21790  0.04250  0.84201  Biso   1.000  C
  O230     1.0000 0.05462  0.01794  0.78973  Biso   1.000  O
  C508     1.0000 0.30303  0.87830  0.94756  Biso   1.000  C
  H225     1.0000 0.26760  0.87150  0.94300  Biso   1.000  H
  N58      1.0000 0.45860  0.90990  0.96826  Biso   1.000  N
  C509     1.0000 0.37492  0.86730  0.97577  Biso   1.000  C
  H226     1.0000 0.38940  0.85230  0.99050  Biso   1.000  H
  C510     1.0000 0.20602  0.12490  0.81778  Biso   1.000  C
  H227     1.0000 0.23680  0.13870  0.82530  Biso   1.000  H
  C511     1.0000 0.13523  0.13434  0.78818  Biso   1.000  C
  H228     1.0000 0.11780  0.15480  0.77590  Biso   1.000  H
  C512     1.0000 0.28970  0.81980  0.98359  Biso   1.000  C
  C513     1.0000 0.38553  0.92230  0.93936  Biso   1.000  C
  H229     1.0000 0.40730  0.94420  0.92930  Biso   1.000  H
  C514     1.0000 0.11849  0.08335  0.79368  Biso   1.000  C
  C515     1.0000 0.33432  0.91180  0.93218  Biso   1.000  C
  O231     1.0000 0.31081  0.80327  0.00394  Biso   1.000  O
  C516     1.0000 0.14635  0.05332  0.81190  Biso   1.000  C
  H230     1.0000 0.13520  0.01870  0.81590  Biso   1.000  H
  C517     1.0000 0.40475  0.90090  0.96111  Biso   1.000  C
  C518     1.0000 0.18870  0.07427  0.82354  Biso   1.000  C
  C519     1.0000 0.17790  0.15418  0.80113  Biso   1.000  C
  C520     1.0000 0.47290  0.92660  0.99354  Biso   1.000  C
  H231     1.0000 0.45000  0.93540  0.00690  Biso   1.000  H
  C521     1.0000 0.24230  0.21980  0.78989  Biso   1.000  C
  H232     1.0000 0.27040  0.19660  0.78610  Biso   1.000  H
  C522     1.0000 0.32290  0.85580  0.96865  Biso   1.000  C
  O232     1.0000 0.25505  0.06499  0.85366  Biso   1.000  O
  Zn30     1.0000 0.80540  0.52671  0.37680  Biso   1.000  Zn
  O233     1.0000 0.83818  0.47270  0.39975  Biso   1.000  O
  C523     1.0000 0.81130  0.43710  0.41016  Biso   1.000  C
  O234     1.0000 0.74737  0.30600  0.47583  Biso   1.000  O
  O235     1.0000 0.76597  0.42103  0.40272  Biso   1.000  O
  C524     1.0000 0.57330  0.56090  0.28065  Biso   1.000  C
  O236     1.0000 0.55475  0.58347  0.26205  Biso   1.000  O
  N59      1.0000 0.69317  0.70780  0.29645  Biso   1.000  N
  O237     1.0000 0.70401  0.49583  0.34491  Biso   1.000  O
  C525     1.0000 0.71790  0.54250  0.34201  Biso   1.000  C
  O238     1.0000 0.55462  0.51794  0.28973  Biso   1.000  O
  C526     1.0000 0.80303  0.37830  0.44756  Biso   1.000  C
  H233     1.0000 0.76760  0.37150  0.44300  Biso   1.000  H
  N60      1.0000 0.95860  0.40990  0.46826  Biso   1.000  N
  C527     1.0000 0.87492  0.36730  0.47577  Biso   1.000  C
  H234     1.0000 0.88940  0.35230  0.49050  Biso   1.000  H
  C528     1.0000 0.70602  0.62490  0.31778  Biso   1.000  C
  H235     1.0000 0.73680  0.63870  0.32530  Biso   1.000  H
  C529     1.0000 0.63523  0.63434  0.28818  Biso   1.000  C
  H236     1.0000 0.61780  0.65480  0.27590  Biso   1.000  H
  C530     1.0000 0.78970  0.31980  0.48359  Biso   1.000  C
  C531     1.0000 0.88553  0.42230  0.43936  Biso   1.000  C
  H237     1.0000 0.90730  0.44420  0.42930  Biso   1.000  H
  C532     1.0000 0.61849  0.58335  0.29368  Biso   1.000  C
  C533     1.0000 0.83432  0.41180  0.43218  Biso   1.000  C
  O239     1.0000 0.81081  0.30327  0.50394  Biso   1.000  O
  C534     1.0000 0.64635  0.55332  0.31190  Biso   1.000  C
  H238     1.0000 0.63520  0.51870  0.31590  Biso   1.000  H
  C535     1.0000 0.90475  0.40090  0.46111  Biso   1.000  C
  C536     1.0000 0.68870  0.57427  0.32354  Biso   1.000  C
  C537     1.0000 0.67790  0.65418  0.30113  Biso   1.000  C
  C538     1.0000 0.97290  0.42660  0.49354  Biso   1.000  C
  H239     1.0000 0.95000  0.43540  0.50690  Biso   1.000  H
  C539     1.0000 0.74230  0.71980  0.28989  Biso   1.000  C
  H240     1.0000 0.77040  0.69660  0.28610  Biso   1.000  H
  C540     1.0000 0.82290  0.35580  0.46865  Biso   1.000  C
  O240     1.0000 0.75505  0.56499  0.35366  Biso   1.000  O
  Zn31     1.0000 0.19460  0.97329  0.37680  Biso   1.000  Zn
  O241     1.0000 0.16182  0.02730  0.39975  Biso   1.000  O
  C541     1.0000 0.18870  0.06290  0.41016  Biso   1.000  C
  O242     1.0000 0.25263  0.19400  0.47583  Biso   1.000  O
  O243     1.0000 0.23403  0.07897  0.40272  Biso   1.000  O
  C542     1.0000 0.42670  0.93910  0.28065  Biso   1.000  C
  O244     1.0000 0.44525  0.91653  0.26205  Biso   1.000  O
  N61      1.0000 0.30683  0.79220  0.29645  Biso   1.000  N
  O245     1.0000 0.29599  0.00417  0.34491  Biso   1.000  O
  C543     1.0000 0.28210  0.95750  0.34201  Biso   1.000  C
  O246     1.0000 0.44538  0.98206  0.28973  Biso   1.000  O
  C544     1.0000 0.19697  0.12170  0.44756  Biso   1.000  C
  H241     1.0000 0.23240  0.12850  0.44300  Biso   1.000  H
  N62      1.0000 0.04140  0.09010  0.46826  Biso   1.000  N
  C545     1.0000 0.12508  0.13270  0.47577  Biso   1.000  C
  H242     1.0000 0.11060  0.14770  0.49050  Biso   1.000  H
  C546     1.0000 0.29398  0.87510  0.31778  Biso   1.000  C
  H243     1.0000 0.26320  0.86130  0.32530  Biso   1.000  H
  C547     1.0000 0.36477  0.86566  0.28818  Biso   1.000  C
  H244     1.0000 0.38220  0.84520  0.27590  Biso   1.000  H
  C548     1.0000 0.21030  0.18020  0.48359  Biso   1.000  C
  C549     1.0000 0.11447  0.07770  0.43936  Biso   1.000  C
  H245     1.0000 0.09270  0.05580  0.42930  Biso   1.000  H
  C550     1.0000 0.38151  0.91665  0.29368  Biso   1.000  C
  C551     1.0000 0.16568  0.08820  0.43218  Biso   1.000  C
  O247     1.0000 0.18919  0.19673  0.50394  Biso   1.000  O
  C552     1.0000 0.35365  0.94668  0.31190  Biso   1.000  C
  H246     1.0000 0.36480  0.98130  0.31590  Biso   1.000  H
  C553     1.0000 0.09525  0.09910  0.46111  Biso   1.000  C
  C554     1.0000 0.31130  0.92573  0.32354  Biso   1.000  C
  C555     1.0000 0.32210  0.84582  0.30113  Biso   1.000  C
  C556     1.0000 0.02710  0.07340  0.49354  Biso   1.000  C
  H247     1.0000 0.05000  0.06460  0.50690  Biso   1.000  H
  C557     1.0000 0.25770  0.78020  0.28989  Biso   1.000  C
  H248     1.0000 0.22960  0.80340  0.28610  Biso   1.000  H
  C558     1.0000 0.17710  0.14420  0.46865  Biso   1.000  C
  O248     1.0000 0.24495  0.93501  0.35366  Biso   1.000  O
  Zn32     1.0000 0.69460  0.47329  0.87680  Biso   1.000  Zn
  O249     1.0000 0.66182  0.52730  0.89975  Biso   1.000  O
  C559     1.0000 0.68870  0.56290  0.91016  Biso   1.000  C
  O250     1.0000 0.75263  0.69400  0.97583  Biso   1.000  O
  O251     1.0000 0.73403  0.57897  0.90272  Biso   1.000  O
  C560     1.0000 0.92670  0.43910  0.78065  Biso   1.000  C
  O252     1.0000 0.94525  0.41653  0.76205  Biso   1.000  O
  N63      1.0000 0.80683  0.29220  0.79645  Biso   1.000  N
  O253     1.0000 0.79599  0.50417  0.84491  Biso   1.000  O
  C561     1.0000 0.78210  0.45750  0.84201  Biso   1.000  C
  O254     1.0000 0.94538  0.48206  0.78973  Biso   1.000  O
  C562     1.0000 0.69697  0.62170  0.94756  Biso   1.000  C
  H249     1.0000 0.73240  0.62850  0.94300  Biso   1.000  H
  N64      1.0000 0.54140  0.59010  0.96826  Biso   1.000  N
  C563     1.0000 0.62508  0.63270  0.97577  Biso   1.000  C
  H250     1.0000 0.61060  0.64770  0.99050  Biso   1.000  H
  C564     1.0000 0.79398  0.37510  0.81778  Biso   1.000  C
  H251     1.0000 0.76320  0.36130  0.82530  Biso   1.000  H
  C565     1.0000 0.86477  0.36566  0.78818  Biso   1.000  C
  H252     1.0000 0.88220  0.34520  0.77590  Biso   1.000  H
  C566     1.0000 0.71030  0.68020  0.98359  Biso   1.000  C
  C567     1.0000 0.61447  0.57770  0.93936  Biso   1.000  C
  H253     1.0000 0.59270  0.55580  0.92930  Biso   1.000  H
  C568     1.0000 0.88151  0.41665  0.79368  Biso   1.000  C
  C569     1.0000 0.66568  0.58820  0.93218  Biso   1.000  C
  O255     1.0000 0.68919  0.69673  0.00394  Biso   1.000  O
  C570     1.0000 0.85365  0.44668  0.81190  Biso   1.000  C
  H254     1.0000 0.86480  0.48130  0.81590  Biso   1.000  H
  C571     1.0000 0.59525  0.59910  0.96111  Biso   1.000  C
  C572     1.0000 0.81130  0.42573  0.82354  Biso   1.000  C
  C573     1.0000 0.82210  0.34582  0.80113  Biso   1.000  C
  C574     1.0000 0.52710  0.57340  0.99354  Biso   1.000  C
  H255     1.0000 0.55000  0.56460  0.00690  Biso   1.000  H
  C575     1.0000 0.75770  0.28020  0.78989  Biso   1.000  C
  H256     1.0000 0.72960  0.30340  0.78610  Biso   1.000  H
  C576     1.0000 0.67710  0.64420  0.96865  Biso   1.000  C
  O256     1.0000 0.74495  0.43501  0.85366  Biso   1.000  O
  Zn33     1.0000 0.28215  0.75000  0.02747  Biso   1.000  Zn
  Zn34     1.0000 0.19680  0.75000  0.98908  Biso   1.000  Zn
  Zn35     1.0000 0.21785  0.25000  0.52747  Biso   1.000  Zn
  Zn36     1.0000 0.30320  0.25000  0.48908  Biso   1.000  Zn
  Zn37     1.0000 0.50000  0.03215  0.27747  Biso   1.000  Zn
  Zn38     1.0000 0.50000  0.94680  0.23908  Biso   1.000  Zn
  Zn39     1.0000 0.00000  0.53215  0.77747  Biso   1.000  Zn
  Zn40     1.0000 0.00000  0.44680  0.73908  Biso   1.000  Zn
  Zn41     1.0000 0.00000  0.96785  0.77747  Biso   1.000  Zn
  Zn42     1.0000 0.00000  0.05320  0.73908  Biso   1.000  Zn
  Zn43     1.0000 0.50000  0.46785  0.27747  Biso   1.000  Zn
  Zn44     1.0000 0.50000  0.55320  0.23908  Biso   1.000  Zn
  Zn45     1.0000 0.21785  0.75000  0.47253  Biso   1.000  Zn
  Zn46     1.0000 0.30320  0.75000  0.51092  Biso   1.000  Zn
  Zn47     1.0000 0.28215  0.25000  0.97253  Biso   1.000  Zn
  Zn48     1.0000 0.19680  0.25000  0.01092  Biso   1.000  Zn
  Zn49     1.0000 0.00000  0.03215  0.22253  Biso   1.000  Zn
  Zn50     1.0000 0.00000  0.94680  0.26092  Biso   1.000  Zn
  Zn51     1.0000 0.50000  0.53215  0.72253  Biso   1.000  Zn
  Zn52     1.0000 0.50000  0.44680  0.76092  Biso   1.000  Zn
  Zn53     1.0000 0.50000  0.96785  0.72253  Biso   1.000  Zn
  Zn54     1.0000 0.50000  0.05320  0.76092  Biso   1.000  Zn
  Zn55     1.0000 0.00000  0.46785  0.22253  Biso   1.000  Zn
  Zn56     1.0000 0.00000  0.55320  0.26092  Biso   1.000  Zn
  Zn57     1.0000 0.71785  0.25000  0.97253  Biso   1.000  Zn
  Zn58     1.0000 0.80320  0.25000  0.01092  Biso   1.000  Zn
  Zn59     1.0000 0.78215  0.75000  0.47253  Biso   1.000  Zn
  Zn60     1.0000 0.69680  0.75000  0.51092  Biso   1.000  Zn
  Zn61     1.0000 0.78215  0.25000  0.52747  Biso   1.000  Zn
  Zn62     1.0000 0.69680  0.25000  0.48908  Biso   1.000  Zn
  Zn63     1.0000 0.71785  0.75000  0.02747  Biso   1.000  Zn
  Zn64     1.0000 0.80320  0.75000  0.98908  Biso   1.000  Zn
  C577     1.0000 0.34910  0.25000  0.20462  Biso   1.000  C
  H257     1.0000 0.36030  0.25000  0.18770  Biso   1.000  H
  C578     1.0000 0.15090  0.75000  0.70462  Biso   1.000  C
  H258     1.0000 0.13970  0.75000  0.68770  Biso   1.000  H
  C579     1.0000 0.00000  0.09910  0.45462  Biso   1.000  C
  H259     1.0000 0.00000  0.11030  0.43770  Biso   1.000  H
  C580     1.0000 0.50000  0.59910  0.95462  Biso   1.000  C
  H260     1.0000 0.50000  0.61030  0.93770  Biso   1.000  H
  C581     1.0000 0.50000  0.90090  0.95462  Biso   1.000  C
  H261     1.0000 0.50000  0.88970  0.93770  Biso   1.000  H
  C582     1.0000 0.00000  0.40090  0.45462  Biso   1.000  C
  H262     1.0000 0.00000  0.38970  0.43770  Biso   1.000  H
  C583     1.0000 0.15090  0.25000  0.29538  Biso   1.000  C
  H263     1.0000 0.13970  0.25000  0.31230  Biso   1.000  H
  C584     1.0000 0.34910  0.75000  0.79538  Biso   1.000  C
  H264     1.0000 0.36030  0.75000  0.81230  Biso   1.000  H
  C585     1.0000 0.84910  0.25000  0.29538  Biso   1.000  C
  H265     1.0000 0.86030  0.25000  0.31230  Biso   1.000  H
  C586     1.0000 0.50000  0.09910  0.04538  Biso   1.000  C
  H266     1.0000 0.50000  0.11030  0.06230  Biso   1.000  H
  C587     1.0000 0.00000  0.59910  0.54538  Biso   1.000  C
  H267     1.0000 0.00000  0.61030  0.56230  Biso   1.000  H
  C588     1.0000 0.00000  0.90090  0.54538  Biso   1.000  C
  H268     1.0000 0.00000  0.88970  0.56230  Biso   1.000  H
  C589     1.0000 0.50000  0.40090  0.04538  Biso   1.000  C
  H269     1.0000 0.50000  0.38970  0.06230  Biso   1.000  H
  C590     1.0000 0.65090  0.75000  0.79538  Biso   1.000  C
  H270     1.0000 0.63970  0.75000  0.81230  Biso   1.000  H
  C591     1.0000 0.84910  0.75000  0.70462  Biso   1.000  C
  H271     1.0000 0.86030  0.75000  0.68770  Biso   1.000  H
  C592     1.0000 0.65090  0.25000  0.20462  Biso   1.000  C
  H272     1.0000 0.63970  0.25000  0.18770  Biso   1.000  H
  C593     1.0000 0.00000  0.58350  0.04957  Biso   1.000  C
  H273     1.0000 0.00000  0.61980  0.05380  Biso   1.000  H
  C594     1.0000 0.50000  0.08350  0.54957  Biso   1.000  C
  H274     1.0000 0.50000  0.11980  0.55380  Biso   1.000  H
  C595     1.0000 0.50000  0.41650  0.54957  Biso   1.000  C
  H275     1.0000 0.50000  0.38020  0.55380  Biso   1.000  H
  C596     1.0000 0.00000  0.91650  0.04957  Biso   1.000  C
  H276     1.0000 0.00000  0.88020  0.05380  Biso   1.000  H
  C597     1.0000 0.66650  0.75000  0.29957  Biso   1.000  C
  H277     1.0000 0.63020  0.75000  0.30380  Biso   1.000  H
  C598     1.0000 0.83350  0.25000  0.79957  Biso   1.000  C
  H278     1.0000 0.86980  0.25000  0.80380  Biso   1.000  H
  C599     1.0000 0.50000  0.58350  0.45043  Biso   1.000  C
  H279     1.0000 0.50000  0.61980  0.44620  Biso   1.000  H
  C600     1.0000 0.00000  0.08350  0.95043  Biso   1.000  C
  H280     1.0000 0.00000  0.11980  0.94620  Biso   1.000  H
  C601     1.0000 0.00000  0.41650  0.95043  Biso   1.000  C
  H281     1.0000 0.00000  0.38020  0.94620  Biso   1.000  H
  C602     1.0000 0.50000  0.91650  0.45043  Biso   1.000  C
  H282     1.0000 0.50000  0.88020  0.44620  Biso   1.000  H
  C603     1.0000 0.83350  0.75000  0.20043  Biso   1.000  C
  H283     1.0000 0.86980  0.75000  0.19620  Biso   1.000  H
  C604     1.0000 0.66650  0.25000  0.70043  Biso   1.000  C
  H284     1.0000 0.63020  0.25000  0.69620  Biso   1.000  H
  C605     1.0000 0.33350  0.25000  0.70043  Biso   1.000  C
  H285     1.0000 0.36980  0.25000  0.69620  Biso   1.000  H
  C606     1.0000 0.16650  0.75000  0.20043  Biso   1.000  C
  H286     1.0000 0.13020  0.75000  0.19620  Biso   1.000  H
  C607     1.0000 0.16650  0.25000  0.79957  Biso   1.000  C
  H287     1.0000 0.13020  0.25000  0.80380  Biso   1.000  H
  C608     1.0000 0.33350  0.75000  0.29957  Biso   1.000  C
  H288     1.0000 0.36980  0.75000  0.30380  Biso   1.000  H
