data_image0
_cell_length_a       25.5552
_cell_length_b       25.5552
_cell_length_c       51.403
_cell_angle_alpha    90
_cell_angle_beta     90
_cell_angle_gamma    90

_symmetry_space_group_name_H-M    "P 1"
_symmetry_int_tables_number       1

loop_
  _symmetry_equiv_pos_as_xyz
  'x, y, z'

loop_
  _atom_site_label
  _atom_site_occupancy
  _atom_site_fract_x
  _atom_site_fract_y
  _atom_site_fract_z
  _atom_site_thermal_displace_type
  _atom_site_B_iso_or_equiv
  _atom_site_type_symbol
  Zn1      1.0000 0.22712  0.43927  0.12664  Biso   1.000  Zn
  O1       1.0000 0.27690  0.40790  0.15229  Biso   1.000  O
  C1       1.0000 0.18820  0.67660  0.03323  Biso   1.000  C
  O2       1.0000 0.18640  0.48220  0.10150  Biso   1.000  O
  N1       1.0000 0.04140  0.55150  0.04470  Biso   1.000  N
  O3       1.0000 0.33290  0.47580  0.15331  Biso   1.000  O
  O4       1.0000 0.16590  0.69500  0.01370  Biso   1.000  O
  O5       1.0000 0.22760  0.69410  0.04406  Biso   1.000  O
  C2       1.0000 0.16440  0.62860  0.04539  Biso   1.000  C
  C3       1.0000 0.19410  0.59910  0.06231  Biso   1.000  C
  H1       1.0000 0.22860  0.61020  0.06640  Biso   1.000  H
  C4       1.0000 0.33840  0.41270  0.18622  Biso   1.000  C
  C5       1.0000 0.31440  0.43370  0.16215  Biso   1.000  C
  C6       1.0000 0.20790  0.52240  0.09172  Biso   1.000  C
  C7       1.0000 0.37270  0.44140  0.19991  Biso   1.000  C
  H2       1.0000 0.38310  0.47450  0.19330  Biso   1.000  H
  C8       1.0000 0.11460  0.61280  0.03893  Biso   1.000  C
  H3       1.0000 0.09410  0.63250  0.02700  Biso   1.000  H
  C9       1.0000 0.17470  0.55390  0.07334  Biso   1.000  C
  C10      1.0000 0.09480  0.56730  0.05025  Biso   1.000  C
  C11      1.0000 0.12420  0.53710  0.06710  Biso   1.000  C
  H4       1.0000 0.11050  0.50570  0.07420  Biso   1.000  H
  N2       1.0000 0.33500  0.29190  0.22588  Biso   1.000  N
  C12      1.0000 0.31890  0.27520  0.25120  Biso   1.000  C
  H5       1.0000 0.30990  0.29720  0.26540  Biso   1.000  H
  C13      1.0000 0.38020  0.37470  0.23237  Biso   1.000  C
  H6       1.0000 0.39400  0.36180  0.24830  Biso   1.000  H
  C14      1.0000 0.02620  0.50340  0.03566  Biso   1.000  C
  H7       1.0000 0.04850  0.47550  0.03040  Biso   1.000  H
  C15      1.0000 0.39360  0.42430  0.22359  Biso   1.000  C
  C16      1.0000 0.32470  0.36260  0.19513  Biso   1.000  C
  H8       1.0000 0.30040  0.34200  0.18560  Biso   1.000  H
  C17      1.0000 0.34600  0.34370  0.21739  Biso   1.000  C
  O6       1.0000 0.44470  0.49950  0.22899  Biso   1.000  O
  O7       1.0000 0.25230  0.53750  0.09564  Biso   1.000  O
  O8       1.0000 0.44700  0.43790  0.26018  Biso   1.000  O
  C18      1.0000 0.43090  0.45790  0.23820  Biso   1.000  C
  Zn2      1.0000 0.72712  0.93927  0.62664  Biso   1.000  Zn
  O9       1.0000 0.77690  0.90790  0.65229  Biso   1.000  O
  C19      1.0000 0.68820  0.17660  0.53323  Biso   1.000  C
  O10      1.0000 0.68640  0.98220  0.60150  Biso   1.000  O
  N3       1.0000 0.54140  0.05150  0.54470  Biso   1.000  N
  O11      1.0000 0.83290  0.97580  0.65331  Biso   1.000  O
  O12      1.0000 0.66590  0.19500  0.51370  Biso   1.000  O
  O13      1.0000 0.72760  0.19410  0.54406  Biso   1.000  O
  C20      1.0000 0.66440  0.12860  0.54539  Biso   1.000  C
  C21      1.0000 0.69410  0.09910  0.56231  Biso   1.000  C
  H9       1.0000 0.72860  0.11020  0.56640  Biso   1.000  H
  C22      1.0000 0.83840  0.91270  0.68622  Biso   1.000  C
  C23      1.0000 0.81440  0.93370  0.66215  Biso   1.000  C
  C24      1.0000 0.70790  0.02240  0.59172  Biso   1.000  C
  C25      1.0000 0.87270  0.94140  0.69991  Biso   1.000  C
  H10      1.0000 0.88310  0.97450  0.69330  Biso   1.000  H
  C26      1.0000 0.61460  0.11280  0.53893  Biso   1.000  C
  H11      1.0000 0.59410  0.13250  0.52700  Biso   1.000  H
  C27      1.0000 0.67470  0.05390  0.57334  Biso   1.000  C
  C28      1.0000 0.59480  0.06730  0.55025  Biso   1.000  C
  C29      1.0000 0.62420  0.03710  0.56710  Biso   1.000  C
  H12      1.0000 0.61050  0.00570  0.57420  Biso   1.000  H
  N4       1.0000 0.83500  0.79190  0.72588  Biso   1.000  N
  C30      1.0000 0.81890  0.77520  0.75120  Biso   1.000  C
  H13      1.0000 0.80990  0.79720  0.76540  Biso   1.000  H
  C31      1.0000 0.88020  0.87470  0.73237  Biso   1.000  C
  H14      1.0000 0.89400  0.86180  0.74830  Biso   1.000  H
  C32      1.0000 0.52620  0.00340  0.53566  Biso   1.000  C
  H15      1.0000 0.54850  0.97550  0.53040  Biso   1.000  H
  C33      1.0000 0.89360  0.92430  0.72359  Biso   1.000  C
  C34      1.0000 0.82470  0.86260  0.69513  Biso   1.000  C
  H16      1.0000 0.80040  0.84200  0.68560  Biso   1.000  H
  C35      1.0000 0.84600  0.84370  0.71739  Biso   1.000  C
  O14      1.0000 0.94470  0.99950  0.72899  Biso   1.000  O
  O15      1.0000 0.75230  0.03750  0.59564  Biso   1.000  O
  O16      1.0000 0.94700  0.93790  0.76018  Biso   1.000  O
  C36      1.0000 0.93090  0.95790  0.73820  Biso   1.000  C
  Zn3      1.0000 0.27288  0.56073  0.62664  Biso   1.000  Zn
  O17      1.0000 0.22310  0.59210  0.65229  Biso   1.000  O
  C37      1.0000 0.31180  0.32340  0.53323  Biso   1.000  C
  O18      1.0000 0.31360  0.51780  0.60150  Biso   1.000  O
  N5       1.0000 0.45860  0.44850  0.54470  Biso   1.000  N
  O19      1.0000 0.16710  0.52420  0.65331  Biso   1.000  O
  O20      1.0000 0.33410  0.30500  0.51370  Biso   1.000  O
  O21      1.0000 0.27240  0.30590  0.54406  Biso   1.000  O
  C38      1.0000 0.33560  0.37140  0.54539  Biso   1.000  C
  C39      1.0000 0.30590  0.40090  0.56231  Biso   1.000  C
  H17      1.0000 0.27140  0.38980  0.56640  Biso   1.000  H
  C40      1.0000 0.16160  0.58730  0.68622  Biso   1.000  C
  C41      1.0000 0.18560  0.56630  0.66215  Biso   1.000  C
  C42      1.0000 0.29210  0.47760  0.59172  Biso   1.000  C
  C43      1.0000 0.12730  0.55860  0.69991  Biso   1.000  C
  H18      1.0000 0.11690  0.52550  0.69330  Biso   1.000  H
  C44      1.0000 0.38540  0.38720  0.53893  Biso   1.000  C
  H19      1.0000 0.40590  0.36750  0.52700  Biso   1.000  H
  C45      1.0000 0.32530  0.44610  0.57334  Biso   1.000  C
  C46      1.0000 0.40520  0.43270  0.55025  Biso   1.000  C
  C47      1.0000 0.37580  0.46290  0.56710  Biso   1.000  C
  H20      1.0000 0.38950  0.49430  0.57420  Biso   1.000  H
  N6       1.0000 0.16500  0.70810  0.72588  Biso   1.000  N
  C48      1.0000 0.18110  0.72480  0.75120  Biso   1.000  C
  H21      1.0000 0.19010  0.70280  0.76540  Biso   1.000  H
  C49      1.0000 0.11980  0.62530  0.73237  Biso   1.000  C
  H22      1.0000 0.10600  0.63820  0.74830  Biso   1.000  H
  C50      1.0000 0.47380  0.49660  0.53566  Biso   1.000  C
  H23      1.0000 0.45150  0.52450  0.53040  Biso   1.000  H
  C51      1.0000 0.10640  0.57570  0.72359  Biso   1.000  C
  C52      1.0000 0.17530  0.63740  0.69513  Biso   1.000  C
  H24      1.0000 0.19960  0.65800  0.68560  Biso   1.000  H
  C53      1.0000 0.15400  0.65630  0.71739  Biso   1.000  C
  O22      1.0000 0.05530  0.50050  0.72899  Biso   1.000  O
  O23      1.0000 0.24770  0.46250  0.59564  Biso   1.000  O
  O24      1.0000 0.05300  0.56210  0.76018  Biso   1.000  O
  C54      1.0000 0.06910  0.54210  0.73820  Biso   1.000  C
  Zn4      1.0000 0.77288  0.06073  0.12664  Biso   1.000  Zn
  O25      1.0000 0.72310  0.09210  0.15229  Biso   1.000  O
  C55      1.0000 0.81180  0.82340  0.03323  Biso   1.000  C
  O26      1.0000 0.81360  0.01780  0.10150  Biso   1.000  O
  N7       1.0000 0.95860  0.94850  0.04470  Biso   1.000  N
  O27      1.0000 0.66710  0.02420  0.15331  Biso   1.000  O
  O28      1.0000 0.83410  0.80500  0.01370  Biso   1.000  O
  O29      1.0000 0.77240  0.80590  0.04406  Biso   1.000  O
  C56      1.0000 0.83560  0.87140  0.04539  Biso   1.000  C
  C57      1.0000 0.80590  0.90090  0.06231  Biso   1.000  C
  H25      1.0000 0.77140  0.88980  0.06640  Biso   1.000  H
  C58      1.0000 0.66160  0.08730  0.18622  Biso   1.000  C
  C59      1.0000 0.68560  0.06630  0.16215  Biso   1.000  C
  C60      1.0000 0.79210  0.97760  0.09172  Biso   1.000  C
  C61      1.0000 0.62730  0.05860  0.19991  Biso   1.000  C
  H26      1.0000 0.61690  0.02550  0.19330  Biso   1.000  H
  C62      1.0000 0.88540  0.88720  0.03893  Biso   1.000  C
  H27      1.0000 0.90590  0.86750  0.02700  Biso   1.000  H
  C63      1.0000 0.82530  0.94610  0.07334  Biso   1.000  C
  C64      1.0000 0.90520  0.93270  0.05025  Biso   1.000  C
  C65      1.0000 0.87580  0.96290  0.06710  Biso   1.000  C
  H28      1.0000 0.88950  0.99430  0.07420  Biso   1.000  H
  N8       1.0000 0.66500  0.20810  0.22588  Biso   1.000  N
  C66      1.0000 0.68110  0.22480  0.25120  Biso   1.000  C
  H29      1.0000 0.69010  0.20280  0.26540  Biso   1.000  H
  C67      1.0000 0.61980  0.12530  0.23237  Biso   1.000  C
  H30      1.0000 0.60600  0.13820  0.24830  Biso   1.000  H
  C68      1.0000 0.97380  0.99660  0.03566  Biso   1.000  C
  H31      1.0000 0.95150  0.02450  0.03040  Biso   1.000  H
  C69      1.0000 0.60640  0.07570  0.22359  Biso   1.000  C
  C70      1.0000 0.67530  0.13740  0.19513  Biso   1.000  C
  H32      1.0000 0.69960  0.15800  0.18560  Biso   1.000  H
  C71      1.0000 0.65400  0.15630  0.21739  Biso   1.000  C
  O30      1.0000 0.55530  0.00050  0.22899  Biso   1.000  O
  O31      1.0000 0.74770  0.96250  0.09564  Biso   1.000  O
  O32      1.0000 0.55300  0.06210  0.26018  Biso   1.000  O
  C72      1.0000 0.56910  0.04210  0.23820  Biso   1.000  C
  Zn5      1.0000 0.81073  0.97712  0.37664  Biso   1.000  Zn
  O33      1.0000 0.84210  0.02690  0.40229  Biso   1.000  O
  C73      1.0000 0.57340  0.93820  0.28323  Biso   1.000  C
  O34      1.0000 0.76780  0.93640  0.35150  Biso   1.000  O
  N9       1.0000 0.69850  0.79140  0.29470  Biso   1.000  N
  O35      1.0000 0.77420  0.08290  0.40331  Biso   1.000  O
  O36      1.0000 0.55500  0.91590  0.26370  Biso   1.000  O
  O37      1.0000 0.55590  0.97760  0.29406  Biso   1.000  O
  C74      1.0000 0.62140  0.91440  0.29539  Biso   1.000  C
  C75      1.0000 0.65090  0.94410  0.31231  Biso   1.000  C
  H33      1.0000 0.63980  0.97860  0.31640  Biso   1.000  H
  C76      1.0000 0.83730  0.08840  0.43622  Biso   1.000  C
  C77      1.0000 0.81630  0.06440  0.41215  Biso   1.000  C
  C78      1.0000 0.72760  0.95790  0.34172  Biso   1.000  C
  C79      1.0000 0.80860  0.12270  0.44991  Biso   1.000  C
  H34      1.0000 0.77550  0.13310  0.44330  Biso   1.000  H
  C80      1.0000 0.63720  0.86460  0.28893  Biso   1.000  C
  H35      1.0000 0.61750  0.84410  0.27700  Biso   1.000  H
  C81      1.0000 0.69610  0.92470  0.32334  Biso   1.000  C
  C82      1.0000 0.68270  0.84480  0.30025  Biso   1.000  C
  C83      1.0000 0.71290  0.87420  0.31710  Biso   1.000  C
  H36      1.0000 0.74430  0.86050  0.32420  Biso   1.000  H
  N10      1.0000 0.95810  0.08500  0.47588  Biso   1.000  N
  C84      1.0000 0.97480  0.06890  0.50120  Biso   1.000  C
  H37      1.0000 0.95280  0.05990  0.51540  Biso   1.000  H
  C85      1.0000 0.87530  0.13020  0.48237  Biso   1.000  C
  H38      1.0000 0.88820  0.14400  0.49830  Biso   1.000  H
  C86      1.0000 0.74660  0.77620  0.28566  Biso   1.000  C
  H39      1.0000 0.77450  0.79850  0.28040  Biso   1.000  H
  C87      1.0000 0.82570  0.14360  0.47359  Biso   1.000  C
  C88      1.0000 0.88740  0.07470  0.44513  Biso   1.000  C
  H40      1.0000 0.90800  0.05040  0.43560  Biso   1.000  H
  C89      1.0000 0.90630  0.09600  0.46739  Biso   1.000  C
  O38      1.0000 0.75050  0.19470  0.47899  Biso   1.000  O
  O39      1.0000 0.71250  0.00230  0.34564  Biso   1.000  O
  O40      1.0000 0.81210  0.19700  0.51018  Biso   1.000  O
  C90      1.0000 0.79210  0.18090  0.48820  Biso   1.000  C
  Zn6      1.0000 0.31073  0.47712  0.87664  Biso   1.000  Zn
  O41      1.0000 0.34210  0.52690  0.90229  Biso   1.000  O
  C91      1.0000 0.07340  0.43820  0.78323  Biso   1.000  C
  O42      1.0000 0.26780  0.43640  0.85150  Biso   1.000  O
  N11      1.0000 0.19850  0.29140  0.79470  Biso   1.000  N
  O43      1.0000 0.27420  0.58290  0.90331  Biso   1.000  O
  O44      1.0000 0.05500  0.41590  0.76370  Biso   1.000  O
  O45      1.0000 0.05590  0.47760  0.79406  Biso   1.000  O
  C92      1.0000 0.12140  0.41440  0.79539  Biso   1.000  C
  C93      1.0000 0.15090  0.44410  0.81231  Biso   1.000  C
  H41      1.0000 0.13980  0.47860  0.81640  Biso   1.000  H
  C94      1.0000 0.33730  0.58840  0.93622  Biso   1.000  C
  C95      1.0000 0.31630  0.56440  0.91215  Biso   1.000  C
  C96      1.0000 0.22760  0.45790  0.84172  Biso   1.000  C
  C97      1.0000 0.30860  0.62270  0.94991  Biso   1.000  C
  H42      1.0000 0.27550  0.63310  0.94330  Biso   1.000  H
  C98      1.0000 0.13720  0.36460  0.78893  Biso   1.000  C
  H43      1.0000 0.11750  0.34410  0.77700  Biso   1.000  H
  C99      1.0000 0.19610  0.42470  0.82334  Biso   1.000  C
  C100     1.0000 0.18270  0.34480  0.80025  Biso   1.000  C
  C101     1.0000 0.21290  0.37420  0.81710  Biso   1.000  C
  H44      1.0000 0.24430  0.36050  0.82420  Biso   1.000  H
  N12      1.0000 0.45810  0.58500  0.97588  Biso   1.000  N
  C102     1.0000 0.47480  0.56890  0.00120  Biso   1.000  C
  H45      1.0000 0.45280  0.55990  0.01540  Biso   1.000  H
  C103     1.0000 0.37530  0.63020  0.98237  Biso   1.000  C
  H46      1.0000 0.38820  0.64400  0.99830  Biso   1.000  H
  C104     1.0000 0.24660  0.27620  0.78566  Biso   1.000  C
  H47      1.0000 0.27450  0.29850  0.78040  Biso   1.000  H
  C105     1.0000 0.32570  0.64360  0.97359  Biso   1.000  C
  C106     1.0000 0.38740  0.57470  0.94513  Biso   1.000  C
  H48      1.0000 0.40800  0.55040  0.93560  Biso   1.000  H
  C107     1.0000 0.40630  0.59600  0.96739  Biso   1.000  C
  O46      1.0000 0.25050  0.69470  0.97899  Biso   1.000  O
  O47      1.0000 0.21250  0.50230  0.84564  Biso   1.000  O
  O48      1.0000 0.31210  0.69700  0.01018  Biso   1.000  O
  C108     1.0000 0.29210  0.68090  0.98820  Biso   1.000  C
  Zn7      1.0000 0.68927  0.02288  0.87664  Biso   1.000  Zn
  O49      1.0000 0.65790  0.97310  0.90229  Biso   1.000  O
  C109     1.0000 0.92660  0.06180  0.78323  Biso   1.000  C
  O50      1.0000 0.73220  0.06360  0.85150  Biso   1.000  O
  N13      1.0000 0.80150  0.20860  0.79470  Biso   1.000  N
  O51      1.0000 0.72580  0.91710  0.90331  Biso   1.000  O
  O52      1.0000 0.94500  0.08410  0.76370  Biso   1.000  O
  O53      1.0000 0.94410  0.02240  0.79406  Biso   1.000  O
  C110     1.0000 0.87860  0.08560  0.79539  Biso   1.000  C
  C111     1.0000 0.84910  0.05590  0.81231  Biso   1.000  C
  H49      1.0000 0.86020  0.02140  0.81640  Biso   1.000  H
  C112     1.0000 0.66270  0.91160  0.93622  Biso   1.000  C
  C113     1.0000 0.68370  0.93560  0.91215  Biso   1.000  C
  C114     1.0000 0.77240  0.04210  0.84172  Biso   1.000  C
  C115     1.0000 0.69140  0.87730  0.94991  Biso   1.000  C
  H50      1.0000 0.72450  0.86690  0.94330  Biso   1.000  H
  C116     1.0000 0.86280  0.13540  0.78893  Biso   1.000  C
  H51      1.0000 0.88250  0.15590  0.77700  Biso   1.000  H
  C117     1.0000 0.80390  0.07530  0.82334  Biso   1.000  C
  C118     1.0000 0.81730  0.15520  0.80025  Biso   1.000  C
  C119     1.0000 0.78710  0.12580  0.81710  Biso   1.000  C
  H52      1.0000 0.75570  0.13950  0.82420  Biso   1.000  H
  N14      1.0000 0.54190  0.91500  0.97588  Biso   1.000  N
  C120     1.0000 0.52520  0.93110  0.00120  Biso   1.000  C
  H53      1.0000 0.54720  0.94010  0.01540  Biso   1.000  H
  C121     1.0000 0.62470  0.86980  0.98237  Biso   1.000  C
  H54      1.0000 0.61180  0.85600  0.99830  Biso   1.000  H
  C122     1.0000 0.75340  0.22380  0.78566  Biso   1.000  C
  H55      1.0000 0.72550  0.20150  0.78040  Biso   1.000  H
  C123     1.0000 0.67430  0.85640  0.97359  Biso   1.000  C
  C124     1.0000 0.61260  0.92530  0.94513  Biso   1.000  C
  H56      1.0000 0.59200  0.94960  0.93560  Biso   1.000  H
  C125     1.0000 0.59370  0.90400  0.96739  Biso   1.000  C
  O54      1.0000 0.74950  0.80530  0.97899  Biso   1.000  O
  O55      1.0000 0.78750  0.99770  0.84564  Biso   1.000  O
  O56      1.0000 0.68790  0.80300  0.01018  Biso   1.000  O
  C126     1.0000 0.70790  0.81910  0.98820  Biso   1.000  C
  Zn8      1.0000 0.18927  0.52288  0.37664  Biso   1.000  Zn
  O57      1.0000 0.15790  0.47310  0.40229  Biso   1.000  O
  C127     1.0000 0.42660  0.56180  0.28323  Biso   1.000  C
  O58      1.0000 0.23220  0.56360  0.35150  Biso   1.000  O
  N15      1.0000 0.30150  0.70860  0.29470  Biso   1.000  N
  O59      1.0000 0.22580  0.41710  0.40331  Biso   1.000  O
  O60      1.0000 0.44500  0.58410  0.26370  Biso   1.000  O
  O61      1.0000 0.44410  0.52240  0.29406  Biso   1.000  O
  C128     1.0000 0.37860  0.58560  0.29539  Biso   1.000  C
  C129     1.0000 0.34910  0.55590  0.31231  Biso   1.000  C
  H57      1.0000 0.36020  0.52140  0.31640  Biso   1.000  H
  C130     1.0000 0.16270  0.41160  0.43622  Biso   1.000  C
  C131     1.0000 0.18370  0.43560  0.41215  Biso   1.000  C
  C132     1.0000 0.27240  0.54210  0.34172  Biso   1.000  C
  C133     1.0000 0.19140  0.37730  0.44991  Biso   1.000  C
  H58      1.0000 0.22450  0.36690  0.44330  Biso   1.000  H
  C134     1.0000 0.36280  0.63540  0.28893  Biso   1.000  C
  H59      1.0000 0.38250  0.65590  0.27700  Biso   1.000  H
  C135     1.0000 0.30390  0.57530  0.32334  Biso   1.000  C
  C136     1.0000 0.31730  0.65520  0.30025  Biso   1.000  C
  C137     1.0000 0.28710  0.62580  0.31710  Biso   1.000  C
  H60      1.0000 0.25570  0.63950  0.32420  Biso   1.000  H
  N16      1.0000 0.04190  0.41500  0.47588  Biso   1.000  N
  C138     1.0000 0.02520  0.43110  0.50120  Biso   1.000  C
  H61      1.0000 0.04720  0.44010  0.51540  Biso   1.000  H
  C139     1.0000 0.12470  0.36980  0.48237  Biso   1.000  C
  H62      1.0000 0.11180  0.35600  0.49830  Biso   1.000  H
  C140     1.0000 0.25340  0.72380  0.28566  Biso   1.000  C
  H63      1.0000 0.22550  0.70150  0.28040  Biso   1.000  H
  C141     1.0000 0.17430  0.35640  0.47359  Biso   1.000  C
  C142     1.0000 0.11260  0.42530  0.44513  Biso   1.000  C
  H64      1.0000 0.09200  0.44960  0.43560  Biso   1.000  H
  C143     1.0000 0.09370  0.40400  0.46739  Biso   1.000  C
  O62      1.0000 0.24950  0.30530  0.47899  Biso   1.000  O
  O63      1.0000 0.28750  0.49770  0.34564  Biso   1.000  O
  O64      1.0000 0.18790  0.30300  0.51018  Biso   1.000  O
  C144     1.0000 0.20790  0.31910  0.48820  Biso   1.000  C
  Zn9      1.0000 0.27288  0.43927  0.37336  Biso   1.000  Zn
  O65      1.0000 0.22310  0.40790  0.34771  Biso   1.000  O
  C145     1.0000 0.31180  0.67660  0.46677  Biso   1.000  C
  O66      1.0000 0.31360  0.48220  0.39850  Biso   1.000  O
  N17      1.0000 0.45860  0.55150  0.45530  Biso   1.000  N
  O67      1.0000 0.16710  0.47580  0.34669  Biso   1.000  O
  O68      1.0000 0.33410  0.69500  0.48630  Biso   1.000  O
  O69      1.0000 0.27240  0.69410  0.45594  Biso   1.000  O
  C146     1.0000 0.33560  0.62860  0.45461  Biso   1.000  C
  C147     1.0000 0.30590  0.59910  0.43769  Biso   1.000  C
  H65      1.0000 0.27140  0.61020  0.43360  Biso   1.000  H
  C148     1.0000 0.16160  0.41270  0.31378  Biso   1.000  C
  C149     1.0000 0.18560  0.43370  0.33785  Biso   1.000  C
  C150     1.0000 0.29210  0.52240  0.40828  Biso   1.000  C
  C151     1.0000 0.12730  0.44140  0.30009  Biso   1.000  C
  H66      1.0000 0.11690  0.47450  0.30670  Biso   1.000  H
  C152     1.0000 0.38540  0.61280  0.46107  Biso   1.000  C
  H67      1.0000 0.40590  0.63250  0.47300  Biso   1.000  H
  C153     1.0000 0.32530  0.55390  0.42666  Biso   1.000  C
  C154     1.0000 0.40520  0.56730  0.44975  Biso   1.000  C
  C155     1.0000 0.37580  0.53710  0.43290  Biso   1.000  C
  H68      1.0000 0.38950  0.50570  0.42580  Biso   1.000  H
  N18      1.0000 0.16500  0.29190  0.27412  Biso   1.000  N
  C156     1.0000 0.18110  0.27520  0.24880  Biso   1.000  C
  H69      1.0000 0.19010  0.29720  0.23460  Biso   1.000  H
  C157     1.0000 0.11980  0.37470  0.26763  Biso   1.000  C
  H70      1.0000 0.10600  0.36180  0.25170  Biso   1.000  H
  C158     1.0000 0.47380  0.50340  0.46434  Biso   1.000  C
  H71      1.0000 0.45150  0.47550  0.46960  Biso   1.000  H
  C159     1.0000 0.10640  0.42430  0.27641  Biso   1.000  C
  C160     1.0000 0.17530  0.36260  0.30487  Biso   1.000  C
  H72      1.0000 0.19960  0.34200  0.31440  Biso   1.000  H
  C161     1.0000 0.15400  0.34370  0.28261  Biso   1.000  C
  O70      1.0000 0.05530  0.49950  0.27101  Biso   1.000  O
  O71      1.0000 0.24770  0.53750  0.40436  Biso   1.000  O
  O72      1.0000 0.05300  0.43790  0.23982  Biso   1.000  O
  C162     1.0000 0.06910  0.45790  0.26180  Biso   1.000  C
  Zn10     1.0000 0.77288  0.93927  0.87336  Biso   1.000  Zn
  O73      1.0000 0.72310  0.90790  0.84771  Biso   1.000  O
  C163     1.0000 0.81180  0.17660  0.96677  Biso   1.000  C
  O74      1.0000 0.81360  0.98220  0.89850  Biso   1.000  O
  N19      1.0000 0.95860  0.05150  0.95530  Biso   1.000  N
  O75      1.0000 0.66710  0.97580  0.84669  Biso   1.000  O
  O76      1.0000 0.83410  0.19500  0.98630  Biso   1.000  O
  O77      1.0000 0.77240  0.19410  0.95594  Biso   1.000  O
  C164     1.0000 0.83560  0.12860  0.95461  Biso   1.000  C
  C165     1.0000 0.80590  0.09910  0.93769  Biso   1.000  C
  H73      1.0000 0.77140  0.11020  0.93360  Biso   1.000  H
  C166     1.0000 0.66160  0.91270  0.81378  Biso   1.000  C
  C167     1.0000 0.68560  0.93370  0.83785  Biso   1.000  C
  C168     1.0000 0.79210  0.02240  0.90828  Biso   1.000  C
  C169     1.0000 0.62730  0.94140  0.80009  Biso   1.000  C
  H74      1.0000 0.61690  0.97450  0.80670  Biso   1.000  H
  C170     1.0000 0.88540  0.11280  0.96107  Biso   1.000  C
  H75      1.0000 0.90590  0.13250  0.97300  Biso   1.000  H
  C171     1.0000 0.82530  0.05390  0.92666  Biso   1.000  C
  C172     1.0000 0.90520  0.06730  0.94975  Biso   1.000  C
  C173     1.0000 0.87580  0.03710  0.93290  Biso   1.000  C
  H76      1.0000 0.88950  0.00570  0.92580  Biso   1.000  H
  N20      1.0000 0.66500  0.79190  0.77412  Biso   1.000  N
  C174     1.0000 0.68110  0.77520  0.74880  Biso   1.000  C
  H77      1.0000 0.69010  0.79720  0.73460  Biso   1.000  H
  C175     1.0000 0.61980  0.87470  0.76763  Biso   1.000  C
  H78      1.0000 0.60600  0.86180  0.75170  Biso   1.000  H
  C176     1.0000 0.97380  0.00340  0.96434  Biso   1.000  C
  H79      1.0000 0.95150  0.97550  0.96960  Biso   1.000  H
  C177     1.0000 0.60640  0.92430  0.77641  Biso   1.000  C
  C178     1.0000 0.67530  0.86260  0.80487  Biso   1.000  C
  H80      1.0000 0.69960  0.84200  0.81440  Biso   1.000  H
  C179     1.0000 0.65400  0.84370  0.78261  Biso   1.000  C
  O78      1.0000 0.55530  0.99950  0.77101  Biso   1.000  O
  O79      1.0000 0.74770  0.03750  0.90436  Biso   1.000  O
  O80      1.0000 0.55300  0.93790  0.73982  Biso   1.000  O
  C180     1.0000 0.56910  0.95790  0.76180  Biso   1.000  C
  Zn11     1.0000 0.22712  0.56073  0.87336  Biso   1.000  Zn
  O81      1.0000 0.27690  0.59210  0.84771  Biso   1.000  O
  C181     1.0000 0.18820  0.32340  0.96677  Biso   1.000  C
  O82      1.0000 0.18640  0.51780  0.89850  Biso   1.000  O
  N21      1.0000 0.04140  0.44850  0.95530  Biso   1.000  N
  O83      1.0000 0.33290  0.52420  0.84669  Biso   1.000  O
  O84      1.0000 0.16590  0.30500  0.98630  Biso   1.000  O
  O85      1.0000 0.22760  0.30590  0.95594  Biso   1.000  O
  C182     1.0000 0.16440  0.37140  0.95461  Biso   1.000  C
  C183     1.0000 0.19410  0.40090  0.93769  Biso   1.000  C
  H81      1.0000 0.22860  0.38980  0.93360  Biso   1.000  H
  C184     1.0000 0.33840  0.58730  0.81378  Biso   1.000  C
  C185     1.0000 0.31440  0.56630  0.83785  Biso   1.000  C
  C186     1.0000 0.20790  0.47760  0.90828  Biso   1.000  C
  C187     1.0000 0.37270  0.55860  0.80009  Biso   1.000  C
  H82      1.0000 0.38310  0.52550  0.80670  Biso   1.000  H
  C188     1.0000 0.11460  0.38720  0.96107  Biso   1.000  C
  H83      1.0000 0.09410  0.36750  0.97300  Biso   1.000  H
  C189     1.0000 0.17470  0.44610  0.92666  Biso   1.000  C
  C190     1.0000 0.09480  0.43270  0.94975  Biso   1.000  C
  C191     1.0000 0.12420  0.46290  0.93290  Biso   1.000  C
  H84      1.0000 0.11050  0.49430  0.92580  Biso   1.000  H
  N22      1.0000 0.33500  0.70810  0.77412  Biso   1.000  N
  C192     1.0000 0.31890  0.72480  0.74880  Biso   1.000  C
  H85      1.0000 0.30990  0.70280  0.73460  Biso   1.000  H
  C193     1.0000 0.38020  0.62530  0.76763  Biso   1.000  C
  H86      1.0000 0.39400  0.63820  0.75170  Biso   1.000  H
  C194     1.0000 0.02620  0.49660  0.96434  Biso   1.000  C
  H87      1.0000 0.04850  0.52450  0.96960  Biso   1.000  H
  C195     1.0000 0.39360  0.57570  0.77641  Biso   1.000  C
  C196     1.0000 0.32470  0.63740  0.80487  Biso   1.000  C
  H88      1.0000 0.30040  0.65800  0.81440  Biso   1.000  H
  C197     1.0000 0.34600  0.65630  0.78261  Biso   1.000  C
  O86      1.0000 0.44470  0.50050  0.77101  Biso   1.000  O
  O87      1.0000 0.25230  0.46250  0.90436  Biso   1.000  O
  O88      1.0000 0.44700  0.56210  0.73982  Biso   1.000  O
  C198     1.0000 0.43090  0.54210  0.76180  Biso   1.000  C
  Zn12     1.0000 0.72712  0.06073  0.37336  Biso   1.000  Zn
  O89      1.0000 0.77690  0.09210  0.34771  Biso   1.000  O
  C199     1.0000 0.68820  0.82340  0.46677  Biso   1.000  C
  O90      1.0000 0.68640  0.01780  0.39850  Biso   1.000  O
  N23      1.0000 0.54140  0.94850  0.45530  Biso   1.000  N
  O91      1.0000 0.83290  0.02420  0.34669  Biso   1.000  O
  O92      1.0000 0.66590  0.80500  0.48630  Biso   1.000  O
  O93      1.0000 0.72760  0.80590  0.45594  Biso   1.000  O
  C200     1.0000 0.66440  0.87140  0.45461  Biso   1.000  C
  C201     1.0000 0.69410  0.90090  0.43769  Biso   1.000  C
  H89      1.0000 0.72860  0.88980  0.43360  Biso   1.000  H
  C202     1.0000 0.83840  0.08730  0.31378  Biso   1.000  C
  C203     1.0000 0.81440  0.06630  0.33785  Biso   1.000  C
  C204     1.0000 0.70790  0.97760  0.40828  Biso   1.000  C
  C205     1.0000 0.87270  0.05860  0.30009  Biso   1.000  C
  H90      1.0000 0.88310  0.02550  0.30670  Biso   1.000  H
  C206     1.0000 0.61460  0.88720  0.46107  Biso   1.000  C
  H91      1.0000 0.59410  0.86750  0.47300  Biso   1.000  H
  C207     1.0000 0.67470  0.94610  0.42666  Biso   1.000  C
  C208     1.0000 0.59480  0.93270  0.44975  Biso   1.000  C
  C209     1.0000 0.62420  0.96290  0.43290  Biso   1.000  C
  H92      1.0000 0.61050  0.99430  0.42580  Biso   1.000  H
  N24      1.0000 0.83500  0.20810  0.27412  Biso   1.000  N
  C210     1.0000 0.81890  0.22480  0.24880  Biso   1.000  C
  H93      1.0000 0.80990  0.20280  0.23460  Biso   1.000  H
  C211     1.0000 0.88020  0.12530  0.26763  Biso   1.000  C
  H94      1.0000 0.89400  0.13820  0.25170  Biso   1.000  H
  C212     1.0000 0.52620  0.99660  0.46434  Biso   1.000  C
  H95      1.0000 0.54850  0.02450  0.46960  Biso   1.000  H
  C213     1.0000 0.89360  0.07570  0.27641  Biso   1.000  C
  C214     1.0000 0.82470  0.13740  0.30487  Biso   1.000  C
  H96      1.0000 0.80040  0.15800  0.31440  Biso   1.000  H
  C215     1.0000 0.84600  0.15630  0.28261  Biso   1.000  C
  O94      1.0000 0.94470  0.00050  0.27101  Biso   1.000  O
  O95      1.0000 0.75230  0.96250  0.40436  Biso   1.000  O
  O96      1.0000 0.94700  0.06210  0.23982  Biso   1.000  O
  C216     1.0000 0.93090  0.04210  0.26180  Biso   1.000  C
  Zn13     1.0000 0.68927  0.97712  0.12336  Biso   1.000  Zn
  O97      1.0000 0.65790  0.02690  0.09771  Biso   1.000  O
  C217     1.0000 0.92660  0.93820  0.21677  Biso   1.000  C
  O98      1.0000 0.73220  0.93640  0.14850  Biso   1.000  O
  N25      1.0000 0.80150  0.79140  0.20530  Biso   1.000  N
  O99      1.0000 0.72580  0.08290  0.09669  Biso   1.000  O
  O100     1.0000 0.94500  0.91590  0.23630  Biso   1.000  O
  O101     1.0000 0.94410  0.97760  0.20594  Biso   1.000  O
  C218     1.0000 0.87860  0.91440  0.20461  Biso   1.000  C
  C219     1.0000 0.84910  0.94410  0.18769  Biso   1.000  C
  H97      1.0000 0.86020  0.97860  0.18360  Biso   1.000  H
  C220     1.0000 0.66270  0.08840  0.06378  Biso   1.000  C
  C221     1.0000 0.68370  0.06440  0.08785  Biso   1.000  C
  C222     1.0000 0.77240  0.95790  0.15828  Biso   1.000  C
  C223     1.0000 0.69140  0.12270  0.05009  Biso   1.000  C
  H98      1.0000 0.72450  0.13310  0.05670  Biso   1.000  H
  C224     1.0000 0.86280  0.86460  0.21107  Biso   1.000  C
  H99      1.0000 0.88250  0.84410  0.22300  Biso   1.000  H
  C225     1.0000 0.80390  0.92470  0.17666  Biso   1.000  C
  C226     1.0000 0.81730  0.84480  0.19975  Biso   1.000  C
  C227     1.0000 0.78710  0.87420  0.18290  Biso   1.000  C
  H100     1.0000 0.75570  0.86050  0.17580  Biso   1.000  H
  N26      1.0000 0.54190  0.08500  0.02412  Biso   1.000  N
  C228     1.0000 0.52520  0.06890  0.99880  Biso   1.000  C
  H101     1.0000 0.54720  0.05990  0.98460  Biso   1.000  H
  C229     1.0000 0.62470  0.13020  0.01763  Biso   1.000  C
  H102     1.0000 0.61180  0.14400  0.00170  Biso   1.000  H
  C230     1.0000 0.75340  0.77620  0.21434  Biso   1.000  C
  H103     1.0000 0.72550  0.79850  0.21960  Biso   1.000  H
  C231     1.0000 0.67430  0.14360  0.02641  Biso   1.000  C
  C232     1.0000 0.61260  0.07470  0.05487  Biso   1.000  C
  H104     1.0000 0.59200  0.05040  0.06440  Biso   1.000  H
  C233     1.0000 0.59370  0.09600  0.03261  Biso   1.000  C
  O102     1.0000 0.74950  0.19470  0.02101  Biso   1.000  O
  O103     1.0000 0.78750  0.00230  0.15436  Biso   1.000  O
  O104     1.0000 0.68790  0.19700  0.98982  Biso   1.000  O
  C234     1.0000 0.70790  0.18090  0.01180  Biso   1.000  C
  Zn14     1.0000 0.18927  0.47712  0.62336  Biso   1.000  Zn
  O105     1.0000 0.15790  0.52690  0.59771  Biso   1.000  O
  C235     1.0000 0.42660  0.43820  0.71677  Biso   1.000  C
  O106     1.0000 0.23220  0.43640  0.64850  Biso   1.000  O
  N27      1.0000 0.30150  0.29140  0.70530  Biso   1.000  N
  O107     1.0000 0.22580  0.58290  0.59669  Biso   1.000  O
  O108     1.0000 0.44500  0.41590  0.73630  Biso   1.000  O
  O109     1.0000 0.44410  0.47760  0.70594  Biso   1.000  O
  C236     1.0000 0.37860  0.41440  0.70461  Biso   1.000  C
  C237     1.0000 0.34910  0.44410  0.68769  Biso   1.000  C
  H105     1.0000 0.36020  0.47860  0.68360  Biso   1.000  H
  C238     1.0000 0.16270  0.58840  0.56378  Biso   1.000  C
  C239     1.0000 0.18370  0.56440  0.58785  Biso   1.000  C
  C240     1.0000 0.27240  0.45790  0.65828  Biso   1.000  C
  C241     1.0000 0.19140  0.62270  0.55009  Biso   1.000  C
  H106     1.0000 0.22450  0.63310  0.55670  Biso   1.000  H
  C242     1.0000 0.36280  0.36460  0.71107  Biso   1.000  C
  H107     1.0000 0.38250  0.34410  0.72300  Biso   1.000  H
  C243     1.0000 0.30390  0.42470  0.67666  Biso   1.000  C
  C244     1.0000 0.31730  0.34480  0.69975  Biso   1.000  C
  C245     1.0000 0.28710  0.37420  0.68290  Biso   1.000  C
  H108     1.0000 0.25570  0.36050  0.67580  Biso   1.000  H
  N28      1.0000 0.04190  0.58500  0.52412  Biso   1.000  N
  C246     1.0000 0.02520  0.56890  0.49880  Biso   1.000  C
  H109     1.0000 0.04720  0.55990  0.48460  Biso   1.000  H
  C247     1.0000 0.12470  0.63020  0.51763  Biso   1.000  C
  H110     1.0000 0.11180  0.64400  0.50170  Biso   1.000  H
  C248     1.0000 0.25340  0.27620  0.71434  Biso   1.000  C
  H111     1.0000 0.22550  0.29850  0.71960  Biso   1.000  H
  C249     1.0000 0.17430  0.64360  0.52641  Biso   1.000  C
  C250     1.0000 0.11260  0.57470  0.55487  Biso   1.000  C
  H112     1.0000 0.09200  0.55040  0.56440  Biso   1.000  H
  C251     1.0000 0.09370  0.59600  0.53261  Biso   1.000  C
  O110     1.0000 0.24950  0.69470  0.52101  Biso   1.000  O
  O111     1.0000 0.28750  0.50230  0.65436  Biso   1.000  O
  O112     1.0000 0.18790  0.69700  0.48982  Biso   1.000  O
  C252     1.0000 0.20790  0.68090  0.51180  Biso   1.000  C
  Zn15     1.0000 0.81073  0.02288  0.62336  Biso   1.000  Zn
  O113     1.0000 0.84210  0.97310  0.59771  Biso   1.000  O
  C253     1.0000 0.57340  0.06180  0.71677  Biso   1.000  C
  O114     1.0000 0.76780  0.06360  0.64850  Biso   1.000  O
  N29      1.0000 0.69850  0.20860  0.70530  Biso   1.000  N
  O115     1.0000 0.77420  0.91710  0.59669  Biso   1.000  O
  O116     1.0000 0.55500  0.08410  0.73630  Biso   1.000  O
  O117     1.0000 0.55590  0.02240  0.70594  Biso   1.000  O
  C254     1.0000 0.62140  0.08560  0.70461  Biso   1.000  C
  C255     1.0000 0.65090  0.05590  0.68769  Biso   1.000  C
  H113     1.0000 0.63980  0.02140  0.68360  Biso   1.000  H
  C256     1.0000 0.83730  0.91160  0.56378  Biso   1.000  C
  C257     1.0000 0.81630  0.93560  0.58785  Biso   1.000  C
  C258     1.0000 0.72760  0.04210  0.65828  Biso   1.000  C
  C259     1.0000 0.80860  0.87730  0.55009  Biso   1.000  C
  H114     1.0000 0.77550  0.86690  0.55670  Biso   1.000  H
  C260     1.0000 0.63720  0.13540  0.71107  Biso   1.000  C
  H115     1.0000 0.61750  0.15590  0.72300  Biso   1.000  H
  C261     1.0000 0.69610  0.07530  0.67666  Biso   1.000  C
  C262     1.0000 0.68270  0.15520  0.69975  Biso   1.000  C
  C263     1.0000 0.71290  0.12580  0.68290  Biso   1.000  C
  H116     1.0000 0.74430  0.13950  0.67580  Biso   1.000  H
  N30      1.0000 0.95810  0.91500  0.52412  Biso   1.000  N
  C264     1.0000 0.97480  0.93110  0.49880  Biso   1.000  C
  H117     1.0000 0.95280  0.94010  0.48460  Biso   1.000  H
  C265     1.0000 0.87530  0.86980  0.51763  Biso   1.000  C
  H118     1.0000 0.88820  0.85600  0.50170  Biso   1.000  H
  C266     1.0000 0.74660  0.22380  0.71434  Biso   1.000  C
  H119     1.0000 0.77450  0.20150  0.71960  Biso   1.000  H
  C267     1.0000 0.82570  0.85640  0.52641  Biso   1.000  C
  C268     1.0000 0.88740  0.92530  0.55487  Biso   1.000  C
  H120     1.0000 0.90800  0.94960  0.56440  Biso   1.000  H
  C269     1.0000 0.90630  0.90400  0.53261  Biso   1.000  C
  O118     1.0000 0.75050  0.80530  0.52101  Biso   1.000  O
  O119     1.0000 0.71250  0.99770  0.65436  Biso   1.000  O
  O120     1.0000 0.81210  0.80300  0.48982  Biso   1.000  O
  C270     1.0000 0.79210  0.81910  0.51180  Biso   1.000  C
  Zn16     1.0000 0.31073  0.52288  0.12336  Biso   1.000  Zn
  O121     1.0000 0.34210  0.47310  0.09771  Biso   1.000  O
  C271     1.0000 0.07340  0.56180  0.21677  Biso   1.000  C
  O122     1.0000 0.26780  0.56360  0.14850  Biso   1.000  O
  N31      1.0000 0.19850  0.70860  0.20530  Biso   1.000  N
  O123     1.0000 0.27420  0.41710  0.09669  Biso   1.000  O
  O124     1.0000 0.05500  0.58410  0.23630  Biso   1.000  O
  O125     1.0000 0.05590  0.52240  0.20594  Biso   1.000  O
  C272     1.0000 0.12140  0.58560  0.20461  Biso   1.000  C
  C273     1.0000 0.15090  0.55590  0.18769  Biso   1.000  C
  H121     1.0000 0.13980  0.52140  0.18360  Biso   1.000  H
  C274     1.0000 0.33730  0.41160  0.06378  Biso   1.000  C
  C275     1.0000 0.31630  0.43560  0.08785  Biso   1.000  C
  C276     1.0000 0.22760  0.54210  0.15828  Biso   1.000  C
  C277     1.0000 0.30860  0.37730  0.05009  Biso   1.000  C
  H122     1.0000 0.27550  0.36690  0.05670  Biso   1.000  H
  C278     1.0000 0.13720  0.63540  0.21107  Biso   1.000  C
  H123     1.0000 0.11750  0.65590  0.22300  Biso   1.000  H
  C279     1.0000 0.19610  0.57530  0.17666  Biso   1.000  C
  C280     1.0000 0.18270  0.65520  0.19975  Biso   1.000  C
  C281     1.0000 0.21290  0.62580  0.18290  Biso   1.000  C
  H124     1.0000 0.24430  0.63950  0.17580  Biso   1.000  H
  N32      1.0000 0.45810  0.41500  0.02412  Biso   1.000  N
  C282     1.0000 0.47480  0.43110  0.99880  Biso   1.000  C
  H125     1.0000 0.45280  0.44010  0.98460  Biso   1.000  H
  C283     1.0000 0.37530  0.36980  0.01763  Biso   1.000  C
  H126     1.0000 0.38820  0.35600  0.00170  Biso   1.000  H
  C284     1.0000 0.24660  0.72380  0.21434  Biso   1.000  C
  H127     1.0000 0.27450  0.70150  0.21960  Biso   1.000  H
  C285     1.0000 0.32570  0.35640  0.02641  Biso   1.000  C
  C286     1.0000 0.38740  0.42530  0.05487  Biso   1.000  C
  H128     1.0000 0.40800  0.44960  0.06440  Biso   1.000  H
  C287     1.0000 0.40630  0.40400  0.03261  Biso   1.000  C
  O126     1.0000 0.25050  0.30530  0.02101  Biso   1.000  O
  O127     1.0000 0.21250  0.49770  0.15436  Biso   1.000  O
  O128     1.0000 0.31210  0.30300  0.98982  Biso   1.000  O
  C288     1.0000 0.29210  0.31910  0.01180  Biso   1.000  C
  Zn17     1.0000 0.77288  0.56073  0.87336  Biso   1.000  Zn
  O129     1.0000 0.72310  0.59210  0.84771  Biso   1.000  O
  C289     1.0000 0.81180  0.32340  0.96677  Biso   1.000  C
  O130     1.0000 0.81360  0.51780  0.89850  Biso   1.000  O
  N33      1.0000 0.95860  0.44850  0.95530  Biso   1.000  N
  O131     1.0000 0.66710  0.52420  0.84669  Biso   1.000  O
  O132     1.0000 0.83410  0.30500  0.98630  Biso   1.000  O
  O133     1.0000 0.77240  0.30590  0.95594  Biso   1.000  O
  C290     1.0000 0.83560  0.37140  0.95461  Biso   1.000  C
  C291     1.0000 0.80590  0.40090  0.93769  Biso   1.000  C
  H129     1.0000 0.77140  0.38980  0.93360  Biso   1.000  H
  C292     1.0000 0.66160  0.58730  0.81378  Biso   1.000  C
  C293     1.0000 0.68560  0.56630  0.83785  Biso   1.000  C
  C294     1.0000 0.79210  0.47760  0.90828  Biso   1.000  C
  C295     1.0000 0.62730  0.55860  0.80009  Biso   1.000  C
  H130     1.0000 0.61690  0.52550  0.80670  Biso   1.000  H
  C296     1.0000 0.88540  0.38720  0.96107  Biso   1.000  C
  H131     1.0000 0.90590  0.36750  0.97300  Biso   1.000  H
  C297     1.0000 0.82530  0.44610  0.92666  Biso   1.000  C
  C298     1.0000 0.90520  0.43270  0.94975  Biso   1.000  C
  C299     1.0000 0.87580  0.46290  0.93290  Biso   1.000  C
  H132     1.0000 0.88950  0.49430  0.92580  Biso   1.000  H
  N34      1.0000 0.66500  0.70810  0.77412  Biso   1.000  N
  C300     1.0000 0.68110  0.72480  0.74880  Biso   1.000  C
  H133     1.0000 0.69010  0.70280  0.73460  Biso   1.000  H
  C301     1.0000 0.61980  0.62530  0.76763  Biso   1.000  C
  H134     1.0000 0.60600  0.63820  0.75170  Biso   1.000  H
  C302     1.0000 0.97380  0.49660  0.96434  Biso   1.000  C
  H135     1.0000 0.95150  0.52450  0.96960  Biso   1.000  H
  C303     1.0000 0.60640  0.57570  0.77641  Biso   1.000  C
  C304     1.0000 0.67530  0.63740  0.80487  Biso   1.000  C
  H136     1.0000 0.69960  0.65800  0.81440  Biso   1.000  H
  C305     1.0000 0.65400  0.65630  0.78261  Biso   1.000  C
  O134     1.0000 0.55530  0.50050  0.77101  Biso   1.000  O
  O135     1.0000 0.74770  0.46250  0.90436  Biso   1.000  O
  O136     1.0000 0.55300  0.56210  0.73982  Biso   1.000  O
  C306     1.0000 0.56910  0.54210  0.76180  Biso   1.000  C
  Zn18     1.0000 0.27288  0.06073  0.37336  Biso   1.000  Zn
  O137     1.0000 0.22310  0.09210  0.34771  Biso   1.000  O
  C307     1.0000 0.31180  0.82340  0.46677  Biso   1.000  C
  O138     1.0000 0.31360  0.01780  0.39850  Biso   1.000  O
  N35      1.0000 0.45860  0.94850  0.45530  Biso   1.000  N
  O139     1.0000 0.16710  0.02420  0.34669  Biso   1.000  O
  O140     1.0000 0.33410  0.80500  0.48630  Biso   1.000  O
  O141     1.0000 0.27240  0.80590  0.45594  Biso   1.000  O
  C308     1.0000 0.33560  0.87140  0.45461  Biso   1.000  C
  C309     1.0000 0.30590  0.90090  0.43769  Biso   1.000  C
  H137     1.0000 0.27140  0.88980  0.43360  Biso   1.000  H
  C310     1.0000 0.16160  0.08730  0.31378  Biso   1.000  C
  C311     1.0000 0.18560  0.06630  0.33785  Biso   1.000  C
  C312     1.0000 0.29210  0.97760  0.40828  Biso   1.000  C
  C313     1.0000 0.12730  0.05860  0.30009  Biso   1.000  C
  H138     1.0000 0.11690  0.02550  0.30670  Biso   1.000  H
  C314     1.0000 0.38540  0.88720  0.46107  Biso   1.000  C
  H139     1.0000 0.40590  0.86750  0.47300  Biso   1.000  H
  C315     1.0000 0.32530  0.94610  0.42666  Biso   1.000  C
  C316     1.0000 0.40520  0.93270  0.44975  Biso   1.000  C
  C317     1.0000 0.37580  0.96290  0.43290  Biso   1.000  C
  H140     1.0000 0.38950  0.99430  0.42580  Biso   1.000  H
  N36      1.0000 0.16500  0.20810  0.27412  Biso   1.000  N
  C318     1.0000 0.18110  0.22480  0.24880  Biso   1.000  C
  H141     1.0000 0.19010  0.20280  0.23460  Biso   1.000  H
  C319     1.0000 0.11980  0.12530  0.26763  Biso   1.000  C
  H142     1.0000 0.10600  0.13820  0.25170  Biso   1.000  H
  C320     1.0000 0.47380  0.99660  0.46434  Biso   1.000  C
  H143     1.0000 0.45150  0.02450  0.46960  Biso   1.000  H
  C321     1.0000 0.10640  0.07570  0.27641  Biso   1.000  C
  C322     1.0000 0.17530  0.13740  0.30487  Biso   1.000  C
  H144     1.0000 0.19960  0.15800  0.31440  Biso   1.000  H
  C323     1.0000 0.15400  0.15630  0.28261  Biso   1.000  C
  O142     1.0000 0.05530  0.00050  0.27101  Biso   1.000  O
  O143     1.0000 0.24770  0.96250  0.40436  Biso   1.000  O
  O144     1.0000 0.05300  0.06210  0.23982  Biso   1.000  O
  C324     1.0000 0.06910  0.04210  0.26180  Biso   1.000  C
  Zn19     1.0000 0.72712  0.43927  0.37336  Biso   1.000  Zn
  O145     1.0000 0.77690  0.40790  0.34771  Biso   1.000  O
  C325     1.0000 0.68820  0.67660  0.46677  Biso   1.000  C
  O146     1.0000 0.68640  0.48220  0.39850  Biso   1.000  O
  N37      1.0000 0.54140  0.55150  0.45530  Biso   1.000  N
  O147     1.0000 0.83290  0.47580  0.34669  Biso   1.000  O
  O148     1.0000 0.66590  0.69500  0.48630  Biso   1.000  O
  O149     1.0000 0.72760  0.69410  0.45594  Biso   1.000  O
  C326     1.0000 0.66440  0.62860  0.45461  Biso   1.000  C
  C327     1.0000 0.69410  0.59910  0.43769  Biso   1.000  C
  H145     1.0000 0.72860  0.61020  0.43360  Biso   1.000  H
  C328     1.0000 0.83840  0.41270  0.31378  Biso   1.000  C
  C329     1.0000 0.81440  0.43370  0.33785  Biso   1.000  C
  C330     1.0000 0.70790  0.52240  0.40828  Biso   1.000  C
  C331     1.0000 0.87270  0.44140  0.30009  Biso   1.000  C
  H146     1.0000 0.88310  0.47450  0.30670  Biso   1.000  H
  C332     1.0000 0.61460  0.61280  0.46107  Biso   1.000  C
  H147     1.0000 0.59410  0.63250  0.47300  Biso   1.000  H
  C333     1.0000 0.67470  0.55390  0.42666  Biso   1.000  C
  C334     1.0000 0.59480  0.56730  0.44975  Biso   1.000  C
  C335     1.0000 0.62420  0.53710  0.43290  Biso   1.000  C
  H148     1.0000 0.61050  0.50570  0.42580  Biso   1.000  H
  N38      1.0000 0.83500  0.29190  0.27412  Biso   1.000  N
  C336     1.0000 0.81890  0.27520  0.24880  Biso   1.000  C
  H149     1.0000 0.80990  0.29720  0.23460  Biso   1.000  H
  C337     1.0000 0.88020  0.37470  0.26763  Biso   1.000  C
  H150     1.0000 0.89400  0.36180  0.25170  Biso   1.000  H
  C338     1.0000 0.52620  0.50340  0.46434  Biso   1.000  C
  H151     1.0000 0.54850  0.47550  0.46960  Biso   1.000  H
  C339     1.0000 0.89360  0.42430  0.27641  Biso   1.000  C
  C340     1.0000 0.82470  0.36260  0.30487  Biso   1.000  C
  H152     1.0000 0.80040  0.34200  0.31440  Biso   1.000  H
  C341     1.0000 0.84600  0.34370  0.28261  Biso   1.000  C
  O150     1.0000 0.94470  0.49950  0.27101  Biso   1.000  O
  O151     1.0000 0.75230  0.53750  0.40436  Biso   1.000  O
  O152     1.0000 0.94700  0.43790  0.23982  Biso   1.000  O
  C342     1.0000 0.93090  0.45790  0.26180  Biso   1.000  C
  Zn20     1.0000 0.22712  0.93927  0.87336  Biso   1.000  Zn
  O153     1.0000 0.27690  0.90790  0.84771  Biso   1.000  O
  C343     1.0000 0.18820  0.17660  0.96677  Biso   1.000  C
  O154     1.0000 0.18640  0.98220  0.89850  Biso   1.000  O
  N39      1.0000 0.04140  0.05150  0.95530  Biso   1.000  N
  O155     1.0000 0.33290  0.97580  0.84669  Biso   1.000  O
  O156     1.0000 0.16590  0.19500  0.98630  Biso   1.000  O
  O157     1.0000 0.22760  0.19410  0.95594  Biso   1.000  O
  C344     1.0000 0.16440  0.12860  0.95461  Biso   1.000  C
  C345     1.0000 0.19410  0.09910  0.93769  Biso   1.000  C
  H153     1.0000 0.22860  0.11020  0.93360  Biso   1.000  H
  C346     1.0000 0.33840  0.91270  0.81378  Biso   1.000  C
  C347     1.0000 0.31440  0.93370  0.83785  Biso   1.000  C
  C348     1.0000 0.20790  0.02240  0.90828  Biso   1.000  C
  C349     1.0000 0.37270  0.94140  0.80009  Biso   1.000  C
  H154     1.0000 0.38310  0.97450  0.80670  Biso   1.000  H
  C350     1.0000 0.11460  0.11280  0.96107  Biso   1.000  C
  H155     1.0000 0.09410  0.13250  0.97300  Biso   1.000  H
  C351     1.0000 0.17470  0.05390  0.92666  Biso   1.000  C
  C352     1.0000 0.09480  0.06730  0.94975  Biso   1.000  C
  C353     1.0000 0.12420  0.03710  0.93290  Biso   1.000  C
  H156     1.0000 0.11050  0.00570  0.92580  Biso   1.000  H
  N40      1.0000 0.33500  0.79190  0.77412  Biso   1.000  N
  C354     1.0000 0.31890  0.77520  0.74880  Biso   1.000  C
  H157     1.0000 0.30990  0.79720  0.73460  Biso   1.000  H
  C355     1.0000 0.38020  0.87470  0.76763  Biso   1.000  C
  H158     1.0000 0.39400  0.86180  0.75170  Biso   1.000  H
  C356     1.0000 0.02620  0.00340  0.96434  Biso   1.000  C
  H159     1.0000 0.04850  0.97550  0.96960  Biso   1.000  H
  C357     1.0000 0.39360  0.92430  0.77641  Biso   1.000  C
  C358     1.0000 0.32470  0.86260  0.80487  Biso   1.000  C
  H160     1.0000 0.30040  0.84200  0.81440  Biso   1.000  H
  C359     1.0000 0.34600  0.84370  0.78261  Biso   1.000  C
  O158     1.0000 0.44470  0.99950  0.77101  Biso   1.000  O
  O159     1.0000 0.25230  0.03750  0.90436  Biso   1.000  O
  O160     1.0000 0.44700  0.93790  0.73982  Biso   1.000  O
  C360     1.0000 0.43090  0.95790  0.76180  Biso   1.000  C
  Zn21     1.0000 0.18927  0.02288  0.62336  Biso   1.000  Zn
  O161     1.0000 0.15790  0.97310  0.59771  Biso   1.000  O
  C361     1.0000 0.42660  0.06180  0.71677  Biso   1.000  C
  O162     1.0000 0.23220  0.06360  0.64850  Biso   1.000  O
  N41      1.0000 0.30150  0.20860  0.70530  Biso   1.000  N
  O163     1.0000 0.22580  0.91710  0.59669  Biso   1.000  O
  O164     1.0000 0.44500  0.08410  0.73630  Biso   1.000  O
  O165     1.0000 0.44410  0.02240  0.70594  Biso   1.000  O
  C362     1.0000 0.37860  0.08560  0.70461  Biso   1.000  C
  C363     1.0000 0.34910  0.05590  0.68769  Biso   1.000  C
  H161     1.0000 0.36020  0.02140  0.68360  Biso   1.000  H
  C364     1.0000 0.16270  0.91160  0.56378  Biso   1.000  C
  C365     1.0000 0.18370  0.93560  0.58785  Biso   1.000  C
  C366     1.0000 0.27240  0.04210  0.65828  Biso   1.000  C
  C367     1.0000 0.19140  0.87730  0.55009  Biso   1.000  C
  H162     1.0000 0.22450  0.86690  0.55670  Biso   1.000  H
  C368     1.0000 0.36280  0.13540  0.71107  Biso   1.000  C
  H163     1.0000 0.38250  0.15590  0.72300  Biso   1.000  H
  C369     1.0000 0.30390  0.07530  0.67666  Biso   1.000  C
  C370     1.0000 0.31730  0.15520  0.69975  Biso   1.000  C
  C371     1.0000 0.28710  0.12580  0.68290  Biso   1.000  C
  H164     1.0000 0.25570  0.13950  0.67580  Biso   1.000  H
  N42      1.0000 0.04190  0.91500  0.52412  Biso   1.000  N
  C372     1.0000 0.02520  0.93110  0.49880  Biso   1.000  C
  H165     1.0000 0.04720  0.94010  0.48460  Biso   1.000  H
  C373     1.0000 0.12470  0.86980  0.51763  Biso   1.000  C
  H166     1.0000 0.11180  0.85600  0.50170  Biso   1.000  H
  C374     1.0000 0.25340  0.22380  0.71434  Biso   1.000  C
  H167     1.0000 0.22550  0.20150  0.71960  Biso   1.000  H
  C375     1.0000 0.17430  0.85640  0.52641  Biso   1.000  C
  C376     1.0000 0.11260  0.92530  0.55487  Biso   1.000  C
  H168     1.0000 0.09200  0.94960  0.56440  Biso   1.000  H
  C377     1.0000 0.09370  0.90400  0.53261  Biso   1.000  C
  O166     1.0000 0.24950  0.80530  0.52101  Biso   1.000  O
  O167     1.0000 0.28750  0.99770  0.65436  Biso   1.000  O
  O168     1.0000 0.18790  0.80300  0.48982  Biso   1.000  O
  C378     1.0000 0.20790  0.81910  0.51180  Biso   1.000  C
  Zn22     1.0000 0.68927  0.52288  0.12336  Biso   1.000  Zn
  O169     1.0000 0.65790  0.47310  0.09771  Biso   1.000  O
  C379     1.0000 0.92660  0.56180  0.21677  Biso   1.000  C
  O170     1.0000 0.73220  0.56360  0.14850  Biso   1.000  O
  N43      1.0000 0.80150  0.70860  0.20530  Biso   1.000  N
  O171     1.0000 0.72580  0.41710  0.09669  Biso   1.000  O
  O172     1.0000 0.94500  0.58410  0.23630  Biso   1.000  O
  O173     1.0000 0.94410  0.52240  0.20594  Biso   1.000  O
  C380     1.0000 0.87860  0.58560  0.20461  Biso   1.000  C
  C381     1.0000 0.84910  0.55590  0.18769  Biso   1.000  C
  H169     1.0000 0.86020  0.52140  0.18360  Biso   1.000  H
  C382     1.0000 0.66270  0.41160  0.06378  Biso   1.000  C
  C383     1.0000 0.68370  0.43560  0.08785  Biso   1.000  C
  C384     1.0000 0.77240  0.54210  0.15828  Biso   1.000  C
  C385     1.0000 0.69140  0.37730  0.05009  Biso   1.000  C
  H170     1.0000 0.72450  0.36690  0.05670  Biso   1.000  H
  C386     1.0000 0.86280  0.63540  0.21107  Biso   1.000  C
  H171     1.0000 0.88250  0.65590  0.22300  Biso   1.000  H
  C387     1.0000 0.80390  0.57530  0.17666  Biso   1.000  C
  C388     1.0000 0.81730  0.65520  0.19975  Biso   1.000  C
  C389     1.0000 0.78710  0.62580  0.18290  Biso   1.000  C
  H172     1.0000 0.75570  0.63950  0.17580  Biso   1.000  H
  N44      1.0000 0.54190  0.41500  0.02412  Biso   1.000  N
  C390     1.0000 0.52520  0.43110  0.99880  Biso   1.000  C
  H173     1.0000 0.54720  0.44010  0.98460  Biso   1.000  H
  C391     1.0000 0.62470  0.36980  0.01763  Biso   1.000  C
  H174     1.0000 0.61180  0.35600  0.00170  Biso   1.000  H
  C392     1.0000 0.75340  0.72380  0.21434  Biso   1.000  C
  H175     1.0000 0.72550  0.70150  0.21960  Biso   1.000  H
  C393     1.0000 0.67430  0.35640  0.02641  Biso   1.000  C
  C394     1.0000 0.61260  0.42530  0.05487  Biso   1.000  C
  H176     1.0000 0.59200  0.44960  0.06440  Biso   1.000  H
  C395     1.0000 0.59370  0.40400  0.03261  Biso   1.000  C
  O174     1.0000 0.74950  0.30530  0.02101  Biso   1.000  O
  O175     1.0000 0.78750  0.49770  0.15436  Biso   1.000  O
  O176     1.0000 0.68790  0.30300  0.98982  Biso   1.000  O
  C396     1.0000 0.70790  0.31910  0.01180  Biso   1.000  C
  Zn23     1.0000 0.31073  0.97712  0.12336  Biso   1.000  Zn
  O177     1.0000 0.34210  0.02690  0.09771  Biso   1.000  O
  C397     1.0000 0.07340  0.93820  0.21677  Biso   1.000  C
  O178     1.0000 0.26780  0.93640  0.14850  Biso   1.000  O
  N45      1.0000 0.19850  0.79140  0.20530  Biso   1.000  N
  O179     1.0000 0.27420  0.08290  0.09669  Biso   1.000  O
  O180     1.0000 0.05500  0.91590  0.23630  Biso   1.000  O
  O181     1.0000 0.05590  0.97760  0.20594  Biso   1.000  O
  C398     1.0000 0.12140  0.91440  0.20461  Biso   1.000  C
  C399     1.0000 0.15090  0.94410  0.18769  Biso   1.000  C
  H177     1.0000 0.13980  0.97860  0.18360  Biso   1.000  H
  C400     1.0000 0.33730  0.08840  0.06378  Biso   1.000  C
  C401     1.0000 0.31630  0.06440  0.08785  Biso   1.000  C
  C402     1.0000 0.22760  0.95790  0.15828  Biso   1.000  C
  C403     1.0000 0.30860  0.12270  0.05009  Biso   1.000  C
  H178     1.0000 0.27550  0.13310  0.05670  Biso   1.000  H
  C404     1.0000 0.13720  0.86460  0.21107  Biso   1.000  C
  H179     1.0000 0.11750  0.84410  0.22300  Biso   1.000  H
  C405     1.0000 0.19610  0.92470  0.17666  Biso   1.000  C
  C406     1.0000 0.18270  0.84480  0.19975  Biso   1.000  C
  C407     1.0000 0.21290  0.87420  0.18290  Biso   1.000  C
  H180     1.0000 0.24430  0.86050  0.17580  Biso   1.000  H
  N46      1.0000 0.45810  0.08500  0.02412  Biso   1.000  N
  C408     1.0000 0.47480  0.06890  0.99880  Biso   1.000  C
  H181     1.0000 0.45280  0.05990  0.98460  Biso   1.000  H
  C409     1.0000 0.37530  0.13020  0.01763  Biso   1.000  C
  H182     1.0000 0.38820  0.14400  0.00170  Biso   1.000  H
  C410     1.0000 0.24660  0.77620  0.21434  Biso   1.000  C
  H183     1.0000 0.27450  0.79850  0.21960  Biso   1.000  H
  C411     1.0000 0.32570  0.14360  0.02641  Biso   1.000  C
  C412     1.0000 0.38740  0.07470  0.05487  Biso   1.000  C
  H184     1.0000 0.40800  0.05040  0.06440  Biso   1.000  H
  C413     1.0000 0.40630  0.09600  0.03261  Biso   1.000  C
  O182     1.0000 0.25050  0.19470  0.02101  Biso   1.000  O
  O183     1.0000 0.21250  0.00230  0.15436  Biso   1.000  O
  O184     1.0000 0.31210  0.19700  0.98982  Biso   1.000  O
  C414     1.0000 0.29210  0.18090  0.01180  Biso   1.000  C
  Zn24     1.0000 0.81073  0.47712  0.62336  Biso   1.000  Zn
  O185     1.0000 0.84210  0.52690  0.59771  Biso   1.000  O
  C415     1.0000 0.57340  0.43820  0.71677  Biso   1.000  C
  O186     1.0000 0.76780  0.43640  0.64850  Biso   1.000  O
  N47      1.0000 0.69850  0.29140  0.70530  Biso   1.000  N
  O187     1.0000 0.77420  0.58290  0.59669  Biso   1.000  O
  O188     1.0000 0.55500  0.41590  0.73630  Biso   1.000  O
  O189     1.0000 0.55590  0.47760  0.70594  Biso   1.000  O
  C416     1.0000 0.62140  0.41440  0.70461  Biso   1.000  C
  C417     1.0000 0.65090  0.44410  0.68769  Biso   1.000  C
  H185     1.0000 0.63980  0.47860  0.68360  Biso   1.000  H
  C418     1.0000 0.83730  0.58840  0.56378  Biso   1.000  C
  C419     1.0000 0.81630  0.56440  0.58785  Biso   1.000  C
  C420     1.0000 0.72760  0.45790  0.65828  Biso   1.000  C
  C421     1.0000 0.80860  0.62270  0.55009  Biso   1.000  C
  H186     1.0000 0.77550  0.63310  0.55670  Biso   1.000  H
  C422     1.0000 0.63720  0.36460  0.71107  Biso   1.000  C
  H187     1.0000 0.61750  0.34410  0.72300  Biso   1.000  H
  C423     1.0000 0.69610  0.42470  0.67666  Biso   1.000  C
  C424     1.0000 0.68270  0.34480  0.69975  Biso   1.000  C
  C425     1.0000 0.71290  0.37420  0.68290  Biso   1.000  C
  H188     1.0000 0.74430  0.36050  0.67580  Biso   1.000  H
  N48      1.0000 0.95810  0.58500  0.52412  Biso   1.000  N
  C426     1.0000 0.97480  0.56890  0.49880  Biso   1.000  C
  H189     1.0000 0.95280  0.55990  0.48460  Biso   1.000  H
  C427     1.0000 0.87530  0.63020  0.51763  Biso   1.000  C
  H190     1.0000 0.88820  0.64400  0.50170  Biso   1.000  H
  C428     1.0000 0.74660  0.27620  0.71434  Biso   1.000  C
  H191     1.0000 0.77450  0.29850  0.71960  Biso   1.000  H
  C429     1.0000 0.82570  0.64360  0.52641  Biso   1.000  C
  C430     1.0000 0.88740  0.57470  0.55487  Biso   1.000  C
  H192     1.0000 0.90800  0.55040  0.56440  Biso   1.000  H
  C431     1.0000 0.90630  0.59600  0.53261  Biso   1.000  C
  O190     1.0000 0.75050  0.69470  0.52101  Biso   1.000  O
  O191     1.0000 0.71250  0.50230  0.65436  Biso   1.000  O
  O192     1.0000 0.81210  0.69700  0.48982  Biso   1.000  O
  C432     1.0000 0.79210  0.68090  0.51180  Biso   1.000  C
  Zn25     1.0000 0.72712  0.56073  0.62664  Biso   1.000  Zn
  O193     1.0000 0.77690  0.59210  0.65229  Biso   1.000  O
  C433     1.0000 0.68820  0.32340  0.53323  Biso   1.000  C
  O194     1.0000 0.68640  0.51780  0.60150  Biso   1.000  O
  N49      1.0000 0.54140  0.44850  0.54470  Biso   1.000  N
  O195     1.0000 0.83290  0.52420  0.65331  Biso   1.000  O
  O196     1.0000 0.66590  0.30500  0.51370  Biso   1.000  O
  O197     1.0000 0.72760  0.30590  0.54406  Biso   1.000  O
  C434     1.0000 0.66440  0.37140  0.54539  Biso   1.000  C
  C435     1.0000 0.69410  0.40090  0.56231  Biso   1.000  C
  H193     1.0000 0.72860  0.38980  0.56640  Biso   1.000  H
  C436     1.0000 0.83840  0.58730  0.68622  Biso   1.000  C
  C437     1.0000 0.81440  0.56630  0.66215  Biso   1.000  C
  C438     1.0000 0.70790  0.47760  0.59172  Biso   1.000  C
  C439     1.0000 0.87270  0.55860  0.69991  Biso   1.000  C
  H194     1.0000 0.88310  0.52550  0.69330  Biso   1.000  H
  C440     1.0000 0.61460  0.38720  0.53893  Biso   1.000  C
  H195     1.0000 0.59410  0.36750  0.52700  Biso   1.000  H
  C441     1.0000 0.67470  0.44610  0.57334  Biso   1.000  C
  C442     1.0000 0.59480  0.43270  0.55025  Biso   1.000  C
  C443     1.0000 0.62420  0.46290  0.56710  Biso   1.000  C
  H196     1.0000 0.61050  0.49430  0.57420  Biso   1.000  H
  N50      1.0000 0.83500  0.70810  0.72588  Biso   1.000  N
  C444     1.0000 0.81890  0.72480  0.75120  Biso   1.000  C
  H197     1.0000 0.80990  0.70280  0.76540  Biso   1.000  H
  C445     1.0000 0.88020  0.62530  0.73237  Biso   1.000  C
  H198     1.0000 0.89400  0.63820  0.74830  Biso   1.000  H
  C446     1.0000 0.52620  0.49660  0.53566  Biso   1.000  C
  H199     1.0000 0.54850  0.52450  0.53040  Biso   1.000  H
  C447     1.0000 0.89360  0.57570  0.72359  Biso   1.000  C
  C448     1.0000 0.82470  0.63740  0.69513  Biso   1.000  C
  H200     1.0000 0.80040  0.65800  0.68560  Biso   1.000  H
  C449     1.0000 0.84600  0.65630  0.71739  Biso   1.000  C
  O198     1.0000 0.94470  0.50050  0.72899  Biso   1.000  O
  O199     1.0000 0.75230  0.46250  0.59564  Biso   1.000  O
  O200     1.0000 0.94700  0.56210  0.76018  Biso   1.000  O
  C450     1.0000 0.93090  0.54210  0.73820  Biso   1.000  C
  Zn26     1.0000 0.22712  0.06073  0.12664  Biso   1.000  Zn
  O201     1.0000 0.27690  0.09210  0.15229  Biso   1.000  O
  C451     1.0000 0.18820  0.82340  0.03323  Biso   1.000  C
  O202     1.0000 0.18640  0.01780  0.10150  Biso   1.000  O
  N51      1.0000 0.04140  0.94850  0.04470  Biso   1.000  N
  O203     1.0000 0.33290  0.02420  0.15331  Biso   1.000  O
  O204     1.0000 0.16590  0.80500  0.01370  Biso   1.000  O
  O205     1.0000 0.22760  0.80590  0.04406  Biso   1.000  O
  C452     1.0000 0.16440  0.87140  0.04539  Biso   1.000  C
  C453     1.0000 0.19410  0.90090  0.06231  Biso   1.000  C
  H201     1.0000 0.22860  0.88980  0.06640  Biso   1.000  H
  C454     1.0000 0.33840  0.08730  0.18622  Biso   1.000  C
  C455     1.0000 0.31440  0.06630  0.16215  Biso   1.000  C
  C456     1.0000 0.20790  0.97760  0.09172  Biso   1.000  C
  C457     1.0000 0.37270  0.05860  0.19991  Biso   1.000  C
  H202     1.0000 0.38310  0.02550  0.19330  Biso   1.000  H
  C458     1.0000 0.11460  0.88720  0.03893  Biso   1.000  C
  H203     1.0000 0.09410  0.86750  0.02700  Biso   1.000  H
  C459     1.0000 0.17470  0.94610  0.07334  Biso   1.000  C
  C460     1.0000 0.09480  0.93270  0.05025  Biso   1.000  C
  C461     1.0000 0.12420  0.96290  0.06710  Biso   1.000  C
  H204     1.0000 0.11050  0.99430  0.07420  Biso   1.000  H
  N52      1.0000 0.33500  0.20810  0.22588  Biso   1.000  N
  C462     1.0000 0.31890  0.22480  0.25120  Biso   1.000  C
  H205     1.0000 0.30990  0.20280  0.26540  Biso   1.000  H
  C463     1.0000 0.38020  0.12530  0.23237  Biso   1.000  C
  H206     1.0000 0.39400  0.13820  0.24830  Biso   1.000  H
  C464     1.0000 0.02620  0.99660  0.03566  Biso   1.000  C
  H207     1.0000 0.04850  0.02450  0.03040  Biso   1.000  H
  C465     1.0000 0.39360  0.07570  0.22359  Biso   1.000  C
  C466     1.0000 0.32470  0.13740  0.19513  Biso   1.000  C
  H208     1.0000 0.30040  0.15800  0.18560  Biso   1.000  H
  C467     1.0000 0.34600  0.15630  0.21739  Biso   1.000  C
  O206     1.0000 0.44470  0.00050  0.22899  Biso   1.000  O
  O207     1.0000 0.25230  0.96250  0.09564  Biso   1.000  O
  O208     1.0000 0.44700  0.06210  0.26018  Biso   1.000  O
  C468     1.0000 0.43090  0.04210  0.23820  Biso   1.000  C
  Zn27     1.0000 0.77288  0.43927  0.12664  Biso   1.000  Zn
  O209     1.0000 0.72310  0.40790  0.15229  Biso   1.000  O
  C469     1.0000 0.81180  0.67660  0.03323  Biso   1.000  C
  O210     1.0000 0.81360  0.48220  0.10150  Biso   1.000  O
  N53      1.0000 0.95860  0.55150  0.04470  Biso   1.000  N
  O211     1.0000 0.66710  0.47580  0.15331  Biso   1.000  O
  O212     1.0000 0.83410  0.69500  0.01370  Biso   1.000  O
  O213     1.0000 0.77240  0.69410  0.04406  Biso   1.000  O
  C470     1.0000 0.83560  0.62860  0.04539  Biso   1.000  C
  C471     1.0000 0.80590  0.59910  0.06231  Biso   1.000  C
  H209     1.0000 0.77140  0.61020  0.06640  Biso   1.000  H
  C472     1.0000 0.66160  0.41270  0.18622  Biso   1.000  C
  C473     1.0000 0.68560  0.43370  0.16215  Biso   1.000  C
  C474     1.0000 0.79210  0.52240  0.09172  Biso   1.000  C
  C475     1.0000 0.62730  0.44140  0.19991  Biso   1.000  C
  H210     1.0000 0.61690  0.47450  0.19330  Biso   1.000  H
  C476     1.0000 0.88540  0.61280  0.03893  Biso   1.000  C
  H211     1.0000 0.90590  0.63250  0.02700  Biso   1.000  H
  C477     1.0000 0.82530  0.55390  0.07334  Biso   1.000  C
  C478     1.0000 0.90520  0.56730  0.05025  Biso   1.000  C
  C479     1.0000 0.87580  0.53710  0.06710  Biso   1.000  C
  H212     1.0000 0.88950  0.50570  0.07420  Biso   1.000  H
  N54      1.0000 0.66500  0.29190  0.22588  Biso   1.000  N
  C480     1.0000 0.68110  0.27520  0.25120  Biso   1.000  C
  H213     1.0000 0.69010  0.29720  0.26540  Biso   1.000  H
  C481     1.0000 0.61980  0.37470  0.23237  Biso   1.000  C
  H214     1.0000 0.60600  0.36180  0.24830  Biso   1.000  H
  C482     1.0000 0.97380  0.50340  0.03566  Biso   1.000  C
  H215     1.0000 0.95150  0.47550  0.03040  Biso   1.000  H
  C483     1.0000 0.60640  0.42430  0.22359  Biso   1.000  C
  C484     1.0000 0.67530  0.36260  0.19513  Biso   1.000  C
  H216     1.0000 0.69960  0.34200  0.18560  Biso   1.000  H
  C485     1.0000 0.65400  0.34370  0.21739  Biso   1.000  C
  O214     1.0000 0.55530  0.49950  0.22899  Biso   1.000  O
  O215     1.0000 0.74770  0.53750  0.09564  Biso   1.000  O
  O216     1.0000 0.55300  0.43790  0.26018  Biso   1.000  O
  C486     1.0000 0.56910  0.45790  0.23820  Biso   1.000  C
  Zn28     1.0000 0.27288  0.93927  0.62664  Biso   1.000  Zn
  O217     1.0000 0.22310  0.90790  0.65229  Biso   1.000  O
  C487     1.0000 0.31180  0.17660  0.53323  Biso   1.000  C
  O218     1.0000 0.31360  0.98220  0.60150  Biso   1.000  O
  N55      1.0000 0.45860  0.05150  0.54470  Biso   1.000  N
  O219     1.0000 0.16710  0.97580  0.65331  Biso   1.000  O
  O220     1.0000 0.33410  0.19500  0.51370  Biso   1.000  O
  O221     1.0000 0.27240  0.19410  0.54406  Biso   1.000  O
  C488     1.0000 0.33560  0.12860  0.54539  Biso   1.000  C
  C489     1.0000 0.30590  0.09910  0.56231  Biso   1.000  C
  H217     1.0000 0.27140  0.11020  0.56640  Biso   1.000  H
  C490     1.0000 0.16160  0.91270  0.68622  Biso   1.000  C
  C491     1.0000 0.18560  0.93370  0.66215  Biso   1.000  C
  C492     1.0000 0.29210  0.02240  0.59172  Biso   1.000  C
  C493     1.0000 0.12730  0.94140  0.69991  Biso   1.000  C
  H218     1.0000 0.11690  0.97450  0.69330  Biso   1.000  H
  C494     1.0000 0.38540  0.11280  0.53893  Biso   1.000  C
  H219     1.0000 0.40590  0.13250  0.52700  Biso   1.000  H
  C495     1.0000 0.32530  0.05390  0.57334  Biso   1.000  C
  C496     1.0000 0.40520  0.06730  0.55025  Biso   1.000  C
  C497     1.0000 0.37580  0.03710  0.56710  Biso   1.000  C
  H220     1.0000 0.38950  0.00570  0.57420  Biso   1.000  H
  N56      1.0000 0.16500  0.79190  0.72588  Biso   1.000  N
  C498     1.0000 0.18110  0.77520  0.75120  Biso   1.000  C
  H221     1.0000 0.19010  0.79720  0.76540  Biso   1.000  H
  C499     1.0000 0.11980  0.87470  0.73237  Biso   1.000  C
  H222     1.0000 0.10600  0.86180  0.74830  Biso   1.000  H
  C500     1.0000 0.47380  0.00340  0.53566  Biso   1.000  C
  H223     1.0000 0.45150  0.97550  0.53040  Biso   1.000  H
  C501     1.0000 0.10640  0.92430  0.72359  Biso   1.000  C
  C502     1.0000 0.17530  0.86260  0.69513  Biso   1.000  C
  H224     1.0000 0.19960  0.84200  0.68560  Biso   1.000  H
  C503     1.0000 0.15400  0.84370  0.71739  Biso   1.000  C
  O222     1.0000 0.05530  0.99950  0.72899  Biso   1.000  O
  O223     1.0000 0.24770  0.03750  0.59564  Biso   1.000  O
  O224     1.0000 0.05300  0.93790  0.76018  Biso   1.000  O
  C504     1.0000 0.06910  0.95790  0.73820  Biso   1.000  C
  Zn29     1.0000 0.31073  0.02288  0.87664  Biso   1.000  Zn
  O225     1.0000 0.34210  0.97310  0.90229  Biso   1.000  O
  C505     1.0000 0.07340  0.06180  0.78323  Biso   1.000  C
  O226     1.0000 0.26780  0.06360  0.85150  Biso   1.000  O
  N57      1.0000 0.19850  0.20860  0.79470  Biso   1.000  N
  O227     1.0000 0.27420  0.91710  0.90331  Biso   1.000  O
  O228     1.0000 0.05500  0.08410  0.76370  Biso   1.000  O
  O229     1.0000 0.05590  0.02240  0.79406  Biso   1.000  O
  C506     1.0000 0.12140  0.08560  0.79539  Biso   1.000  C
  C507     1.0000 0.15090  0.05590  0.81231  Biso   1.000  C
  H225     1.0000 0.13980  0.02140  0.81640  Biso   1.000  H
  C508     1.0000 0.33730  0.91160  0.93622  Biso   1.000  C
  C509     1.0000 0.31630  0.93560  0.91215  Biso   1.000  C
  C510     1.0000 0.22760  0.04210  0.84172  Biso   1.000  C
  C511     1.0000 0.30860  0.87730  0.94991  Biso   1.000  C
  H226     1.0000 0.27550  0.86690  0.94330  Biso   1.000  H
  C512     1.0000 0.13720  0.13540  0.78893  Biso   1.000  C
  H227     1.0000 0.11750  0.15590  0.77700  Biso   1.000  H
  C513     1.0000 0.19610  0.07530  0.82334  Biso   1.000  C
  C514     1.0000 0.18270  0.15520  0.80025  Biso   1.000  C
  C515     1.0000 0.21290  0.12580  0.81710  Biso   1.000  C
  H228     1.0000 0.24430  0.13950  0.82420  Biso   1.000  H
  N58      1.0000 0.45810  0.91500  0.97588  Biso   1.000  N
  C516     1.0000 0.47480  0.93110  0.00120  Biso   1.000  C
  H229     1.0000 0.45280  0.94010  0.01540  Biso   1.000  H
  C517     1.0000 0.37530  0.86980  0.98237  Biso   1.000  C
  H230     1.0000 0.38820  0.85600  0.99830  Biso   1.000  H
  C518     1.0000 0.24660  0.22380  0.78566  Biso   1.000  C
  H231     1.0000 0.27450  0.20150  0.78040  Biso   1.000  H
  C519     1.0000 0.32570  0.85640  0.97359  Biso   1.000  C
  C520     1.0000 0.38740  0.92530  0.94513  Biso   1.000  C
  H232     1.0000 0.40800  0.94960  0.93560  Biso   1.000  H
  C521     1.0000 0.40630  0.90400  0.96739  Biso   1.000  C
  O230     1.0000 0.25050  0.80530  0.97899  Biso   1.000  O
  O231     1.0000 0.21250  0.99770  0.84564  Biso   1.000  O
  O232     1.0000 0.31210  0.80300  0.01018  Biso   1.000  O
  C522     1.0000 0.29210  0.81910  0.98820  Biso   1.000  C
  Zn30     1.0000 0.81073  0.52288  0.37664  Biso   1.000  Zn
  O233     1.0000 0.84210  0.47310  0.40229  Biso   1.000  O
  C523     1.0000 0.57340  0.56180  0.28323  Biso   1.000  C
  O234     1.0000 0.76780  0.56360  0.35150  Biso   1.000  O
  N59      1.0000 0.69850  0.70860  0.29470  Biso   1.000  N
  O235     1.0000 0.77420  0.41710  0.40331  Biso   1.000  O
  O236     1.0000 0.55500  0.58410  0.26370  Biso   1.000  O
  O237     1.0000 0.55590  0.52240  0.29406  Biso   1.000  O
  C524     1.0000 0.62140  0.58560  0.29539  Biso   1.000  C
  C525     1.0000 0.65090  0.55590  0.31231  Biso   1.000  C
  H233     1.0000 0.63980  0.52140  0.31640  Biso   1.000  H
  C526     1.0000 0.83730  0.41160  0.43622  Biso   1.000  C
  C527     1.0000 0.81630  0.43560  0.41215  Biso   1.000  C
  C528     1.0000 0.72760  0.54210  0.34172  Biso   1.000  C
  C529     1.0000 0.80860  0.37730  0.44991  Biso   1.000  C
  H234     1.0000 0.77550  0.36690  0.44330  Biso   1.000  H
  C530     1.0000 0.63720  0.63540  0.28893  Biso   1.000  C
  H235     1.0000 0.61750  0.65590  0.27700  Biso   1.000  H
  C531     1.0000 0.69610  0.57530  0.32334  Biso   1.000  C
  C532     1.0000 0.68270  0.65520  0.30025  Biso   1.000  C
  C533     1.0000 0.71290  0.62580  0.31710  Biso   1.000  C
  H236     1.0000 0.74430  0.63950  0.32420  Biso   1.000  H
  N60      1.0000 0.95810  0.41500  0.47588  Biso   1.000  N
  C534     1.0000 0.97480  0.43110  0.50120  Biso   1.000  C
  H237     1.0000 0.95280  0.44010  0.51540  Biso   1.000  H
  C535     1.0000 0.87530  0.36980  0.48237  Biso   1.000  C
  H238     1.0000 0.88820  0.35600  0.49830  Biso   1.000  H
  C536     1.0000 0.74660  0.72380  0.28566  Biso   1.000  C
  H239     1.0000 0.77450  0.70150  0.28040  Biso   1.000  H
  C537     1.0000 0.82570  0.35640  0.47359  Biso   1.000  C
  C538     1.0000 0.88740  0.42530  0.44513  Biso   1.000  C
  H240     1.0000 0.90800  0.44960  0.43560  Biso   1.000  H
  C539     1.0000 0.90630  0.40400  0.46739  Biso   1.000  C
  O238     1.0000 0.75050  0.30530  0.47899  Biso   1.000  O
  O239     1.0000 0.71250  0.49770  0.34564  Biso   1.000  O
  O240     1.0000 0.81210  0.30300  0.51018  Biso   1.000  O
  C540     1.0000 0.79210  0.31910  0.48820  Biso   1.000  C
  Zn31     1.0000 0.18927  0.97712  0.37664  Biso   1.000  Zn
  O241     1.0000 0.15790  0.02690  0.40229  Biso   1.000  O
  C541     1.0000 0.42660  0.93820  0.28323  Biso   1.000  C
  O242     1.0000 0.23220  0.93640  0.35150  Biso   1.000  O
  N61      1.0000 0.30150  0.79140  0.29470  Biso   1.000  N
  O243     1.0000 0.22580  0.08290  0.40331  Biso   1.000  O
  O244     1.0000 0.44500  0.91590  0.26370  Biso   1.000  O
  O245     1.0000 0.44410  0.97760  0.29406  Biso   1.000  O
  C542     1.0000 0.37860  0.91440  0.29539  Biso   1.000  C
  C543     1.0000 0.34910  0.94410  0.31231  Biso   1.000  C
  H241     1.0000 0.36020  0.97860  0.31640  Biso   1.000  H
  C544     1.0000 0.16270  0.08840  0.43622  Biso   1.000  C
  C545     1.0000 0.18370  0.06440  0.41215  Biso   1.000  C
  C546     1.0000 0.27240  0.95790  0.34172  Biso   1.000  C
  C547     1.0000 0.19140  0.12270  0.44991  Biso   1.000  C
  H242     1.0000 0.22450  0.13310  0.44330  Biso   1.000  H
  C548     1.0000 0.36280  0.86460  0.28893  Biso   1.000  C
  H243     1.0000 0.38250  0.84410  0.27700  Biso   1.000  H
  C549     1.0000 0.30390  0.92470  0.32334  Biso   1.000  C
  C550     1.0000 0.31730  0.84480  0.30025  Biso   1.000  C
  C551     1.0000 0.28710  0.87420  0.31710  Biso   1.000  C
  H244     1.0000 0.25570  0.86050  0.32420  Biso   1.000  H
  N62      1.0000 0.04190  0.08500  0.47588  Biso   1.000  N
  C552     1.0000 0.02520  0.06890  0.50120  Biso   1.000  C
  H245     1.0000 0.04720  0.05990  0.51540  Biso   1.000  H
  C553     1.0000 0.12470  0.13020  0.48237  Biso   1.000  C
  H246     1.0000 0.11180  0.14400  0.49830  Biso   1.000  H
  C554     1.0000 0.25340  0.77620  0.28566  Biso   1.000  C
  H247     1.0000 0.22550  0.79850  0.28040  Biso   1.000  H
  C555     1.0000 0.17430  0.14360  0.47359  Biso   1.000  C
  C556     1.0000 0.11260  0.07470  0.44513  Biso   1.000  C
  H248     1.0000 0.09200  0.05040  0.43560  Biso   1.000  H
  C557     1.0000 0.09370  0.09600  0.46739  Biso   1.000  C
  O246     1.0000 0.24950  0.19470  0.47899  Biso   1.000  O
  O247     1.0000 0.28750  0.00230  0.34564  Biso   1.000  O
  O248     1.0000 0.18790  0.19700  0.51018  Biso   1.000  O
  C558     1.0000 0.20790  0.18090  0.48820  Biso   1.000  C
  Zn32     1.0000 0.68927  0.47712  0.87664  Biso   1.000  Zn
  O249     1.0000 0.65790  0.52690  0.90229  Biso   1.000  O
  C559     1.0000 0.92660  0.43820  0.78323  Biso   1.000  C
  O250     1.0000 0.73220  0.43640  0.85150  Biso   1.000  O
  N63      1.0000 0.80150  0.29140  0.79470  Biso   1.000  N
  O251     1.0000 0.72580  0.58290  0.90331  Biso   1.000  O
  O252     1.0000 0.94500  0.41590  0.76370  Biso   1.000  O
  O253     1.0000 0.94410  0.47760  0.79406  Biso   1.000  O
  C560     1.0000 0.87860  0.41440  0.79539  Biso   1.000  C
  C561     1.0000 0.84910  0.44410  0.81231  Biso   1.000  C
  H249     1.0000 0.86020  0.47860  0.81640  Biso   1.000  H
  C562     1.0000 0.66270  0.58840  0.93622  Biso   1.000  C
  C563     1.0000 0.68370  0.56440  0.91215  Biso   1.000  C
  C564     1.0000 0.77240  0.45790  0.84172  Biso   1.000  C
  C565     1.0000 0.69140  0.62270  0.94991  Biso   1.000  C
  H250     1.0000 0.72450  0.63310  0.94330  Biso   1.000  H
  C566     1.0000 0.86280  0.36460  0.78893  Biso   1.000  C
  H251     1.0000 0.88250  0.34410  0.77700  Biso   1.000  H
  C567     1.0000 0.80390  0.42470  0.82334  Biso   1.000  C
  C568     1.0000 0.81730  0.34480  0.80025  Biso   1.000  C
  C569     1.0000 0.78710  0.37420  0.81710  Biso   1.000  C
  H252     1.0000 0.75570  0.36050  0.82420  Biso   1.000  H
  N64      1.0000 0.54190  0.58500  0.97588  Biso   1.000  N
  C570     1.0000 0.52520  0.56890  0.00120  Biso   1.000  C
  H253     1.0000 0.54720  0.55990  0.01540  Biso   1.000  H
  C571     1.0000 0.62470  0.63020  0.98237  Biso   1.000  C
  H254     1.0000 0.61180  0.64400  0.99830  Biso   1.000  H
  C572     1.0000 0.75340  0.27620  0.78566  Biso   1.000  C
  H255     1.0000 0.72550  0.29850  0.78040  Biso   1.000  H
  C573     1.0000 0.67430  0.64360  0.97359  Biso   1.000  C
  C574     1.0000 0.61260  0.57470  0.94513  Biso   1.000  C
  H256     1.0000 0.59200  0.55040  0.93560  Biso   1.000  H
  C575     1.0000 0.59370  0.59600  0.96739  Biso   1.000  C
  O254     1.0000 0.74950  0.69470  0.97899  Biso   1.000  O
  O255     1.0000 0.78750  0.50230  0.84564  Biso   1.000  O
  O256     1.0000 0.68790  0.69700  0.01018  Biso   1.000  O
  C576     1.0000 0.70790  0.68090  0.98820  Biso   1.000  C
  Zn33     1.0000 0.27900  0.75000  0.03325  Biso   1.000  Zn
  Zn34     1.0000 0.19784  0.75000  0.99077  Biso   1.000  Zn
  Zn35     1.0000 0.22100  0.25000  0.53325  Biso   1.000  Zn
  Zn36     1.0000 0.30216  0.25000  0.49077  Biso   1.000  Zn
  Zn37     1.0000 0.50000  0.02900  0.28325  Biso   1.000  Zn
  Zn38     1.0000 0.50000  0.94784  0.24077  Biso   1.000  Zn
  Zn39     1.0000 0.00000  0.52900  0.78325  Biso   1.000  Zn
  Zn40     1.0000 0.00000  0.44784  0.74077  Biso   1.000  Zn
  Zn41     1.0000 0.00000  0.97100  0.78325  Biso   1.000  Zn
  Zn42     1.0000 0.00000  0.05216  0.74077  Biso   1.000  Zn
  Zn43     1.0000 0.50000  0.47100  0.28325  Biso   1.000  Zn
  Zn44     1.0000 0.50000  0.55216  0.24077  Biso   1.000  Zn
  Zn45     1.0000 0.22100  0.75000  0.46675  Biso   1.000  Zn
  Zn46     1.0000 0.30216  0.75000  0.50923  Biso   1.000  Zn
  Zn47     1.0000 0.27900  0.25000  0.96675  Biso   1.000  Zn
  Zn48     1.0000 0.19784  0.25000  0.00923  Biso   1.000  Zn
  Zn49     1.0000 0.00000  0.02900  0.21675  Biso   1.000  Zn
  Zn50     1.0000 0.00000  0.94784  0.25923  Biso   1.000  Zn
  Zn51     1.0000 0.50000  0.52900  0.71675  Biso   1.000  Zn
  Zn52     1.0000 0.50000  0.44784  0.75923  Biso   1.000  Zn
  Zn53     1.0000 0.50000  0.97100  0.71675  Biso   1.000  Zn
  Zn54     1.0000 0.50000  0.05216  0.75923  Biso   1.000  Zn
  Zn55     1.0000 0.00000  0.47100  0.21675  Biso   1.000  Zn
  Zn56     1.0000 0.00000  0.55216  0.25923  Biso   1.000  Zn
  Zn57     1.0000 0.72100  0.25000  0.96675  Biso   1.000  Zn
  Zn58     1.0000 0.80216  0.25000  0.00923  Biso   1.000  Zn
  Zn59     1.0000 0.77900  0.75000  0.46675  Biso   1.000  Zn
  Zn60     1.0000 0.69784  0.75000  0.50923  Biso   1.000  Zn
  Zn61     1.0000 0.77900  0.25000  0.53325  Biso   1.000  Zn
  Zn62     1.0000 0.69784  0.25000  0.49077  Biso   1.000  Zn
  Zn63     1.0000 0.72100  0.75000  0.03325  Biso   1.000  Zn
  Zn64     1.0000 0.80216  0.75000  0.99077  Biso   1.000  Zn
  C577     1.0000 0.34450  0.25000  0.21150  Biso   1.000  C
  H257     1.0000 0.35610  0.25000  0.19400  Biso   1.000  H
  C578     1.0000 0.15550  0.75000  0.71150  Biso   1.000  C
  H258     1.0000 0.14390  0.75000  0.69400  Biso   1.000  H
  C579     1.0000 0.00000  0.09450  0.46150  Biso   1.000  C
  H259     1.0000 0.00000  0.10610  0.44400  Biso   1.000  H
  C580     1.0000 0.50000  0.59450  0.96150  Biso   1.000  C
  H260     1.0000 0.50000  0.60610  0.94400  Biso   1.000  H
  C581     1.0000 0.50000  0.90550  0.96150  Biso   1.000  C
  H261     1.0000 0.50000  0.89390  0.94400  Biso   1.000  H
  C582     1.0000 0.00000  0.40550  0.46150  Biso   1.000  C
  H262     1.0000 0.00000  0.39390  0.44400  Biso   1.000  H
  C583     1.0000 0.15550  0.25000  0.28850  Biso   1.000  C
  H263     1.0000 0.14390  0.25000  0.30600  Biso   1.000  H
  C584     1.0000 0.34450  0.75000  0.78850  Biso   1.000  C
  H264     1.0000 0.35610  0.75000  0.80600  Biso   1.000  H
  C585     1.0000 0.84450  0.25000  0.28850  Biso   1.000  C
  H265     1.0000 0.85610  0.25000  0.30600  Biso   1.000  H
  C586     1.0000 0.50000  0.09450  0.03850  Biso   1.000  C
  H266     1.0000 0.50000  0.10610  0.05600  Biso   1.000  H
  C587     1.0000 0.00000  0.59450  0.53850  Biso   1.000  C
  H267     1.0000 0.00000  0.60610  0.55600  Biso   1.000  H
  C588     1.0000 0.00000  0.90550  0.53850  Biso   1.000  C
  H268     1.0000 0.00000  0.89390  0.55600  Biso   1.000  H
  C589     1.0000 0.50000  0.40550  0.03850  Biso   1.000  C
  H269     1.0000 0.50000  0.39390  0.05600  Biso   1.000  H
  C590     1.0000 0.65550  0.75000  0.78850  Biso   1.000  C
  H270     1.0000 0.64390  0.75000  0.80600  Biso   1.000  H
  C591     1.0000 0.84450  0.75000  0.71150  Biso   1.000  C
  H271     1.0000 0.85610  0.75000  0.69400  Biso   1.000  H
  C592     1.0000 0.65550  0.25000  0.21150  Biso   1.000  C
  H272     1.0000 0.64390  0.25000  0.19400  Biso   1.000  H
  C593     1.0000 0.00000  0.57940  0.05040  Biso   1.000  C
  H273     1.0000 0.00000  0.61370  0.05750  Biso   1.000  H
  C594     1.0000 0.50000  0.07940  0.55040  Biso   1.000  C
  H274     1.0000 0.50000  0.11370  0.55750  Biso   1.000  H
  C595     1.0000 0.50000  0.42060  0.55040  Biso   1.000  C
  H275     1.0000 0.50000  0.38630  0.55750  Biso   1.000  H
  C596     1.0000 0.00000  0.92060  0.05040  Biso   1.000  C
  H276     1.0000 0.00000  0.88630  0.05750  Biso   1.000  H
  C597     1.0000 0.67060  0.75000  0.30040  Biso   1.000  C
  H277     1.0000 0.63630  0.75000  0.30750  Biso   1.000  H
  C598     1.0000 0.82940  0.25000  0.80040  Biso   1.000  C
  H278     1.0000 0.86370  0.25000  0.80750  Biso   1.000  H
  C599     1.0000 0.50000  0.57940  0.44960  Biso   1.000  C
  H279     1.0000 0.50000  0.61370  0.44250  Biso   1.000  H
  C600     1.0000 0.00000  0.07940  0.94960  Biso   1.000  C
  H280     1.0000 0.00000  0.11370  0.94250  Biso   1.000  H
  C601     1.0000 0.00000  0.42060  0.94960  Biso   1.000  C
  H281     1.0000 0.00000  0.38630  0.94250  Biso   1.000  H
  C602     1.0000 0.50000  0.92060  0.44960  Biso   1.000  C
  H282     1.0000 0.50000  0.88630  0.44250  Biso   1.000  H
  C603     1.0000 0.82940  0.75000  0.19960  Biso   1.000  C
  H283     1.0000 0.86370  0.75000  0.19250  Biso   1.000  H
  C604     1.0000 0.67060  0.25000  0.69960  Biso   1.000  C
  H284     1.0000 0.63630  0.25000  0.69250  Biso   1.000  H
  C605     1.0000 0.32940  0.25000  0.69960  Biso   1.000  C
  H285     1.0000 0.36370  0.25000  0.69250  Biso   1.000  H
  C606     1.0000 0.17060  0.75000  0.19960  Biso   1.000  C
  H286     1.0000 0.13630  0.75000  0.19250  Biso   1.000  H
  C607     1.0000 0.17060  0.25000  0.80040  Biso   1.000  C
  H287     1.0000 0.13630  0.25000  0.80750  Biso   1.000  H
  C608     1.0000 0.32940  0.75000  0.30040  Biso   1.000  C
  H288     1.0000 0.36370  0.75000  0.30750  Biso   1.000  H
