data_image0
_cell_length_a       31.4206
_cell_length_b       31.4206
_cell_length_c       44.8239
_cell_angle_alpha    90
_cell_angle_beta     90
_cell_angle_gamma    90

_symmetry_space_group_name_H-M    "P 1"
_symmetry_int_tables_number       1

loop_
  _symmetry_equiv_pos_as_xyz
  'x, y, z'

loop_
  _atom_site_label
  _atom_site_occupancy
  _atom_site_fract_x
  _atom_site_fract_y
  _atom_site_fract_z
  _atom_site_thermal_displace_type
  _atom_site_B_iso_or_equiv
  _atom_site_type_symbol
  O1       1.0000 0.90950  0.79963  0.10787  Biso   1.000  O
  O2       1.0000 0.87708  0.75838  0.14185  Biso   1.000  O
  C1       1.0000 0.89843  0.76417  0.11826  Biso   1.000  C
  C2       1.0000 0.91244  0.72530  0.10152  Biso   1.000  C
  C3       1.0000 0.89748  0.68574  0.10978  Biso   1.000  C
  H1       1.0000 0.87860  0.68300  0.12560  Biso   1.000  H
  C4       1.0000 0.91113  0.64990  0.09406  Biso   1.000  C
  N1       1.0000 0.89503  0.60887  0.10116  Biso   1.000  N
  C5       1.0000 0.86656  0.59729  0.12206  Biso   1.000  C
  H2       1.0000 0.85310  0.61530  0.13550  Biso   1.000  H
  Cu1      1.0000 0.64013  0.69408  0.33238  Biso   1.000  Cu
  Cu2      1.0000 0.60506  0.64591  0.37392  Biso   1.000  Cu
  O3       1.0000 0.65298  0.63951  0.31323  Biso   1.000  O
  O4       1.0000 0.00593  0.66400  0.03034  Biso   1.000  O
  O5       1.0000 0.62575  0.59863  0.34937  Biso   1.000  O
  O6       1.0000 0.65032  0.44537  0.34883  Biso   1.000  O
  O7       1.0000 0.69320  0.41697  0.31449  Biso   1.000  O
  O8       1.0000 0.99666  0.73474  0.03076  Biso   1.000  O
  O9       1.0000 0.57585  0.60753  0.40783  Biso   1.000  O
  H3       1.0000 0.55330  0.61850  0.41300  Biso   1.000  H
  O10      1.0000 0.66734  0.73433  0.29870  Biso   1.000  O
  H4       1.0000 0.69070  0.72500  0.29380  Biso   1.000  H
  N2       1.0000 0.81482  0.34745  0.12117  Biso   1.000  N
  C6       1.0000 0.94140  0.72935  0.07833  Biso   1.000  C
  H5       1.0000 0.95100  0.75610  0.07260  Biso   1.000  H
  C7       1.0000 0.65756  0.52554  0.32353  Biso   1.000  C
  H6       1.0000 0.64220  0.52300  0.34120  Biso   1.000  H
  C8       1.0000 0.66232  0.56506  0.31040  Biso   1.000  C
  C9       1.0000 0.67565  0.48943  0.31044  Biso   1.000  C
  C10      1.0000 0.67285  0.44732  0.32564  Biso   1.000  C
  C11      1.0000 0.95586  0.69356  0.06374  Biso   1.000  C
  N3       1.0000 0.72621  0.53874  0.24402  Biso   1.000  N
  C12      1.0000 0.94085  0.65311  0.07150  Biso   1.000  C
  H7       1.0000 0.95070  0.62900  0.06170  Biso   1.000  H
  C13      1.0000 0.85502  0.31508  0.08073  Biso   1.000  C
  H8       1.0000 0.86000  0.34180  0.07250  Biso   1.000  H
  C14      1.0000 0.68450  0.56916  0.28377  Biso   1.000  C
  H9       1.0000 0.68720  0.59560  0.27470  Biso   1.000  H
  C15      1.0000 0.64537  0.60427  0.32558  Biso   1.000  C
  C16      1.0000 0.98888  0.69761  0.03975  Biso   1.000  C
  C17      1.0000 0.83041  0.31112  0.10628  Biso   1.000  C
  C18      1.0000 0.82320  0.27146  0.11875  Biso   1.000  C
  H10      1.0000 0.80710  0.26900  0.13610  Biso   1.000  H
  C19      1.0000 0.69799  0.49338  0.28375  Biso   1.000  C
  H11      1.0000 0.70980  0.46950  0.27460  Biso   1.000  H
  C20      1.0000 0.70246  0.53343  0.27092  Biso   1.000  C
  C21      1.0000 0.76310  0.53042  0.20340  Biso   1.000  C
  C22      1.0000 0.74267  0.50985  0.22557  Biso   1.000  C
  H12      1.0000 0.74040  0.48050  0.22760  Biso   1.000  H
  C23      1.0000 0.80390  0.41112  0.13887  Biso   1.000  C
  C24      1.0000 0.78378  0.47134  0.17058  Biso   1.000  C
  H13      1.0000 0.76660  0.45300  0.18150  Biso   1.000  H
  C25      1.0000 0.81130  0.54169  0.16133  Biso   1.000  C
  H14      1.0000 0.81160  0.57060  0.16580  Biso   1.000  H
  C26      1.0000 0.82691  0.38841  0.11897  Biso   1.000  C
  H15      1.0000 0.84740  0.39920  0.10610  Biso   1.000  H
  C27      1.0000 0.80740  0.45608  0.14649  Biso   1.000  C
  C28      1.0000 0.86110  0.55432  0.11990  Biso   1.000  C
  C29      1.0000 0.78610  0.51403  0.17808  Biso   1.000  C
  C30      1.0000 0.83314  0.48392  0.13000  Biso   1.000  C
  H16      1.0000 0.84840  0.47380  0.11370  Biso   1.000  H
  C31      1.0000 0.83590  0.52629  0.13796  Biso   1.000  C
  C32      1.0000 0.90128  0.28369  0.04094  Biso   1.000  C
  C33      1.0000 0.87219  0.27922  0.06748  Biso   1.000  C
  C34      1.0000 0.86468  0.23901  0.07963  Biso   1.000  C
  H17      1.0000 0.87600  0.21480  0.07060  Biso   1.000  H
  C35      1.0000 0.84009  0.23545  0.10537  Biso   1.000  C
  O11      1.0000 0.90739  0.32087  0.03130  Biso   1.000  O
  O12      1.0000 0.91735  0.25042  0.03087  Biso   1.000  O
  C36      1.0000 0.83413  0.19276  0.12005  Biso   1.000  C
  O13      1.0000 0.85132  0.16150  0.10736  Biso   1.000  O
  O14      1.0000 0.81312  0.19171  0.14343  Biso   1.000  O
  N4       1.0000 0.88560  0.54149  0.09817  Biso   1.000  N
  N5       1.0000 0.90290  0.57604  0.08436  Biso   1.000  N
  N6       1.0000 0.78100  0.38374  0.15360  Biso   1.000  N
  N7       1.0000 0.76040  0.57030  0.20979  Biso   1.000  N
  N8       1.0000 0.78830  0.34446  0.14337  Biso   1.000  N
  N9       1.0000 0.73680  0.57617  0.23467  Biso   1.000  N
  O15      1.0000 0.40950  0.29963  0.60787  Biso   1.000  O
  O16      1.0000 0.37708  0.25838  0.64185  Biso   1.000  O
  C37      1.0000 0.39843  0.26417  0.61826  Biso   1.000  C
  C38      1.0000 0.41244  0.22530  0.60152  Biso   1.000  C
  C39      1.0000 0.39748  0.18574  0.60978  Biso   1.000  C
  H18      1.0000 0.37860  0.18300  0.62560  Biso   1.000  H
  C40      1.0000 0.41113  0.14990  0.59406  Biso   1.000  C
  N10      1.0000 0.39503  0.10887  0.60116  Biso   1.000  N
  C41      1.0000 0.36656  0.09729  0.62206  Biso   1.000  C
  H19      1.0000 0.35310  0.11530  0.63550  Biso   1.000  H
  Cu3      1.0000 0.14013  0.19408  0.83238  Biso   1.000  Cu
  Cu4      1.0000 0.10506  0.14591  0.87392  Biso   1.000  Cu
  O17      1.0000 0.15298  0.13951  0.81323  Biso   1.000  O
  O18      1.0000 0.50593  0.16400  0.53034  Biso   1.000  O
  O19      1.0000 0.12575  0.09863  0.84937  Biso   1.000  O
  O20      1.0000 0.15032  0.94537  0.84883  Biso   1.000  O
  O21      1.0000 0.19320  0.91697  0.81449  Biso   1.000  O
  O22      1.0000 0.49666  0.23474  0.53076  Biso   1.000  O
  O23      1.0000 0.07585  0.10753  0.90783  Biso   1.000  O
  H20      1.0000 0.05330  0.11850  0.91300  Biso   1.000  H
  O24      1.0000 0.16734  0.23433  0.79870  Biso   1.000  O
  H21      1.0000 0.19070  0.22500  0.79380  Biso   1.000  H
  N11      1.0000 0.31482  0.84745  0.62117  Biso   1.000  N
  C42      1.0000 0.44140  0.22935  0.57833  Biso   1.000  C
  H22      1.0000 0.45100  0.25610  0.57260  Biso   1.000  H
  C43      1.0000 0.15756  0.02554  0.82353  Biso   1.000  C
  H23      1.0000 0.14220  0.02300  0.84120  Biso   1.000  H
  C44      1.0000 0.16232  0.06506  0.81040  Biso   1.000  C
  C45      1.0000 0.17565  0.98943  0.81044  Biso   1.000  C
  C46      1.0000 0.17285  0.94732  0.82564  Biso   1.000  C
  C47      1.0000 0.45586  0.19356  0.56374  Biso   1.000  C
  N12      1.0000 0.22621  0.03874  0.74402  Biso   1.000  N
  C48      1.0000 0.44085  0.15311  0.57150  Biso   1.000  C
  H24      1.0000 0.45070  0.12900  0.56170  Biso   1.000  H
  C49      1.0000 0.35502  0.81508  0.58073  Biso   1.000  C
  H25      1.0000 0.36000  0.84180  0.57250  Biso   1.000  H
  C50      1.0000 0.18450  0.06916  0.78377  Biso   1.000  C
  H26      1.0000 0.18720  0.09560  0.77470  Biso   1.000  H
  C51      1.0000 0.14537  0.10427  0.82558  Biso   1.000  C
  C52      1.0000 0.48888  0.19761  0.53975  Biso   1.000  C
  C53      1.0000 0.33041  0.81112  0.60628  Biso   1.000  C
  C54      1.0000 0.32320  0.77146  0.61875  Biso   1.000  C
  H27      1.0000 0.30710  0.76900  0.63610  Biso   1.000  H
  C55      1.0000 0.19799  0.99338  0.78375  Biso   1.000  C
  H28      1.0000 0.20980  0.96950  0.77460  Biso   1.000  H
  C56      1.0000 0.20246  0.03343  0.77092  Biso   1.000  C
  C57      1.0000 0.26310  0.03042  0.70340  Biso   1.000  C
  C58      1.0000 0.24267  0.00985  0.72557  Biso   1.000  C
  H29      1.0000 0.24040  0.98050  0.72760  Biso   1.000  H
  C59      1.0000 0.30390  0.91112  0.63887  Biso   1.000  C
  C60      1.0000 0.28378  0.97134  0.67058  Biso   1.000  C
  H30      1.0000 0.26660  0.95300  0.68150  Biso   1.000  H
  C61      1.0000 0.31130  0.04169  0.66133  Biso   1.000  C
  H31      1.0000 0.31160  0.07060  0.66580  Biso   1.000  H
  C62      1.0000 0.32691  0.88841  0.61897  Biso   1.000  C
  H32      1.0000 0.34740  0.89920  0.60610  Biso   1.000  H
  C63      1.0000 0.30740  0.95608  0.64649  Biso   1.000  C
  C64      1.0000 0.36110  0.05432  0.61990  Biso   1.000  C
  C65      1.0000 0.28610  0.01403  0.67808  Biso   1.000  C
  C66      1.0000 0.33314  0.98392  0.63000  Biso   1.000  C
  H33      1.0000 0.34840  0.97380  0.61370  Biso   1.000  H
  C67      1.0000 0.33590  0.02629  0.63796  Biso   1.000  C
  C68      1.0000 0.40128  0.78369  0.54094  Biso   1.000  C
  C69      1.0000 0.37219  0.77922  0.56748  Biso   1.000  C
  C70      1.0000 0.36468  0.73901  0.57963  Biso   1.000  C
  H34      1.0000 0.37600  0.71480  0.57060  Biso   1.000  H
  C71      1.0000 0.34009  0.73545  0.60537  Biso   1.000  C
  O25      1.0000 0.40739  0.82087  0.53130  Biso   1.000  O
  O26      1.0000 0.41735  0.75042  0.53087  Biso   1.000  O
  C72      1.0000 0.33413  0.69276  0.62005  Biso   1.000  C
  O27      1.0000 0.35132  0.66150  0.60736  Biso   1.000  O
  O28      1.0000 0.31312  0.69171  0.64343  Biso   1.000  O
  N13      1.0000 0.38560  0.04149  0.59817  Biso   1.000  N
  N14      1.0000 0.40290  0.07604  0.58436  Biso   1.000  N
  N15      1.0000 0.28100  0.88374  0.65360  Biso   1.000  N
  N16      1.0000 0.26040  0.07030  0.70979  Biso   1.000  N
  N17      1.0000 0.28830  0.84446  0.64337  Biso   1.000  N
  N18      1.0000 0.23680  0.07617  0.73467  Biso   1.000  N
  O29      1.0000 0.09050  0.20037  0.10787  Biso   1.000  O
  O30      1.0000 0.12292  0.24162  0.14185  Biso   1.000  O
  C73      1.0000 0.10157  0.23583  0.11826  Biso   1.000  C
  C74      1.0000 0.08756  0.27470  0.10152  Biso   1.000  C
  C75      1.0000 0.10252  0.31426  0.10978  Biso   1.000  C
  H35      1.0000 0.12140  0.31700  0.12560  Biso   1.000  H
  C76      1.0000 0.08887  0.35010  0.09406  Biso   1.000  C
  N19      1.0000 0.10497  0.39113  0.10116  Biso   1.000  N
  C77      1.0000 0.13344  0.40271  0.12206  Biso   1.000  C
  H36      1.0000 0.14690  0.38470  0.13550  Biso   1.000  H
  Cu5      1.0000 0.35987  0.30592  0.33238  Biso   1.000  Cu
  Cu6      1.0000 0.39494  0.35409  0.37392  Biso   1.000  Cu
  O31      1.0000 0.34702  0.36049  0.31323  Biso   1.000  O
  O32      1.0000 0.99407  0.33600  0.03034  Biso   1.000  O
  O33      1.0000 0.37425  0.40137  0.34937  Biso   1.000  O
  O34      1.0000 0.34968  0.55463  0.34883  Biso   1.000  O
  O35      1.0000 0.30680  0.58303  0.31449  Biso   1.000  O
  O36      1.0000 0.00334  0.26526  0.03076  Biso   1.000  O
  O37      1.0000 0.42415  0.39247  0.40783  Biso   1.000  O
  H37      1.0000 0.44670  0.38150  0.41300  Biso   1.000  H
  O38      1.0000 0.33266  0.26567  0.29870  Biso   1.000  O
  H38      1.0000 0.30930  0.27500  0.29380  Biso   1.000  H
  N20      1.0000 0.18518  0.65255  0.12117  Biso   1.000  N
  C78      1.0000 0.05860  0.27065  0.07833  Biso   1.000  C
  H39      1.0000 0.04900  0.24390  0.07260  Biso   1.000  H
  C79      1.0000 0.34244  0.47446  0.32353  Biso   1.000  C
  H40      1.0000 0.35780  0.47700  0.34120  Biso   1.000  H
  C80      1.0000 0.33768  0.43494  0.31040  Biso   1.000  C
  C81      1.0000 0.32435  0.51057  0.31044  Biso   1.000  C
  C82      1.0000 0.32715  0.55268  0.32564  Biso   1.000  C
  C83      1.0000 0.04414  0.30644  0.06374  Biso   1.000  C
  N21      1.0000 0.27379  0.46126  0.24402  Biso   1.000  N
  C84      1.0000 0.05915  0.34689  0.07150  Biso   1.000  C
  H41      1.0000 0.04930  0.37100  0.06170  Biso   1.000  H
  C85      1.0000 0.14498  0.68492  0.08073  Biso   1.000  C
  H42      1.0000 0.14000  0.65820  0.07250  Biso   1.000  H
  C86      1.0000 0.31550  0.43084  0.28377  Biso   1.000  C
  H43      1.0000 0.31280  0.40440  0.27470  Biso   1.000  H
  C87      1.0000 0.35463  0.39573  0.32558  Biso   1.000  C
  C88      1.0000 0.01112  0.30239  0.03975  Biso   1.000  C
  C89      1.0000 0.16959  0.68888  0.10628  Biso   1.000  C
  C90      1.0000 0.17680  0.72854  0.11875  Biso   1.000  C
  H44      1.0000 0.19290  0.73100  0.13610  Biso   1.000  H
  C91      1.0000 0.30201  0.50662  0.28375  Biso   1.000  C
  H45      1.0000 0.29020  0.53050  0.27460  Biso   1.000  H
  C92      1.0000 0.29754  0.46657  0.27092  Biso   1.000  C
  C93      1.0000 0.23690  0.46958  0.20340  Biso   1.000  C
  C94      1.0000 0.25733  0.49015  0.22557  Biso   1.000  C
  H46      1.0000 0.25960  0.51950  0.22760  Biso   1.000  H
  C95      1.0000 0.19610  0.58888  0.13887  Biso   1.000  C
  C96      1.0000 0.21622  0.52866  0.17058  Biso   1.000  C
  H47      1.0000 0.23340  0.54700  0.18150  Biso   1.000  H
  C97      1.0000 0.18870  0.45831  0.16133  Biso   1.000  C
  H48      1.0000 0.18840  0.42940  0.16580  Biso   1.000  H
  C98      1.0000 0.17309  0.61159  0.11897  Biso   1.000  C
  H49      1.0000 0.15260  0.60080  0.10610  Biso   1.000  H
  C99      1.0000 0.19260  0.54392  0.14649  Biso   1.000  C
  C100     1.0000 0.13890  0.44568  0.11990  Biso   1.000  C
  C101     1.0000 0.21390  0.48597  0.17808  Biso   1.000  C
  C102     1.0000 0.16686  0.51608  0.13000  Biso   1.000  C
  H50      1.0000 0.15160  0.52620  0.11370  Biso   1.000  H
  C103     1.0000 0.16410  0.47371  0.13796  Biso   1.000  C
  C104     1.0000 0.09872  0.71631  0.04094  Biso   1.000  C
  C105     1.0000 0.12781  0.72078  0.06748  Biso   1.000  C
  C106     1.0000 0.13532  0.76099  0.07963  Biso   1.000  C
  H51      1.0000 0.12400  0.78520  0.07060  Biso   1.000  H
  C107     1.0000 0.15991  0.76455  0.10537  Biso   1.000  C
  O39      1.0000 0.09261  0.67913  0.03130  Biso   1.000  O
  O40      1.0000 0.08265  0.74958  0.03087  Biso   1.000  O
  C108     1.0000 0.16587  0.80724  0.12005  Biso   1.000  C
  O41      1.0000 0.14868  0.83850  0.10736  Biso   1.000  O
  O42      1.0000 0.18688  0.80829  0.14343  Biso   1.000  O
  N22      1.0000 0.11440  0.45851  0.09817  Biso   1.000  N
  N23      1.0000 0.09710  0.42396  0.08436  Biso   1.000  N
  N24      1.0000 0.21900  0.61626  0.15360  Biso   1.000  N
  N25      1.0000 0.23960  0.42970  0.20979  Biso   1.000  N
  N26      1.0000 0.21170  0.65554  0.14337  Biso   1.000  N
  N27      1.0000 0.26320  0.42383  0.23467  Biso   1.000  N
  O43      1.0000 0.59050  0.70037  0.60787  Biso   1.000  O
  O44      1.0000 0.62292  0.74162  0.64185  Biso   1.000  O
  C109     1.0000 0.60157  0.73583  0.61826  Biso   1.000  C
  C110     1.0000 0.58756  0.77470  0.60152  Biso   1.000  C
  C111     1.0000 0.60252  0.81426  0.60978  Biso   1.000  C
  H52      1.0000 0.62140  0.81700  0.62560  Biso   1.000  H
  C112     1.0000 0.58887  0.85010  0.59406  Biso   1.000  C
  N28      1.0000 0.60497  0.89113  0.60116  Biso   1.000  N
  C113     1.0000 0.63344  0.90271  0.62206  Biso   1.000  C
  H53      1.0000 0.64690  0.88470  0.63550  Biso   1.000  H
  Cu7      1.0000 0.85987  0.80592  0.83238  Biso   1.000  Cu
  Cu8      1.0000 0.89494  0.85409  0.87392  Biso   1.000  Cu
  O45      1.0000 0.84702  0.86049  0.81323  Biso   1.000  O
  O46      1.0000 0.49407  0.83600  0.53034  Biso   1.000  O
  O47      1.0000 0.87425  0.90137  0.84937  Biso   1.000  O
  O48      1.0000 0.84968  0.05463  0.84883  Biso   1.000  O
  O49      1.0000 0.80680  0.08303  0.81449  Biso   1.000  O
  O50      1.0000 0.50334  0.76526  0.53076  Biso   1.000  O
  O51      1.0000 0.92415  0.89247  0.90783  Biso   1.000  O
  H54      1.0000 0.94670  0.88150  0.91300  Biso   1.000  H
  O52      1.0000 0.83266  0.76567  0.79870  Biso   1.000  O
  H55      1.0000 0.80930  0.77500  0.79380  Biso   1.000  H
  N29      1.0000 0.68518  0.15255  0.62117  Biso   1.000  N
  C114     1.0000 0.55860  0.77065  0.57833  Biso   1.000  C
  H56      1.0000 0.54900  0.74390  0.57260  Biso   1.000  H
  C115     1.0000 0.84244  0.97446  0.82353  Biso   1.000  C
  H57      1.0000 0.85780  0.97700  0.84120  Biso   1.000  H
  C116     1.0000 0.83768  0.93494  0.81040  Biso   1.000  C
  C117     1.0000 0.82435  0.01057  0.81044  Biso   1.000  C
  C118     1.0000 0.82715  0.05268  0.82564  Biso   1.000  C
  C119     1.0000 0.54414  0.80644  0.56374  Biso   1.000  C
  N30      1.0000 0.77379  0.96126  0.74402  Biso   1.000  N
  C120     1.0000 0.55915  0.84689  0.57150  Biso   1.000  C
  H58      1.0000 0.54930  0.87100  0.56170  Biso   1.000  H
  C121     1.0000 0.64498  0.18492  0.58073  Biso   1.000  C
  H59      1.0000 0.64000  0.15820  0.57250  Biso   1.000  H
  C122     1.0000 0.81550  0.93084  0.78377  Biso   1.000  C
  H60      1.0000 0.81280  0.90440  0.77470  Biso   1.000  H
  C123     1.0000 0.85463  0.89573  0.82558  Biso   1.000  C
  C124     1.0000 0.51112  0.80239  0.53975  Biso   1.000  C
  C125     1.0000 0.66959  0.18888  0.60628  Biso   1.000  C
  C126     1.0000 0.67680  0.22854  0.61875  Biso   1.000  C
  H61      1.0000 0.69290  0.23100  0.63610  Biso   1.000  H
  C127     1.0000 0.80201  0.00662  0.78375  Biso   1.000  C
  H62      1.0000 0.79020  0.03050  0.77460  Biso   1.000  H
  C128     1.0000 0.79754  0.96657  0.77092  Biso   1.000  C
  C129     1.0000 0.73690  0.96958  0.70340  Biso   1.000  C
  C130     1.0000 0.75733  0.99015  0.72557  Biso   1.000  C
  H63      1.0000 0.75960  0.01950  0.72760  Biso   1.000  H
  C131     1.0000 0.69610  0.08888  0.63887  Biso   1.000  C
  C132     1.0000 0.71622  0.02866  0.67058  Biso   1.000  C
  H64      1.0000 0.73340  0.04700  0.68150  Biso   1.000  H
  C133     1.0000 0.68870  0.95831  0.66133  Biso   1.000  C
  H65      1.0000 0.68840  0.92940  0.66580  Biso   1.000  H
  C134     1.0000 0.67309  0.11159  0.61897  Biso   1.000  C
  H66      1.0000 0.65260  0.10080  0.60610  Biso   1.000  H
  C135     1.0000 0.69260  0.04392  0.64649  Biso   1.000  C
  C136     1.0000 0.63890  0.94568  0.61990  Biso   1.000  C
  C137     1.0000 0.71390  0.98597  0.67808  Biso   1.000  C
  C138     1.0000 0.66686  0.01608  0.63000  Biso   1.000  C
  H67      1.0000 0.65160  0.02620  0.61370  Biso   1.000  H
  C139     1.0000 0.66410  0.97371  0.63796  Biso   1.000  C
  C140     1.0000 0.59872  0.21631  0.54094  Biso   1.000  C
  C141     1.0000 0.62781  0.22078  0.56748  Biso   1.000  C
  C142     1.0000 0.63532  0.26099  0.57963  Biso   1.000  C
  H68      1.0000 0.62400  0.28520  0.57060  Biso   1.000  H
  C143     1.0000 0.65991  0.26455  0.60537  Biso   1.000  C
  O53      1.0000 0.59261  0.17913  0.53130  Biso   1.000  O
  O54      1.0000 0.58265  0.24958  0.53087  Biso   1.000  O
  C144     1.0000 0.66587  0.30724  0.62005  Biso   1.000  C
  O55      1.0000 0.64868  0.33850  0.60736  Biso   1.000  O
  O56      1.0000 0.68688  0.30829  0.64343  Biso   1.000  O
  N31      1.0000 0.61440  0.95851  0.59817  Biso   1.000  N
  N32      1.0000 0.59710  0.92396  0.58436  Biso   1.000  N
  N33      1.0000 0.71900  0.11626  0.65360  Biso   1.000  N
  N34      1.0000 0.73960  0.92970  0.70979  Biso   1.000  N
  N35      1.0000 0.71170  0.15554  0.64337  Biso   1.000  N
  N36      1.0000 0.76320  0.92383  0.73467  Biso   1.000  N
  O57      1.0000 0.20037  0.90950  0.10787  Biso   1.000  O
  O58      1.0000 0.24162  0.87708  0.14185  Biso   1.000  O
  C145     1.0000 0.23583  0.89843  0.11826  Biso   1.000  C
  C146     1.0000 0.27470  0.91244  0.10152  Biso   1.000  C
  C147     1.0000 0.31426  0.89748  0.10978  Biso   1.000  C
  H69      1.0000 0.31700  0.87860  0.12560  Biso   1.000  H
  C148     1.0000 0.35010  0.91113  0.09406  Biso   1.000  C
  N37      1.0000 0.39113  0.89503  0.10116  Biso   1.000  N
  C149     1.0000 0.40271  0.86656  0.12206  Biso   1.000  C
  H70      1.0000 0.38470  0.85310  0.13550  Biso   1.000  H
  Cu9      1.0000 0.30592  0.64013  0.33238  Biso   1.000  Cu
  Cu10     1.0000 0.35409  0.60506  0.37392  Biso   1.000  Cu
  O59      1.0000 0.36049  0.65298  0.31323  Biso   1.000  O
  O60      1.0000 0.33600  0.00593  0.03034  Biso   1.000  O
  O61      1.0000 0.40137  0.62575  0.34937  Biso   1.000  O
  O62      1.0000 0.55463  0.65032  0.34883  Biso   1.000  O
  O63      1.0000 0.58303  0.69320  0.31449  Biso   1.000  O
  O64      1.0000 0.26526  0.99666  0.03076  Biso   1.000  O
  O65      1.0000 0.39247  0.57585  0.40783  Biso   1.000  O
  H71      1.0000 0.38150  0.55330  0.41300  Biso   1.000  H
  O66      1.0000 0.26567  0.66734  0.29870  Biso   1.000  O
  H72      1.0000 0.27500  0.69070  0.29380  Biso   1.000  H
  N38      1.0000 0.65255  0.81482  0.12117  Biso   1.000  N
  C150     1.0000 0.27065  0.94140  0.07833  Biso   1.000  C
  H73      1.0000 0.24390  0.95100  0.07260  Biso   1.000  H
  C151     1.0000 0.47446  0.65756  0.32353  Biso   1.000  C
  H74      1.0000 0.47700  0.64220  0.34120  Biso   1.000  H
  C152     1.0000 0.43494  0.66232  0.31040  Biso   1.000  C
  C153     1.0000 0.51057  0.67565  0.31044  Biso   1.000  C
  C154     1.0000 0.55268  0.67285  0.32564  Biso   1.000  C
  C155     1.0000 0.30644  0.95586  0.06374  Biso   1.000  C
  N39      1.0000 0.46126  0.72621  0.24402  Biso   1.000  N
  C156     1.0000 0.34689  0.94085  0.07150  Biso   1.000  C
  H75      1.0000 0.37100  0.95070  0.06170  Biso   1.000  H
  C157     1.0000 0.68492  0.85502  0.08073  Biso   1.000  C
  H76      1.0000 0.65820  0.86000  0.07250  Biso   1.000  H
  C158     1.0000 0.43084  0.68450  0.28377  Biso   1.000  C
  H77      1.0000 0.40440  0.68720  0.27470  Biso   1.000  H
  C159     1.0000 0.39573  0.64537  0.32558  Biso   1.000  C
  C160     1.0000 0.30239  0.98888  0.03975  Biso   1.000  C
  C161     1.0000 0.68888  0.83041  0.10628  Biso   1.000  C
  C162     1.0000 0.72854  0.82320  0.11875  Biso   1.000  C
  H78      1.0000 0.73100  0.80710  0.13610  Biso   1.000  H
  C163     1.0000 0.50662  0.69799  0.28375  Biso   1.000  C
  H79      1.0000 0.53050  0.70980  0.27460  Biso   1.000  H
  C164     1.0000 0.46657  0.70246  0.27092  Biso   1.000  C
  C165     1.0000 0.46958  0.76310  0.20340  Biso   1.000  C
  C166     1.0000 0.49015  0.74267  0.22557  Biso   1.000  C
  H80      1.0000 0.51950  0.74040  0.22760  Biso   1.000  H
  C167     1.0000 0.58888  0.80390  0.13887  Biso   1.000  C
  C168     1.0000 0.52866  0.78378  0.17058  Biso   1.000  C
  H81      1.0000 0.54700  0.76660  0.18150  Biso   1.000  H
  C169     1.0000 0.45831  0.81130  0.16133  Biso   1.000  C
  H82      1.0000 0.42940  0.81160  0.16580  Biso   1.000  H
  C170     1.0000 0.61159  0.82691  0.11897  Biso   1.000  C
  H83      1.0000 0.60080  0.84740  0.10610  Biso   1.000  H
  C171     1.0000 0.54392  0.80740  0.14649  Biso   1.000  C
  C172     1.0000 0.44568  0.86110  0.11990  Biso   1.000  C
  C173     1.0000 0.48597  0.78610  0.17808  Biso   1.000  C
  C174     1.0000 0.51608  0.83314  0.13000  Biso   1.000  C
  H84      1.0000 0.52620  0.84840  0.11370  Biso   1.000  H
  C175     1.0000 0.47371  0.83590  0.13796  Biso   1.000  C
  C176     1.0000 0.71631  0.90128  0.04094  Biso   1.000  C
  C177     1.0000 0.72078  0.87219  0.06748  Biso   1.000  C
  C178     1.0000 0.76099  0.86468  0.07963  Biso   1.000  C
  H85      1.0000 0.78520  0.87600  0.07060  Biso   1.000  H
  C179     1.0000 0.76455  0.84009  0.10537  Biso   1.000  C
  O67      1.0000 0.67913  0.90739  0.03130  Biso   1.000  O
  O68      1.0000 0.74958  0.91735  0.03087  Biso   1.000  O
  C180     1.0000 0.80724  0.83413  0.12005  Biso   1.000  C
  O69      1.0000 0.83850  0.85132  0.10736  Biso   1.000  O
  O70      1.0000 0.80829  0.81312  0.14343  Biso   1.000  O
  N40      1.0000 0.45851  0.88560  0.09817  Biso   1.000  N
  N41      1.0000 0.42396  0.90290  0.08436  Biso   1.000  N
  N42      1.0000 0.61626  0.78100  0.15360  Biso   1.000  N
  N43      1.0000 0.42970  0.76040  0.20979  Biso   1.000  N
  N44      1.0000 0.65554  0.78830  0.14337  Biso   1.000  N
  N45      1.0000 0.42383  0.73680  0.23467  Biso   1.000  N
  O71      1.0000 0.70037  0.40950  0.60787  Biso   1.000  O
  O72      1.0000 0.74162  0.37708  0.64185  Biso   1.000  O
  C181     1.0000 0.73583  0.39843  0.61826  Biso   1.000  C
  C182     1.0000 0.77470  0.41244  0.60152  Biso   1.000  C
  C183     1.0000 0.81426  0.39748  0.60978  Biso   1.000  C
  H86      1.0000 0.81700  0.37860  0.62560  Biso   1.000  H
  C184     1.0000 0.85010  0.41113  0.59406  Biso   1.000  C
  N46      1.0000 0.89113  0.39503  0.60116  Biso   1.000  N
  C185     1.0000 0.90271  0.36656  0.62206  Biso   1.000  C
  H87      1.0000 0.88470  0.35310  0.63550  Biso   1.000  H
  Cu11     1.0000 0.80592  0.14013  0.83238  Biso   1.000  Cu
  Cu12     1.0000 0.85409  0.10506  0.87392  Biso   1.000  Cu
  O73      1.0000 0.86049  0.15298  0.81323  Biso   1.000  O
  O74      1.0000 0.83600  0.50593  0.53034  Biso   1.000  O
  O75      1.0000 0.90137  0.12575  0.84937  Biso   1.000  O
  O76      1.0000 0.05463  0.15032  0.84883  Biso   1.000  O
  O77      1.0000 0.08303  0.19320  0.81449  Biso   1.000  O
  O78      1.0000 0.76526  0.49666  0.53076  Biso   1.000  O
  O79      1.0000 0.89247  0.07585  0.90783  Biso   1.000  O
  H88      1.0000 0.88150  0.05330  0.91300  Biso   1.000  H
  O80      1.0000 0.76567  0.16734  0.79870  Biso   1.000  O
  H89      1.0000 0.77500  0.19070  0.79380  Biso   1.000  H
  N47      1.0000 0.15255  0.31482  0.62117  Biso   1.000  N
  C186     1.0000 0.77065  0.44140  0.57833  Biso   1.000  C
  H90      1.0000 0.74390  0.45100  0.57260  Biso   1.000  H
  C187     1.0000 0.97446  0.15756  0.82353  Biso   1.000  C
  H91      1.0000 0.97700  0.14220  0.84120  Biso   1.000  H
  C188     1.0000 0.93494  0.16232  0.81040  Biso   1.000  C
  C189     1.0000 0.01057  0.17565  0.81044  Biso   1.000  C
  C190     1.0000 0.05268  0.17285  0.82564  Biso   1.000  C
  C191     1.0000 0.80644  0.45586  0.56374  Biso   1.000  C
  N48      1.0000 0.96126  0.22621  0.74402  Biso   1.000  N
  C192     1.0000 0.84689  0.44085  0.57150  Biso   1.000  C
  H92      1.0000 0.87100  0.45070  0.56170  Biso   1.000  H
  C193     1.0000 0.18492  0.35502  0.58073  Biso   1.000  C
  H93      1.0000 0.15820  0.36000  0.57250  Biso   1.000  H
  C194     1.0000 0.93084  0.18450  0.78377  Biso   1.000  C
  H94      1.0000 0.90440  0.18720  0.77470  Biso   1.000  H
  C195     1.0000 0.89573  0.14537  0.82558  Biso   1.000  C
  C196     1.0000 0.80239  0.48888  0.53975  Biso   1.000  C
  C197     1.0000 0.18888  0.33041  0.60628  Biso   1.000  C
  C198     1.0000 0.22854  0.32320  0.61875  Biso   1.000  C
  H95      1.0000 0.23100  0.30710  0.63610  Biso   1.000  H
  C199     1.0000 0.00662  0.19799  0.78375  Biso   1.000  C
  H96      1.0000 0.03050  0.20980  0.77460  Biso   1.000  H
  C200     1.0000 0.96657  0.20246  0.77092  Biso   1.000  C
  C201     1.0000 0.96958  0.26310  0.70340  Biso   1.000  C
  C202     1.0000 0.99015  0.24267  0.72557  Biso   1.000  C
  H97      1.0000 0.01950  0.24040  0.72760  Biso   1.000  H
  C203     1.0000 0.08888  0.30390  0.63887  Biso   1.000  C
  C204     1.0000 0.02866  0.28378  0.67058  Biso   1.000  C
  H98      1.0000 0.04700  0.26660  0.68150  Biso   1.000  H
  C205     1.0000 0.95831  0.31130  0.66133  Biso   1.000  C
  H99      1.0000 0.92940  0.31160  0.66580  Biso   1.000  H
  C206     1.0000 0.11159  0.32691  0.61897  Biso   1.000  C
  H100     1.0000 0.10080  0.34740  0.60610  Biso   1.000  H
  C207     1.0000 0.04392  0.30740  0.64649  Biso   1.000  C
  C208     1.0000 0.94568  0.36110  0.61990  Biso   1.000  C
  C209     1.0000 0.98597  0.28610  0.67808  Biso   1.000  C
  C210     1.0000 0.01608  0.33314  0.63000  Biso   1.000  C
  H101     1.0000 0.02620  0.34840  0.61370  Biso   1.000  H
  C211     1.0000 0.97371  0.33590  0.63796  Biso   1.000  C
  C212     1.0000 0.21631  0.40128  0.54094  Biso   1.000  C
  C213     1.0000 0.22078  0.37219  0.56748  Biso   1.000  C
  C214     1.0000 0.26099  0.36468  0.57963  Biso   1.000  C
  H102     1.0000 0.28520  0.37600  0.57060  Biso   1.000  H
  C215     1.0000 0.26455  0.34009  0.60537  Biso   1.000  C
  O81      1.0000 0.17913  0.40739  0.53130  Biso   1.000  O
  O82      1.0000 0.24958  0.41735  0.53087  Biso   1.000  O
  C216     1.0000 0.30724  0.33413  0.62005  Biso   1.000  C
  O83      1.0000 0.33850  0.35132  0.60736  Biso   1.000  O
  O84      1.0000 0.30829  0.31312  0.64343  Biso   1.000  O
  N49      1.0000 0.95851  0.38560  0.59817  Biso   1.000  N
  N50      1.0000 0.92396  0.40290  0.58436  Biso   1.000  N
  N51      1.0000 0.11626  0.28100  0.65360  Biso   1.000  N
  N52      1.0000 0.92970  0.26040  0.70979  Biso   1.000  N
  N53      1.0000 0.15554  0.28830  0.64337  Biso   1.000  N
  N54      1.0000 0.92383  0.23680  0.73467  Biso   1.000  N
  O85      1.0000 0.79963  0.09050  0.10787  Biso   1.000  O
  O86      1.0000 0.75838  0.12292  0.14185  Biso   1.000  O
  C217     1.0000 0.76417  0.10157  0.11826  Biso   1.000  C
  C218     1.0000 0.72530  0.08756  0.10152  Biso   1.000  C
  C219     1.0000 0.68574  0.10252  0.10978  Biso   1.000  C
  H103     1.0000 0.68300  0.12140  0.12560  Biso   1.000  H
  C220     1.0000 0.64990  0.08887  0.09406  Biso   1.000  C
  N55      1.0000 0.60887  0.10497  0.10116  Biso   1.000  N
  C221     1.0000 0.59729  0.13344  0.12206  Biso   1.000  C
  H104     1.0000 0.61530  0.14690  0.13550  Biso   1.000  H
  Cu13     1.0000 0.69408  0.35987  0.33238  Biso   1.000  Cu
  Cu14     1.0000 0.64591  0.39494  0.37392  Biso   1.000  Cu
  O87      1.0000 0.63951  0.34702  0.31323  Biso   1.000  O
  O88      1.0000 0.66400  0.99407  0.03034  Biso   1.000  O
  O89      1.0000 0.59863  0.37425  0.34937  Biso   1.000  O
  O90      1.0000 0.44537  0.34968  0.34883  Biso   1.000  O
  O91      1.0000 0.41697  0.30680  0.31449  Biso   1.000  O
  O92      1.0000 0.73474  0.00334  0.03076  Biso   1.000  O
  O93      1.0000 0.60753  0.42415  0.40783  Biso   1.000  O
  H105     1.0000 0.61850  0.44670  0.41300  Biso   1.000  H
  O94      1.0000 0.73433  0.33266  0.29870  Biso   1.000  O
  H106     1.0000 0.72500  0.30930  0.29380  Biso   1.000  H
  N56      1.0000 0.34745  0.18518  0.12117  Biso   1.000  N
  C222     1.0000 0.72935  0.05860  0.07833  Biso   1.000  C
  H107     1.0000 0.75610  0.04900  0.07260  Biso   1.000  H
  C223     1.0000 0.52554  0.34244  0.32353  Biso   1.000  C
  H108     1.0000 0.52300  0.35780  0.34120  Biso   1.000  H
  C224     1.0000 0.56506  0.33768  0.31040  Biso   1.000  C
  C225     1.0000 0.48943  0.32435  0.31044  Biso   1.000  C
  C226     1.0000 0.44732  0.32715  0.32564  Biso   1.000  C
  C227     1.0000 0.69356  0.04414  0.06374  Biso   1.000  C
  N57      1.0000 0.53874  0.27379  0.24402  Biso   1.000  N
  C228     1.0000 0.65311  0.05915  0.07150  Biso   1.000  C
  H109     1.0000 0.62900  0.04930  0.06170  Biso   1.000  H
  C229     1.0000 0.31508  0.14498  0.08073  Biso   1.000  C
  H110     1.0000 0.34180  0.14000  0.07250  Biso   1.000  H
  C230     1.0000 0.56916  0.31550  0.28377  Biso   1.000  C
  H111     1.0000 0.59560  0.31280  0.27470  Biso   1.000  H
  C231     1.0000 0.60427  0.35463  0.32558  Biso   1.000  C
  C232     1.0000 0.69761  0.01112  0.03975  Biso   1.000  C
  C233     1.0000 0.31112  0.16959  0.10628  Biso   1.000  C
  C234     1.0000 0.27146  0.17680  0.11875  Biso   1.000  C
  H112     1.0000 0.26900  0.19290  0.13610  Biso   1.000  H
  C235     1.0000 0.49338  0.30201  0.28375  Biso   1.000  C
  H113     1.0000 0.46950  0.29020  0.27460  Biso   1.000  H
  C236     1.0000 0.53343  0.29754  0.27092  Biso   1.000  C
  C237     1.0000 0.53042  0.23690  0.20340  Biso   1.000  C
  C238     1.0000 0.50985  0.25733  0.22557  Biso   1.000  C
  H114     1.0000 0.48050  0.25960  0.22760  Biso   1.000  H
  C239     1.0000 0.41112  0.19610  0.13887  Biso   1.000  C
  C240     1.0000 0.47134  0.21622  0.17058  Biso   1.000  C
  H115     1.0000 0.45300  0.23340  0.18150  Biso   1.000  H
  C241     1.0000 0.54169  0.18870  0.16133  Biso   1.000  C
  H116     1.0000 0.57060  0.18840  0.16580  Biso   1.000  H
  C242     1.0000 0.38841  0.17309  0.11897  Biso   1.000  C
  H117     1.0000 0.39920  0.15260  0.10610  Biso   1.000  H
  C243     1.0000 0.45608  0.19260  0.14649  Biso   1.000  C
  C244     1.0000 0.55432  0.13890  0.11990  Biso   1.000  C
  C245     1.0000 0.51403  0.21390  0.17808  Biso   1.000  C
  C246     1.0000 0.48392  0.16686  0.13000  Biso   1.000  C
  H118     1.0000 0.47380  0.15160  0.11370  Biso   1.000  H
  C247     1.0000 0.52629  0.16410  0.13796  Biso   1.000  C
  C248     1.0000 0.28369  0.09872  0.04094  Biso   1.000  C
  C249     1.0000 0.27922  0.12781  0.06748  Biso   1.000  C
  C250     1.0000 0.23901  0.13532  0.07963  Biso   1.000  C
  H119     1.0000 0.21480  0.12400  0.07060  Biso   1.000  H
  C251     1.0000 0.23545  0.15991  0.10537  Biso   1.000  C
  O95      1.0000 0.32087  0.09261  0.03130  Biso   1.000  O
  O96      1.0000 0.25042  0.08265  0.03087  Biso   1.000  O
  C252     1.0000 0.19276  0.16587  0.12005  Biso   1.000  C
  O97      1.0000 0.16150  0.14868  0.10736  Biso   1.000  O
  O98      1.0000 0.19171  0.18688  0.14343  Biso   1.000  O
  N58      1.0000 0.54149  0.11440  0.09817  Biso   1.000  N
  N59      1.0000 0.57604  0.09710  0.08436  Biso   1.000  N
  N60      1.0000 0.38374  0.21900  0.15360  Biso   1.000  N
  N61      1.0000 0.57030  0.23960  0.20979  Biso   1.000  N
  N62      1.0000 0.34446  0.21170  0.14337  Biso   1.000  N
  N63      1.0000 0.57617  0.26320  0.23467  Biso   1.000  N
  O99      1.0000 0.29963  0.59050  0.60787  Biso   1.000  O
  O100     1.0000 0.25838  0.62292  0.64185  Biso   1.000  O
  C253     1.0000 0.26417  0.60157  0.61826  Biso   1.000  C
  C254     1.0000 0.22530  0.58756  0.60152  Biso   1.000  C
  C255     1.0000 0.18574  0.60252  0.60978  Biso   1.000  C
  H120     1.0000 0.18300  0.62140  0.62560  Biso   1.000  H
  C256     1.0000 0.14990  0.58887  0.59406  Biso   1.000  C
  N64      1.0000 0.10887  0.60497  0.60116  Biso   1.000  N
  C257     1.0000 0.09729  0.63344  0.62206  Biso   1.000  C
  H121     1.0000 0.11530  0.64690  0.63550  Biso   1.000  H
  Cu15     1.0000 0.19408  0.85987  0.83238  Biso   1.000  Cu
  Cu16     1.0000 0.14591  0.89494  0.87392  Biso   1.000  Cu
  O101     1.0000 0.13951  0.84702  0.81323  Biso   1.000  O
  O102     1.0000 0.16400  0.49407  0.53034  Biso   1.000  O
  O103     1.0000 0.09863  0.87425  0.84937  Biso   1.000  O
  O104     1.0000 0.94537  0.84968  0.84883  Biso   1.000  O
  O105     1.0000 0.91697  0.80680  0.81449  Biso   1.000  O
  O106     1.0000 0.23474  0.50334  0.53076  Biso   1.000  O
  O107     1.0000 0.10753  0.92415  0.90783  Biso   1.000  O
  H122     1.0000 0.11850  0.94670  0.91300  Biso   1.000  H
  O108     1.0000 0.23433  0.83266  0.79870  Biso   1.000  O
  H123     1.0000 0.22500  0.80930  0.79380  Biso   1.000  H
  N65      1.0000 0.84745  0.68518  0.62117  Biso   1.000  N
  C258     1.0000 0.22935  0.55860  0.57833  Biso   1.000  C
  H124     1.0000 0.25610  0.54900  0.57260  Biso   1.000  H
  C259     1.0000 0.02554  0.84244  0.82353  Biso   1.000  C
  H125     1.0000 0.02300  0.85780  0.84120  Biso   1.000  H
  C260     1.0000 0.06506  0.83768  0.81040  Biso   1.000  C
  C261     1.0000 0.98943  0.82435  0.81044  Biso   1.000  C
  C262     1.0000 0.94732  0.82715  0.82564  Biso   1.000  C
  C263     1.0000 0.19356  0.54414  0.56374  Biso   1.000  C
  N66      1.0000 0.03874  0.77379  0.74402  Biso   1.000  N
  C264     1.0000 0.15311  0.55915  0.57150  Biso   1.000  C
  H126     1.0000 0.12900  0.54930  0.56170  Biso   1.000  H
  C265     1.0000 0.81508  0.64498  0.58073  Biso   1.000  C
  H127     1.0000 0.84180  0.64000  0.57250  Biso   1.000  H
  C266     1.0000 0.06916  0.81550  0.78377  Biso   1.000  C
  H128     1.0000 0.09560  0.81280  0.77470  Biso   1.000  H
  C267     1.0000 0.10427  0.85463  0.82558  Biso   1.000  C
  C268     1.0000 0.19761  0.51112  0.53975  Biso   1.000  C
  C269     1.0000 0.81112  0.66959  0.60628  Biso   1.000  C
  C270     1.0000 0.77146  0.67680  0.61875  Biso   1.000  C
  H129     1.0000 0.76900  0.69290  0.63610  Biso   1.000  H
  C271     1.0000 0.99338  0.80201  0.78375  Biso   1.000  C
  H130     1.0000 0.96950  0.79020  0.77460  Biso   1.000  H
  C272     1.0000 0.03343  0.79754  0.77092  Biso   1.000  C
  C273     1.0000 0.03042  0.73690  0.70340  Biso   1.000  C
  C274     1.0000 0.00985  0.75733  0.72557  Biso   1.000  C
  H131     1.0000 0.98050  0.75960  0.72760  Biso   1.000  H
  C275     1.0000 0.91112  0.69610  0.63887  Biso   1.000  C
  C276     1.0000 0.97134  0.71622  0.67058  Biso   1.000  C
  H132     1.0000 0.95300  0.73340  0.68150  Biso   1.000  H
  C277     1.0000 0.04169  0.68870  0.66133  Biso   1.000  C
  H133     1.0000 0.07060  0.68840  0.66580  Biso   1.000  H
  C278     1.0000 0.88841  0.67309  0.61897  Biso   1.000  C
  H134     1.0000 0.89920  0.65260  0.60610  Biso   1.000  H
  C279     1.0000 0.95608  0.69260  0.64649  Biso   1.000  C
  C280     1.0000 0.05432  0.63890  0.61990  Biso   1.000  C
  C281     1.0000 0.01403  0.71390  0.67808  Biso   1.000  C
  C282     1.0000 0.98392  0.66686  0.63000  Biso   1.000  C
  H135     1.0000 0.97380  0.65160  0.61370  Biso   1.000  H
  C283     1.0000 0.02629  0.66410  0.63796  Biso   1.000  C
  C284     1.0000 0.78369  0.59872  0.54094  Biso   1.000  C
  C285     1.0000 0.77922  0.62781  0.56748  Biso   1.000  C
  C286     1.0000 0.73901  0.63532  0.57963  Biso   1.000  C
  H136     1.0000 0.71480  0.62400  0.57060  Biso   1.000  H
  C287     1.0000 0.73545  0.65991  0.60537  Biso   1.000  C
  O109     1.0000 0.82087  0.59261  0.53130  Biso   1.000  O
  O110     1.0000 0.75042  0.58265  0.53087  Biso   1.000  O
  C288     1.0000 0.69276  0.66587  0.62005  Biso   1.000  C
  O111     1.0000 0.66150  0.64868  0.60736  Biso   1.000  O
  O112     1.0000 0.69171  0.68688  0.64343  Biso   1.000  O
  N67      1.0000 0.04149  0.61440  0.59817  Biso   1.000  N
  N68      1.0000 0.07604  0.59710  0.58436  Biso   1.000  N
  N69      1.0000 0.88374  0.71900  0.65360  Biso   1.000  N
  N70      1.0000 0.07030  0.73960  0.70979  Biso   1.000  N
  N71      1.0000 0.84446  0.71170  0.64337  Biso   1.000  N
  N72      1.0000 0.07617  0.76320  0.73467  Biso   1.000  N
  O113     1.0000 0.09050  0.20037  0.89213  Biso   1.000  O
  O114     1.0000 0.12292  0.24162  0.85815  Biso   1.000  O
  C289     1.0000 0.10157  0.23583  0.88174  Biso   1.000  C
  C290     1.0000 0.08756  0.27470  0.89848  Biso   1.000  C
  C291     1.0000 0.10252  0.31426  0.89022  Biso   1.000  C
  H137     1.0000 0.12140  0.31700  0.87440  Biso   1.000  H
  C292     1.0000 0.08887  0.35010  0.90594  Biso   1.000  C
  N73      1.0000 0.10497  0.39113  0.89884  Biso   1.000  N
  C293     1.0000 0.13344  0.40271  0.87794  Biso   1.000  C
  H138     1.0000 0.14690  0.38470  0.86450  Biso   1.000  H
  Cu17     1.0000 0.35987  0.30592  0.66762  Biso   1.000  Cu
  Cu18     1.0000 0.39494  0.35409  0.62608  Biso   1.000  Cu
  O115     1.0000 0.34702  0.36049  0.68677  Biso   1.000  O
  O116     1.0000 0.99407  0.33600  0.96966  Biso   1.000  O
  O117     1.0000 0.37425  0.40137  0.65063  Biso   1.000  O
  O118     1.0000 0.34968  0.55463  0.65117  Biso   1.000  O
  O119     1.0000 0.30680  0.58303  0.68551  Biso   1.000  O
  O120     1.0000 0.00334  0.26526  0.96924  Biso   1.000  O
  O121     1.0000 0.42415  0.39247  0.59217  Biso   1.000  O
  H139     1.0000 0.44670  0.38150  0.58700  Biso   1.000  H
  O122     1.0000 0.33266  0.26567  0.70130  Biso   1.000  O
  H140     1.0000 0.30930  0.27500  0.70620  Biso   1.000  H
  N74      1.0000 0.18518  0.65255  0.87883  Biso   1.000  N
  C294     1.0000 0.05860  0.27065  0.92167  Biso   1.000  C
  H141     1.0000 0.04900  0.24390  0.92740  Biso   1.000  H
  C295     1.0000 0.34244  0.47446  0.67647  Biso   1.000  C
  H142     1.0000 0.35780  0.47700  0.65880  Biso   1.000  H
  C296     1.0000 0.33768  0.43494  0.68960  Biso   1.000  C
  C297     1.0000 0.32435  0.51057  0.68956  Biso   1.000  C
  C298     1.0000 0.32715  0.55268  0.67436  Biso   1.000  C
  C299     1.0000 0.04414  0.30644  0.93626  Biso   1.000  C
  N75      1.0000 0.27379  0.46126  0.75598  Biso   1.000  N
  C300     1.0000 0.05915  0.34689  0.92850  Biso   1.000  C
  H143     1.0000 0.04930  0.37100  0.93830  Biso   1.000  H
  C301     1.0000 0.14498  0.68492  0.91927  Biso   1.000  C
  H144     1.0000 0.14000  0.65820  0.92750  Biso   1.000  H
  C302     1.0000 0.31550  0.43084  0.71623  Biso   1.000  C
  H145     1.0000 0.31280  0.40440  0.72530  Biso   1.000  H
  C303     1.0000 0.35463  0.39573  0.67442  Biso   1.000  C
  C304     1.0000 0.01112  0.30239  0.96025  Biso   1.000  C
  C305     1.0000 0.16959  0.68888  0.89372  Biso   1.000  C
  C306     1.0000 0.17680  0.72854  0.88125  Biso   1.000  C
  H146     1.0000 0.19290  0.73100  0.86390  Biso   1.000  H
  C307     1.0000 0.30201  0.50662  0.71625  Biso   1.000  C
  H147     1.0000 0.29020  0.53050  0.72540  Biso   1.000  H
  C308     1.0000 0.29754  0.46657  0.72908  Biso   1.000  C
  C309     1.0000 0.23690  0.46958  0.79660  Biso   1.000  C
  C310     1.0000 0.25733  0.49015  0.77443  Biso   1.000  C
  H148     1.0000 0.25960  0.51950  0.77240  Biso   1.000  H
  C311     1.0000 0.19610  0.58888  0.86113  Biso   1.000  C
  C312     1.0000 0.21622  0.52866  0.82942  Biso   1.000  C
  H149     1.0000 0.23340  0.54700  0.81850  Biso   1.000  H
  C313     1.0000 0.18870  0.45831  0.83867  Biso   1.000  C
  H150     1.0000 0.18840  0.42940  0.83420  Biso   1.000  H
  C314     1.0000 0.17309  0.61159  0.88103  Biso   1.000  C
  H151     1.0000 0.15260  0.60080  0.89390  Biso   1.000  H
  C315     1.0000 0.19260  0.54392  0.85351  Biso   1.000  C
  C316     1.0000 0.13890  0.44568  0.88010  Biso   1.000  C
  C317     1.0000 0.21390  0.48597  0.82192  Biso   1.000  C
  C318     1.0000 0.16686  0.51608  0.87000  Biso   1.000  C
  H152     1.0000 0.15160  0.52620  0.88630  Biso   1.000  H
  C319     1.0000 0.16410  0.47371  0.86204  Biso   1.000  C
  C320     1.0000 0.09872  0.71631  0.95906  Biso   1.000  C
  C321     1.0000 0.12781  0.72078  0.93252  Biso   1.000  C
  C322     1.0000 0.13532  0.76099  0.92037  Biso   1.000  C
  H153     1.0000 0.12400  0.78520  0.92940  Biso   1.000  H
  C323     1.0000 0.15991  0.76455  0.89463  Biso   1.000  C
  O123     1.0000 0.09261  0.67913  0.96870  Biso   1.000  O
  O124     1.0000 0.08265  0.74958  0.96913  Biso   1.000  O
  C324     1.0000 0.16587  0.80724  0.87995  Biso   1.000  C
  O125     1.0000 0.14868  0.83850  0.89264  Biso   1.000  O
  O126     1.0000 0.18688  0.80829  0.85657  Biso   1.000  O
  N76      1.0000 0.11440  0.45851  0.90183  Biso   1.000  N
  N77      1.0000 0.09710  0.42396  0.91564  Biso   1.000  N
  N78      1.0000 0.21900  0.61626  0.84640  Biso   1.000  N
  N79      1.0000 0.23960  0.42970  0.79021  Biso   1.000  N
  N80      1.0000 0.21170  0.65554  0.85663  Biso   1.000  N
  N81      1.0000 0.26320  0.42383  0.76533  Biso   1.000  N
  O127     1.0000 0.59050  0.70037  0.39213  Biso   1.000  O
  O128     1.0000 0.62292  0.74162  0.35815  Biso   1.000  O
  C325     1.0000 0.60157  0.73583  0.38174  Biso   1.000  C
  C326     1.0000 0.58756  0.77470  0.39848  Biso   1.000  C
  C327     1.0000 0.60252  0.81426  0.39022  Biso   1.000  C
  H154     1.0000 0.62140  0.81700  0.37440  Biso   1.000  H
  C328     1.0000 0.58887  0.85010  0.40594  Biso   1.000  C
  N82      1.0000 0.60497  0.89113  0.39884  Biso   1.000  N
  C329     1.0000 0.63344  0.90271  0.37794  Biso   1.000  C
  H155     1.0000 0.64690  0.88470  0.36450  Biso   1.000  H
  Cu19     1.0000 0.85987  0.80592  0.16762  Biso   1.000  Cu
  Cu20     1.0000 0.89494  0.85409  0.12608  Biso   1.000  Cu
  O129     1.0000 0.84702  0.86049  0.18677  Biso   1.000  O
  O130     1.0000 0.49407  0.83600  0.46966  Biso   1.000  O
  O131     1.0000 0.87425  0.90137  0.15063  Biso   1.000  O
  O132     1.0000 0.84968  0.05463  0.15117  Biso   1.000  O
  O133     1.0000 0.80680  0.08303  0.18551  Biso   1.000  O
  O134     1.0000 0.50334  0.76526  0.46924  Biso   1.000  O
  O135     1.0000 0.92415  0.89247  0.09217  Biso   1.000  O
  H156     1.0000 0.94670  0.88150  0.08700  Biso   1.000  H
  O136     1.0000 0.83266  0.76567  0.20130  Biso   1.000  O
  H157     1.0000 0.80930  0.77500  0.20620  Biso   1.000  H
  N83      1.0000 0.68518  0.15255  0.37883  Biso   1.000  N
  C330     1.0000 0.55860  0.77065  0.42167  Biso   1.000  C
  H158     1.0000 0.54900  0.74390  0.42740  Biso   1.000  H
  C331     1.0000 0.84244  0.97446  0.17647  Biso   1.000  C
  H159     1.0000 0.85780  0.97700  0.15880  Biso   1.000  H
  C332     1.0000 0.83768  0.93494  0.18960  Biso   1.000  C
  C333     1.0000 0.82435  0.01057  0.18956  Biso   1.000  C
  C334     1.0000 0.82715  0.05268  0.17436  Biso   1.000  C
  C335     1.0000 0.54414  0.80644  0.43626  Biso   1.000  C
  N84      1.0000 0.77379  0.96126  0.25598  Biso   1.000  N
  C336     1.0000 0.55915  0.84689  0.42850  Biso   1.000  C
  H160     1.0000 0.54930  0.87100  0.43830  Biso   1.000  H
  C337     1.0000 0.64498  0.18492  0.41927  Biso   1.000  C
  H161     1.0000 0.64000  0.15820  0.42750  Biso   1.000  H
  C338     1.0000 0.81550  0.93084  0.21623  Biso   1.000  C
  H162     1.0000 0.81280  0.90440  0.22530  Biso   1.000  H
  C339     1.0000 0.85463  0.89573  0.17442  Biso   1.000  C
  C340     1.0000 0.51112  0.80239  0.46025  Biso   1.000  C
  C341     1.0000 0.66959  0.18888  0.39372  Biso   1.000  C
  C342     1.0000 0.67680  0.22854  0.38125  Biso   1.000  C
  H163     1.0000 0.69290  0.23100  0.36390  Biso   1.000  H
  C343     1.0000 0.80201  0.00662  0.21625  Biso   1.000  C
  H164     1.0000 0.79020  0.03050  0.22540  Biso   1.000  H
  C344     1.0000 0.79754  0.96657  0.22908  Biso   1.000  C
  C345     1.0000 0.73690  0.96958  0.29660  Biso   1.000  C
  C346     1.0000 0.75733  0.99015  0.27443  Biso   1.000  C
  H165     1.0000 0.75960  0.01950  0.27240  Biso   1.000  H
  C347     1.0000 0.69610  0.08888  0.36113  Biso   1.000  C
  C348     1.0000 0.71622  0.02866  0.32942  Biso   1.000  C
  H166     1.0000 0.73340  0.04700  0.31850  Biso   1.000  H
  C349     1.0000 0.68870  0.95831  0.33867  Biso   1.000  C
  H167     1.0000 0.68840  0.92940  0.33420  Biso   1.000  H
  C350     1.0000 0.67309  0.11159  0.38103  Biso   1.000  C
  H168     1.0000 0.65260  0.10080  0.39390  Biso   1.000  H
  C351     1.0000 0.69260  0.04392  0.35351  Biso   1.000  C
  C352     1.0000 0.63890  0.94568  0.38010  Biso   1.000  C
  C353     1.0000 0.71390  0.98597  0.32192  Biso   1.000  C
  C354     1.0000 0.66686  0.01608  0.37000  Biso   1.000  C
  H169     1.0000 0.65160  0.02620  0.38630  Biso   1.000  H
  C355     1.0000 0.66410  0.97371  0.36204  Biso   1.000  C
  C356     1.0000 0.59872  0.21631  0.45906  Biso   1.000  C
  C357     1.0000 0.62781  0.22078  0.43252  Biso   1.000  C
  C358     1.0000 0.63532  0.26099  0.42037  Biso   1.000  C
  H170     1.0000 0.62400  0.28520  0.42940  Biso   1.000  H
  C359     1.0000 0.65991  0.26455  0.39463  Biso   1.000  C
  O137     1.0000 0.59261  0.17913  0.46870  Biso   1.000  O
  O138     1.0000 0.58265  0.24958  0.46913  Biso   1.000  O
  C360     1.0000 0.66587  0.30724  0.37995  Biso   1.000  C
  O139     1.0000 0.64868  0.33850  0.39264  Biso   1.000  O
  O140     1.0000 0.68688  0.30829  0.35657  Biso   1.000  O
  N85      1.0000 0.61440  0.95851  0.40183  Biso   1.000  N
  N86      1.0000 0.59710  0.92396  0.41564  Biso   1.000  N
  N87      1.0000 0.71900  0.11626  0.34640  Biso   1.000  N
  N88      1.0000 0.73960  0.92970  0.29021  Biso   1.000  N
  N89      1.0000 0.71170  0.15554  0.35663  Biso   1.000  N
  N90      1.0000 0.76320  0.92383  0.26533  Biso   1.000  N
  O141     1.0000 0.90950  0.79963  0.89213  Biso   1.000  O
  O142     1.0000 0.87708  0.75838  0.85815  Biso   1.000  O
  C361     1.0000 0.89843  0.76417  0.88174  Biso   1.000  C
  C362     1.0000 0.91244  0.72530  0.89848  Biso   1.000  C
  C363     1.0000 0.89748  0.68574  0.89022  Biso   1.000  C
  H171     1.0000 0.87860  0.68300  0.87440  Biso   1.000  H
  C364     1.0000 0.91113  0.64990  0.90594  Biso   1.000  C
  N91      1.0000 0.89503  0.60887  0.89884  Biso   1.000  N
  C365     1.0000 0.86656  0.59729  0.87794  Biso   1.000  C
  H172     1.0000 0.85310  0.61530  0.86450  Biso   1.000  H
  Cu21     1.0000 0.64013  0.69408  0.66762  Biso   1.000  Cu
  Cu22     1.0000 0.60506  0.64591  0.62608  Biso   1.000  Cu
  O143     1.0000 0.65298  0.63951  0.68677  Biso   1.000  O
  O144     1.0000 0.00593  0.66400  0.96966  Biso   1.000  O
  O145     1.0000 0.62575  0.59863  0.65063  Biso   1.000  O
  O146     1.0000 0.65032  0.44537  0.65117  Biso   1.000  O
  O147     1.0000 0.69320  0.41697  0.68551  Biso   1.000  O
  O148     1.0000 0.99666  0.73474  0.96924  Biso   1.000  O
  O149     1.0000 0.57585  0.60753  0.59217  Biso   1.000  O
  H173     1.0000 0.55330  0.61850  0.58700  Biso   1.000  H
  O150     1.0000 0.66734  0.73433  0.70130  Biso   1.000  O
  H174     1.0000 0.69070  0.72500  0.70620  Biso   1.000  H
  N92      1.0000 0.81482  0.34745  0.87883  Biso   1.000  N
  C366     1.0000 0.94140  0.72935  0.92167  Biso   1.000  C
  H175     1.0000 0.95100  0.75610  0.92740  Biso   1.000  H
  C367     1.0000 0.65756  0.52554  0.67647  Biso   1.000  C
  H176     1.0000 0.64220  0.52300  0.65880  Biso   1.000  H
  C368     1.0000 0.66232  0.56506  0.68960  Biso   1.000  C
  C369     1.0000 0.67565  0.48943  0.68956  Biso   1.000  C
  C370     1.0000 0.67285  0.44732  0.67436  Biso   1.000  C
  C371     1.0000 0.95586  0.69356  0.93626  Biso   1.000  C
  N93      1.0000 0.72621  0.53874  0.75598  Biso   1.000  N
  C372     1.0000 0.94085  0.65311  0.92850  Biso   1.000  C
  H177     1.0000 0.95070  0.62900  0.93830  Biso   1.000  H
  C373     1.0000 0.85502  0.31508  0.91927  Biso   1.000  C
  H178     1.0000 0.86000  0.34180  0.92750  Biso   1.000  H
  C374     1.0000 0.68450  0.56916  0.71623  Biso   1.000  C
  H179     1.0000 0.68720  0.59560  0.72530  Biso   1.000  H
  C375     1.0000 0.64537  0.60427  0.67442  Biso   1.000  C
  C376     1.0000 0.98888  0.69761  0.96025  Biso   1.000  C
  C377     1.0000 0.83041  0.31112  0.89372  Biso   1.000  C
  C378     1.0000 0.82320  0.27146  0.88125  Biso   1.000  C
  H180     1.0000 0.80710  0.26900  0.86390  Biso   1.000  H
  C379     1.0000 0.69799  0.49338  0.71625  Biso   1.000  C
  H181     1.0000 0.70980  0.46950  0.72540  Biso   1.000  H
  C380     1.0000 0.70246  0.53343  0.72908  Biso   1.000  C
  C381     1.0000 0.76310  0.53042  0.79660  Biso   1.000  C
  C382     1.0000 0.74267  0.50985  0.77443  Biso   1.000  C
  H182     1.0000 0.74040  0.48050  0.77240  Biso   1.000  H
  C383     1.0000 0.80390  0.41112  0.86113  Biso   1.000  C
  C384     1.0000 0.78378  0.47134  0.82942  Biso   1.000  C
  H183     1.0000 0.76660  0.45300  0.81850  Biso   1.000  H
  C385     1.0000 0.81130  0.54169  0.83867  Biso   1.000  C
  H184     1.0000 0.81160  0.57060  0.83420  Biso   1.000  H
  C386     1.0000 0.82691  0.38841  0.88103  Biso   1.000  C
  H185     1.0000 0.84740  0.39920  0.89390  Biso   1.000  H
  C387     1.0000 0.80740  0.45608  0.85351  Biso   1.000  C
  C388     1.0000 0.86110  0.55432  0.88010  Biso   1.000  C
  C389     1.0000 0.78610  0.51403  0.82192  Biso   1.000  C
  C390     1.0000 0.83314  0.48392  0.87000  Biso   1.000  C
  H186     1.0000 0.84840  0.47380  0.88630  Biso   1.000  H
  C391     1.0000 0.83590  0.52629  0.86204  Biso   1.000  C
  C392     1.0000 0.90128  0.28369  0.95906  Biso   1.000  C
  C393     1.0000 0.87219  0.27922  0.93252  Biso   1.000  C
  C394     1.0000 0.86468  0.23901  0.92037  Biso   1.000  C
  H187     1.0000 0.87600  0.21480  0.92940  Biso   1.000  H
  C395     1.0000 0.84009  0.23545  0.89463  Biso   1.000  C
  O151     1.0000 0.90739  0.32087  0.96870  Biso   1.000  O
  O152     1.0000 0.91735  0.25042  0.96913  Biso   1.000  O
  C396     1.0000 0.83413  0.19276  0.87995  Biso   1.000  C
  O153     1.0000 0.85132  0.16150  0.89264  Biso   1.000  O
  O154     1.0000 0.81312  0.19171  0.85657  Biso   1.000  O
  N94      1.0000 0.88560  0.54149  0.90183  Biso   1.000  N
  N95      1.0000 0.90290  0.57604  0.91564  Biso   1.000  N
  N96      1.0000 0.78100  0.38374  0.84640  Biso   1.000  N
  N97      1.0000 0.76040  0.57030  0.79021  Biso   1.000  N
  N98      1.0000 0.78830  0.34446  0.85663  Biso   1.000  N
  N99      1.0000 0.73680  0.57617  0.76533  Biso   1.000  N
  O155     1.0000 0.40950  0.29963  0.39213  Biso   1.000  O
  O156     1.0000 0.37708  0.25838  0.35815  Biso   1.000  O
  C397     1.0000 0.39843  0.26417  0.38174  Biso   1.000  C
  C398     1.0000 0.41244  0.22530  0.39848  Biso   1.000  C
  C399     1.0000 0.39748  0.18574  0.39022  Biso   1.000  C
  H188     1.0000 0.37860  0.18300  0.37440  Biso   1.000  H
  C400     1.0000 0.41113  0.14990  0.40594  Biso   1.000  C
  N100     1.0000 0.39503  0.10887  0.39884  Biso   1.000  N
  C401     1.0000 0.36656  0.09729  0.37794  Biso   1.000  C
  H189     1.0000 0.35310  0.11530  0.36450  Biso   1.000  H
  Cu23     1.0000 0.14013  0.19408  0.16762  Biso   1.000  Cu
  Cu24     1.0000 0.10506  0.14591  0.12608  Biso   1.000  Cu
  O157     1.0000 0.15298  0.13951  0.18677  Biso   1.000  O
  O158     1.0000 0.50593  0.16400  0.46966  Biso   1.000  O
  O159     1.0000 0.12575  0.09863  0.15063  Biso   1.000  O
  O160     1.0000 0.15032  0.94537  0.15117  Biso   1.000  O
  O161     1.0000 0.19320  0.91697  0.18551  Biso   1.000  O
  O162     1.0000 0.49666  0.23474  0.46924  Biso   1.000  O
  O163     1.0000 0.07585  0.10753  0.09217  Biso   1.000  O
  H190     1.0000 0.05330  0.11850  0.08700  Biso   1.000  H
  O164     1.0000 0.16734  0.23433  0.20130  Biso   1.000  O
  H191     1.0000 0.19070  0.22500  0.20620  Biso   1.000  H
  N101     1.0000 0.31482  0.84745  0.37883  Biso   1.000  N
  C402     1.0000 0.44140  0.22935  0.42167  Biso   1.000  C
  H192     1.0000 0.45100  0.25610  0.42740  Biso   1.000  H
  C403     1.0000 0.15756  0.02554  0.17647  Biso   1.000  C
  H193     1.0000 0.14220  0.02300  0.15880  Biso   1.000  H
  C404     1.0000 0.16232  0.06506  0.18960  Biso   1.000  C
  C405     1.0000 0.17565  0.98943  0.18956  Biso   1.000  C
  C406     1.0000 0.17285  0.94732  0.17436  Biso   1.000  C
  C407     1.0000 0.45586  0.19356  0.43626  Biso   1.000  C
  N102     1.0000 0.22621  0.03874  0.25598  Biso   1.000  N
  C408     1.0000 0.44085  0.15311  0.42850  Biso   1.000  C
  H194     1.0000 0.45070  0.12900  0.43830  Biso   1.000  H
  C409     1.0000 0.35502  0.81508  0.41927  Biso   1.000  C
  H195     1.0000 0.36000  0.84180  0.42750  Biso   1.000  H
  C410     1.0000 0.18450  0.06916  0.21623  Biso   1.000  C
  H196     1.0000 0.18720  0.09560  0.22530  Biso   1.000  H
  C411     1.0000 0.14537  0.10427  0.17442  Biso   1.000  C
  C412     1.0000 0.48888  0.19761  0.46025  Biso   1.000  C
  C413     1.0000 0.33041  0.81112  0.39372  Biso   1.000  C
  C414     1.0000 0.32320  0.77146  0.38125  Biso   1.000  C
  H197     1.0000 0.30710  0.76900  0.36390  Biso   1.000  H
  C415     1.0000 0.19799  0.99338  0.21625  Biso   1.000  C
  H198     1.0000 0.20980  0.96950  0.22540  Biso   1.000  H
  C416     1.0000 0.20246  0.03343  0.22908  Biso   1.000  C
  C417     1.0000 0.26310  0.03042  0.29660  Biso   1.000  C
  C418     1.0000 0.24267  0.00985  0.27443  Biso   1.000  C
  H199     1.0000 0.24040  0.98050  0.27240  Biso   1.000  H
  C419     1.0000 0.30390  0.91112  0.36113  Biso   1.000  C
  C420     1.0000 0.28378  0.97134  0.32942  Biso   1.000  C
  H200     1.0000 0.26660  0.95300  0.31850  Biso   1.000  H
  C421     1.0000 0.31130  0.04169  0.33867  Biso   1.000  C
  H201     1.0000 0.31160  0.07060  0.33420  Biso   1.000  H
  C422     1.0000 0.32691  0.88841  0.38103  Biso   1.000  C
  H202     1.0000 0.34740  0.89920  0.39390  Biso   1.000  H
  C423     1.0000 0.30740  0.95608  0.35351  Biso   1.000  C
  C424     1.0000 0.36110  0.05432  0.38010  Biso   1.000  C
  C425     1.0000 0.28610  0.01403  0.32192  Biso   1.000  C
  C426     1.0000 0.33314  0.98392  0.37000  Biso   1.000  C
  H203     1.0000 0.34840  0.97380  0.38630  Biso   1.000  H
  C427     1.0000 0.33590  0.02629  0.36204  Biso   1.000  C
  C428     1.0000 0.40128  0.78369  0.45906  Biso   1.000  C
  C429     1.0000 0.37219  0.77922  0.43252  Biso   1.000  C
  C430     1.0000 0.36468  0.73901  0.42037  Biso   1.000  C
  H204     1.0000 0.37600  0.71480  0.42940  Biso   1.000  H
  C431     1.0000 0.34009  0.73545  0.39463  Biso   1.000  C
  O165     1.0000 0.40739  0.82087  0.46870  Biso   1.000  O
  O166     1.0000 0.41735  0.75042  0.46913  Biso   1.000  O
  C432     1.0000 0.33413  0.69276  0.37995  Biso   1.000  C
  O167     1.0000 0.35132  0.66150  0.39264  Biso   1.000  O
  O168     1.0000 0.31312  0.69171  0.35657  Biso   1.000  O
  N103     1.0000 0.38560  0.04149  0.40183  Biso   1.000  N
  N104     1.0000 0.40290  0.07604  0.41564  Biso   1.000  N
  N105     1.0000 0.28100  0.88374  0.34640  Biso   1.000  N
  N106     1.0000 0.26040  0.07030  0.29021  Biso   1.000  N
  N107     1.0000 0.28830  0.84446  0.35663  Biso   1.000  N
  N108     1.0000 0.23680  0.07617  0.26533  Biso   1.000  N
  O169     1.0000 0.79963  0.09050  0.89213  Biso   1.000  O
  O170     1.0000 0.75838  0.12292  0.85815  Biso   1.000  O
  C433     1.0000 0.76417  0.10157  0.88174  Biso   1.000  C
  C434     1.0000 0.72530  0.08756  0.89848  Biso   1.000  C
  C435     1.0000 0.68574  0.10252  0.89022  Biso   1.000  C
  H205     1.0000 0.68300  0.12140  0.87440  Biso   1.000  H
  C436     1.0000 0.64990  0.08887  0.90594  Biso   1.000  C
  N109     1.0000 0.60887  0.10497  0.89884  Biso   1.000  N
  C437     1.0000 0.59729  0.13344  0.87794  Biso   1.000  C
  H206     1.0000 0.61530  0.14690  0.86450  Biso   1.000  H
  Cu25     1.0000 0.69408  0.35987  0.66762  Biso   1.000  Cu
  Cu26     1.0000 0.64591  0.39494  0.62608  Biso   1.000  Cu
  O171     1.0000 0.63951  0.34702  0.68677  Biso   1.000  O
  O172     1.0000 0.66400  0.99407  0.96966  Biso   1.000  O
  O173     1.0000 0.59863  0.37425  0.65063  Biso   1.000  O
  O174     1.0000 0.44537  0.34968  0.65117  Biso   1.000  O
  O175     1.0000 0.41697  0.30680  0.68551  Biso   1.000  O
  O176     1.0000 0.73474  0.00334  0.96924  Biso   1.000  O
  O177     1.0000 0.60753  0.42415  0.59217  Biso   1.000  O
  H207     1.0000 0.61850  0.44670  0.58700  Biso   1.000  H
  O178     1.0000 0.73433  0.33266  0.70130  Biso   1.000  O
  H208     1.0000 0.72500  0.30930  0.70620  Biso   1.000  H
  N110     1.0000 0.34745  0.18518  0.87883  Biso   1.000  N
  C438     1.0000 0.72935  0.05860  0.92167  Biso   1.000  C
  H209     1.0000 0.75610  0.04900  0.92740  Biso   1.000  H
  C439     1.0000 0.52554  0.34244  0.67647  Biso   1.000  C
  H210     1.0000 0.52300  0.35780  0.65880  Biso   1.000  H
  C440     1.0000 0.56506  0.33768  0.68960  Biso   1.000  C
  C441     1.0000 0.48943  0.32435  0.68956  Biso   1.000  C
  C442     1.0000 0.44732  0.32715  0.67436  Biso   1.000  C
  C443     1.0000 0.69356  0.04414  0.93626  Biso   1.000  C
  N111     1.0000 0.53874  0.27379  0.75598  Biso   1.000  N
  C444     1.0000 0.65311  0.05915  0.92850  Biso   1.000  C
  H211     1.0000 0.62900  0.04930  0.93830  Biso   1.000  H
  C445     1.0000 0.31508  0.14498  0.91927  Biso   1.000  C
  H212     1.0000 0.34180  0.14000  0.92750  Biso   1.000  H
  C446     1.0000 0.56916  0.31550  0.71623  Biso   1.000  C
  H213     1.0000 0.59560  0.31280  0.72530  Biso   1.000  H
  C447     1.0000 0.60427  0.35463  0.67442  Biso   1.000  C
  C448     1.0000 0.69761  0.01112  0.96025  Biso   1.000  C
  C449     1.0000 0.31112  0.16959  0.89372  Biso   1.000  C
  C450     1.0000 0.27146  0.17680  0.88125  Biso   1.000  C
  H214     1.0000 0.26900  0.19290  0.86390  Biso   1.000  H
  C451     1.0000 0.49338  0.30201  0.71625  Biso   1.000  C
  H215     1.0000 0.46950  0.29020  0.72540  Biso   1.000  H
  C452     1.0000 0.53343  0.29754  0.72908  Biso   1.000  C
  C453     1.0000 0.53042  0.23690  0.79660  Biso   1.000  C
  C454     1.0000 0.50985  0.25733  0.77443  Biso   1.000  C
  H216     1.0000 0.48050  0.25960  0.77240  Biso   1.000  H
  C455     1.0000 0.41112  0.19610  0.86113  Biso   1.000  C
  C456     1.0000 0.47134  0.21622  0.82942  Biso   1.000  C
  H217     1.0000 0.45300  0.23340  0.81850  Biso   1.000  H
  C457     1.0000 0.54169  0.18870  0.83867  Biso   1.000  C
  H218     1.0000 0.57060  0.18840  0.83420  Biso   1.000  H
  C458     1.0000 0.38841  0.17309  0.88103  Biso   1.000  C
  H219     1.0000 0.39920  0.15260  0.89390  Biso   1.000  H
  C459     1.0000 0.45608  0.19260  0.85351  Biso   1.000  C
  C460     1.0000 0.55432  0.13890  0.88010  Biso   1.000  C
  C461     1.0000 0.51403  0.21390  0.82192  Biso   1.000  C
  C462     1.0000 0.48392  0.16686  0.87000  Biso   1.000  C
  H220     1.0000 0.47380  0.15160  0.88630  Biso   1.000  H
  C463     1.0000 0.52629  0.16410  0.86204  Biso   1.000  C
  C464     1.0000 0.28369  0.09872  0.95906  Biso   1.000  C
  C465     1.0000 0.27922  0.12781  0.93252  Biso   1.000  C
  C466     1.0000 0.23901  0.13532  0.92037  Biso   1.000  C
  H221     1.0000 0.21480  0.12400  0.92940  Biso   1.000  H
  C467     1.0000 0.23545  0.15991  0.89463  Biso   1.000  C
  O179     1.0000 0.32087  0.09261  0.96870  Biso   1.000  O
  O180     1.0000 0.25042  0.08265  0.96913  Biso   1.000  O
  C468     1.0000 0.19276  0.16587  0.87995  Biso   1.000  C
  O181     1.0000 0.16150  0.14868  0.89264  Biso   1.000  O
  O182     1.0000 0.19171  0.18688  0.85657  Biso   1.000  O
  N112     1.0000 0.54149  0.11440  0.90183  Biso   1.000  N
  N113     1.0000 0.57604  0.09710  0.91564  Biso   1.000  N
  N114     1.0000 0.38374  0.21900  0.84640  Biso   1.000  N
  N115     1.0000 0.57030  0.23960  0.79021  Biso   1.000  N
  N116     1.0000 0.34446  0.21170  0.85663  Biso   1.000  N
  N117     1.0000 0.57617  0.26320  0.76533  Biso   1.000  N
  O183     1.0000 0.29963  0.59050  0.39213  Biso   1.000  O
  O184     1.0000 0.25838  0.62292  0.35815  Biso   1.000  O
  C469     1.0000 0.26417  0.60157  0.38174  Biso   1.000  C
  C470     1.0000 0.22530  0.58756  0.39848  Biso   1.000  C
  C471     1.0000 0.18574  0.60252  0.39022  Biso   1.000  C
  H222     1.0000 0.18300  0.62140  0.37440  Biso   1.000  H
  C472     1.0000 0.14990  0.58887  0.40594  Biso   1.000  C
  N118     1.0000 0.10887  0.60497  0.39884  Biso   1.000  N
  C473     1.0000 0.09729  0.63344  0.37794  Biso   1.000  C
  H223     1.0000 0.11530  0.64690  0.36450  Biso   1.000  H
  Cu27     1.0000 0.19408  0.85987  0.16762  Biso   1.000  Cu
  Cu28     1.0000 0.14591  0.89494  0.12608  Biso   1.000  Cu
  O185     1.0000 0.13951  0.84702  0.18677  Biso   1.000  O
  O186     1.0000 0.16400  0.49407  0.46966  Biso   1.000  O
  O187     1.0000 0.09863  0.87425  0.15063  Biso   1.000  O
  O188     1.0000 0.94537  0.84968  0.15117  Biso   1.000  O
  O189     1.0000 0.91697  0.80680  0.18551  Biso   1.000  O
  O190     1.0000 0.23474  0.50334  0.46924  Biso   1.000  O
  O191     1.0000 0.10753  0.92415  0.09217  Biso   1.000  O
  H224     1.0000 0.11850  0.94670  0.08700  Biso   1.000  H
  O192     1.0000 0.23433  0.83266  0.20130  Biso   1.000  O
  H225     1.0000 0.22500  0.80930  0.20620  Biso   1.000  H
  N119     1.0000 0.84745  0.68518  0.37883  Biso   1.000  N
  C474     1.0000 0.22935  0.55860  0.42167  Biso   1.000  C
  H226     1.0000 0.25610  0.54900  0.42740  Biso   1.000  H
  C475     1.0000 0.02554  0.84244  0.17647  Biso   1.000  C
  H227     1.0000 0.02300  0.85780  0.15880  Biso   1.000  H
  C476     1.0000 0.06506  0.83768  0.18960  Biso   1.000  C
  C477     1.0000 0.98943  0.82435  0.18956  Biso   1.000  C
  C478     1.0000 0.94732  0.82715  0.17436  Biso   1.000  C
  C479     1.0000 0.19356  0.54414  0.43626  Biso   1.000  C
  N120     1.0000 0.03874  0.77379  0.25598  Biso   1.000  N
  C480     1.0000 0.15311  0.55915  0.42850  Biso   1.000  C
  H228     1.0000 0.12900  0.54930  0.43830  Biso   1.000  H
  C481     1.0000 0.81508  0.64498  0.41927  Biso   1.000  C
  H229     1.0000 0.84180  0.64000  0.42750  Biso   1.000  H
  C482     1.0000 0.06916  0.81550  0.21623  Biso   1.000  C
  H230     1.0000 0.09560  0.81280  0.22530  Biso   1.000  H
  C483     1.0000 0.10427  0.85463  0.17442  Biso   1.000  C
  C484     1.0000 0.19761  0.51112  0.46025  Biso   1.000  C
  C485     1.0000 0.81112  0.66959  0.39372  Biso   1.000  C
  C486     1.0000 0.77146  0.67680  0.38125  Biso   1.000  C
  H231     1.0000 0.76900  0.69290  0.36390  Biso   1.000  H
  C487     1.0000 0.99338  0.80201  0.21625  Biso   1.000  C
  H232     1.0000 0.96950  0.79020  0.22540  Biso   1.000  H
  C488     1.0000 0.03343  0.79754  0.22908  Biso   1.000  C
  C489     1.0000 0.03042  0.73690  0.29660  Biso   1.000  C
  C490     1.0000 0.00985  0.75733  0.27443  Biso   1.000  C
  H233     1.0000 0.98050  0.75960  0.27240  Biso   1.000  H
  C491     1.0000 0.91112  0.69610  0.36113  Biso   1.000  C
  C492     1.0000 0.97134  0.71622  0.32942  Biso   1.000  C
  H234     1.0000 0.95300  0.73340  0.31850  Biso   1.000  H
  C493     1.0000 0.04169  0.68870  0.33867  Biso   1.000  C
  H235     1.0000 0.07060  0.68840  0.33420  Biso   1.000  H
  C494     1.0000 0.88841  0.67309  0.38103  Biso   1.000  C
  H236     1.0000 0.89920  0.65260  0.39390  Biso   1.000  H
  C495     1.0000 0.95608  0.69260  0.35351  Biso   1.000  C
  C496     1.0000 0.05432  0.63890  0.38010  Biso   1.000  C
  C497     1.0000 0.01403  0.71390  0.32192  Biso   1.000  C
  C498     1.0000 0.98392  0.66686  0.37000  Biso   1.000  C
  H237     1.0000 0.97380  0.65160  0.38630  Biso   1.000  H
  C499     1.0000 0.02629  0.66410  0.36204  Biso   1.000  C
  C500     1.0000 0.78369  0.59872  0.45906  Biso   1.000  C
  C501     1.0000 0.77922  0.62781  0.43252  Biso   1.000  C
  C502     1.0000 0.73901  0.63532  0.42037  Biso   1.000  C
  H238     1.0000 0.71480  0.62400  0.42940  Biso   1.000  H
  C503     1.0000 0.73545  0.65991  0.39463  Biso   1.000  C
  O193     1.0000 0.82087  0.59261  0.46870  Biso   1.000  O
  O194     1.0000 0.75042  0.58265  0.46913  Biso   1.000  O
  C504     1.0000 0.69276  0.66587  0.37995  Biso   1.000  C
  O195     1.0000 0.66150  0.64868  0.39264  Biso   1.000  O
  O196     1.0000 0.69171  0.68688  0.35657  Biso   1.000  O
  N121     1.0000 0.04149  0.61440  0.40183  Biso   1.000  N
  N122     1.0000 0.07604  0.59710  0.41564  Biso   1.000  N
  N123     1.0000 0.88374  0.71900  0.34640  Biso   1.000  N
  N124     1.0000 0.07030  0.73960  0.29021  Biso   1.000  N
  N125     1.0000 0.84446  0.71170  0.35663  Biso   1.000  N
  N126     1.0000 0.07617  0.76320  0.26533  Biso   1.000  N
  O197     1.0000 0.20037  0.90950  0.89213  Biso   1.000  O
  O198     1.0000 0.24162  0.87708  0.85815  Biso   1.000  O
  C505     1.0000 0.23583  0.89843  0.88174  Biso   1.000  C
  C506     1.0000 0.27470  0.91244  0.89848  Biso   1.000  C
  C507     1.0000 0.31426  0.89748  0.89022  Biso   1.000  C
  H239     1.0000 0.31700  0.87860  0.87440  Biso   1.000  H
  C508     1.0000 0.35010  0.91113  0.90594  Biso   1.000  C
  N127     1.0000 0.39113  0.89503  0.89884  Biso   1.000  N
  C509     1.0000 0.40271  0.86656  0.87794  Biso   1.000  C
  H240     1.0000 0.38470  0.85310  0.86450  Biso   1.000  H
  Cu29     1.0000 0.30592  0.64013  0.66762  Biso   1.000  Cu
  Cu30     1.0000 0.35409  0.60506  0.62608  Biso   1.000  Cu
  O199     1.0000 0.36049  0.65298  0.68677  Biso   1.000  O
  O200     1.0000 0.33600  0.00593  0.96966  Biso   1.000  O
  O201     1.0000 0.40137  0.62575  0.65063  Biso   1.000  O
  O202     1.0000 0.55463  0.65032  0.65117  Biso   1.000  O
  O203     1.0000 0.58303  0.69320  0.68551  Biso   1.000  O
  O204     1.0000 0.26526  0.99666  0.96924  Biso   1.000  O
  O205     1.0000 0.39247  0.57585  0.59217  Biso   1.000  O
  H241     1.0000 0.38150  0.55330  0.58700  Biso   1.000  H
  O206     1.0000 0.26567  0.66734  0.70130  Biso   1.000  O
  H242     1.0000 0.27500  0.69070  0.70620  Biso   1.000  H
  N128     1.0000 0.65255  0.81482  0.87883  Biso   1.000  N
  C510     1.0000 0.27065  0.94140  0.92167  Biso   1.000  C
  H243     1.0000 0.24390  0.95100  0.92740  Biso   1.000  H
  C511     1.0000 0.47446  0.65756  0.67647  Biso   1.000  C
  H244     1.0000 0.47700  0.64220  0.65880  Biso   1.000  H
  C512     1.0000 0.43494  0.66232  0.68960  Biso   1.000  C
  C513     1.0000 0.51057  0.67565  0.68956  Biso   1.000  C
  C514     1.0000 0.55268  0.67285  0.67436  Biso   1.000  C
  C515     1.0000 0.30644  0.95586  0.93626  Biso   1.000  C
  N129     1.0000 0.46126  0.72621  0.75598  Biso   1.000  N
  C516     1.0000 0.34689  0.94085  0.92850  Biso   1.000  C
  H245     1.0000 0.37100  0.95070  0.93830  Biso   1.000  H
  C517     1.0000 0.68492  0.85502  0.91927  Biso   1.000  C
  H246     1.0000 0.65820  0.86000  0.92750  Biso   1.000  H
  C518     1.0000 0.43084  0.68450  0.71623  Biso   1.000  C
  H247     1.0000 0.40440  0.68720  0.72530  Biso   1.000  H
  C519     1.0000 0.39573  0.64537  0.67442  Biso   1.000  C
  C520     1.0000 0.30239  0.98888  0.96025  Biso   1.000  C
  C521     1.0000 0.68888  0.83041  0.89372  Biso   1.000  C
  C522     1.0000 0.72854  0.82320  0.88125  Biso   1.000  C
  H248     1.0000 0.73100  0.80710  0.86390  Biso   1.000  H
  C523     1.0000 0.50662  0.69799  0.71625  Biso   1.000  C
  H249     1.0000 0.53050  0.70980  0.72540  Biso   1.000  H
  C524     1.0000 0.46657  0.70246  0.72908  Biso   1.000  C
  C525     1.0000 0.46958  0.76310  0.79660  Biso   1.000  C
  C526     1.0000 0.49015  0.74267  0.77443  Biso   1.000  C
  H250     1.0000 0.51950  0.74040  0.77240  Biso   1.000  H
  C527     1.0000 0.58888  0.80390  0.86113  Biso   1.000  C
  C528     1.0000 0.52866  0.78378  0.82942  Biso   1.000  C
  H251     1.0000 0.54700  0.76660  0.81850  Biso   1.000  H
  C529     1.0000 0.45831  0.81130  0.83867  Biso   1.000  C
  H252     1.0000 0.42940  0.81160  0.83420  Biso   1.000  H
  C530     1.0000 0.61159  0.82691  0.88103  Biso   1.000  C
  H253     1.0000 0.60080  0.84740  0.89390  Biso   1.000  H
  C531     1.0000 0.54392  0.80740  0.85351  Biso   1.000  C
  C532     1.0000 0.44568  0.86110  0.88010  Biso   1.000  C
  C533     1.0000 0.48597  0.78610  0.82192  Biso   1.000  C
  C534     1.0000 0.51608  0.83314  0.87000  Biso   1.000  C
  H254     1.0000 0.52620  0.84840  0.88630  Biso   1.000  H
  C535     1.0000 0.47371  0.83590  0.86204  Biso   1.000  C
  C536     1.0000 0.71631  0.90128  0.95906  Biso   1.000  C
  C537     1.0000 0.72078  0.87219  0.93252  Biso   1.000  C
  C538     1.0000 0.76099  0.86468  0.92037  Biso   1.000  C
  H255     1.0000 0.78520  0.87600  0.92940  Biso   1.000  H
  C539     1.0000 0.76455  0.84009  0.89463  Biso   1.000  C
  O207     1.0000 0.67913  0.90739  0.96870  Biso   1.000  O
  O208     1.0000 0.74958  0.91735  0.96913  Biso   1.000  O
  C540     1.0000 0.80724  0.83413  0.87995  Biso   1.000  C
  O209     1.0000 0.83850  0.85132  0.89264  Biso   1.000  O
  O210     1.0000 0.80829  0.81312  0.85657  Biso   1.000  O
  N130     1.0000 0.45851  0.88560  0.90183  Biso   1.000  N
  N131     1.0000 0.42396  0.90290  0.91564  Biso   1.000  N
  N132     1.0000 0.61626  0.78100  0.84640  Biso   1.000  N
  N133     1.0000 0.42970  0.76040  0.79021  Biso   1.000  N
  N134     1.0000 0.65554  0.78830  0.85663  Biso   1.000  N
  N135     1.0000 0.42383  0.73680  0.76533  Biso   1.000  N
  O211     1.0000 0.70037  0.40950  0.39213  Biso   1.000  O
  O212     1.0000 0.74162  0.37708  0.35815  Biso   1.000  O
  C541     1.0000 0.73583  0.39843  0.38174  Biso   1.000  C
  C542     1.0000 0.77470  0.41244  0.39848  Biso   1.000  C
  C543     1.0000 0.81426  0.39748  0.39022  Biso   1.000  C
  H256     1.0000 0.81700  0.37860  0.37440  Biso   1.000  H
  C544     1.0000 0.85010  0.41113  0.40594  Biso   1.000  C
  N136     1.0000 0.89113  0.39503  0.39884  Biso   1.000  N
  C545     1.0000 0.90271  0.36656  0.37794  Biso   1.000  C
  H257     1.0000 0.88470  0.35310  0.36450  Biso   1.000  H
  Cu31     1.0000 0.80592  0.14013  0.16762  Biso   1.000  Cu
  Cu32     1.0000 0.85409  0.10506  0.12608  Biso   1.000  Cu
  O213     1.0000 0.86049  0.15298  0.18677  Biso   1.000  O
  O214     1.0000 0.83600  0.50593  0.46966  Biso   1.000  O
  O215     1.0000 0.90137  0.12575  0.15063  Biso   1.000  O
  O216     1.0000 0.05463  0.15032  0.15117  Biso   1.000  O
  O217     1.0000 0.08303  0.19320  0.18551  Biso   1.000  O
  O218     1.0000 0.76526  0.49666  0.46924  Biso   1.000  O
  O219     1.0000 0.89247  0.07585  0.09217  Biso   1.000  O
  H258     1.0000 0.88150  0.05330  0.08700  Biso   1.000  H
  O220     1.0000 0.76567  0.16734  0.20130  Biso   1.000  O
  H259     1.0000 0.77500  0.19070  0.20620  Biso   1.000  H
  N137     1.0000 0.15255  0.31482  0.37883  Biso   1.000  N
  C546     1.0000 0.77065  0.44140  0.42167  Biso   1.000  C
  H260     1.0000 0.74390  0.45100  0.42740  Biso   1.000  H
  C547     1.0000 0.97446  0.15756  0.17647  Biso   1.000  C
  H261     1.0000 0.97700  0.14220  0.15880  Biso   1.000  H
  C548     1.0000 0.93494  0.16232  0.18960  Biso   1.000  C
  C549     1.0000 0.01057  0.17565  0.18956  Biso   1.000  C
  C550     1.0000 0.05268  0.17285  0.17436  Biso   1.000  C
  C551     1.0000 0.80644  0.45586  0.43626  Biso   1.000  C
  N138     1.0000 0.96126  0.22621  0.25598  Biso   1.000  N
  C552     1.0000 0.84689  0.44085  0.42850  Biso   1.000  C
  H262     1.0000 0.87100  0.45070  0.43830  Biso   1.000  H
  C553     1.0000 0.18492  0.35502  0.41927  Biso   1.000  C
  H263     1.0000 0.15820  0.36000  0.42750  Biso   1.000  H
  C554     1.0000 0.93084  0.18450  0.21623  Biso   1.000  C
  H264     1.0000 0.90440  0.18720  0.22530  Biso   1.000  H
  C555     1.0000 0.89573  0.14537  0.17442  Biso   1.000  C
  C556     1.0000 0.80239  0.48888  0.46025  Biso   1.000  C
  C557     1.0000 0.18888  0.33041  0.39372  Biso   1.000  C
  C558     1.0000 0.22854  0.32320  0.38125  Biso   1.000  C
  H265     1.0000 0.23100  0.30710  0.36390  Biso   1.000  H
  C559     1.0000 0.00662  0.19799  0.21625  Biso   1.000  C
  H266     1.0000 0.03050  0.20980  0.22540  Biso   1.000  H
  C560     1.0000 0.96657  0.20246  0.22908  Biso   1.000  C
  C561     1.0000 0.96958  0.26310  0.29660  Biso   1.000  C
  C562     1.0000 0.99015  0.24267  0.27443  Biso   1.000  C
  H267     1.0000 0.01950  0.24040  0.27240  Biso   1.000  H
  C563     1.0000 0.08888  0.30390  0.36113  Biso   1.000  C
  C564     1.0000 0.02866  0.28378  0.32942  Biso   1.000  C
  H268     1.0000 0.04700  0.26660  0.31850  Biso   1.000  H
  C565     1.0000 0.95831  0.31130  0.33867  Biso   1.000  C
  H269     1.0000 0.92940  0.31160  0.33420  Biso   1.000  H
  C566     1.0000 0.11159  0.32691  0.38103  Biso   1.000  C
  H270     1.0000 0.10080  0.34740  0.39390  Biso   1.000  H
  C567     1.0000 0.04392  0.30740  0.35351  Biso   1.000  C
  C568     1.0000 0.94568  0.36110  0.38010  Biso   1.000  C
  C569     1.0000 0.98597  0.28610  0.32192  Biso   1.000  C
  C570     1.0000 0.01608  0.33314  0.37000  Biso   1.000  C
  H271     1.0000 0.02620  0.34840  0.38630  Biso   1.000  H
  C571     1.0000 0.97371  0.33590  0.36204  Biso   1.000  C
  C572     1.0000 0.21631  0.40128  0.45906  Biso   1.000  C
  C573     1.0000 0.22078  0.37219  0.43252  Biso   1.000  C
  C574     1.0000 0.26099  0.36468  0.42037  Biso   1.000  C
  H272     1.0000 0.28520  0.37600  0.42940  Biso   1.000  H
  C575     1.0000 0.26455  0.34009  0.39463  Biso   1.000  C
  O221     1.0000 0.17913  0.40739  0.46870  Biso   1.000  O
  O222     1.0000 0.24958  0.41735  0.46913  Biso   1.000  O
  C576     1.0000 0.30724  0.33413  0.37995  Biso   1.000  C
  O223     1.0000 0.33850  0.35132  0.39264  Biso   1.000  O
  O224     1.0000 0.30829  0.31312  0.35657  Biso   1.000  O
  N139     1.0000 0.95851  0.38560  0.40183  Biso   1.000  N
  N140     1.0000 0.92396  0.40290  0.41564  Biso   1.000  N
  N141     1.0000 0.11626  0.28100  0.34640  Biso   1.000  N
  N142     1.0000 0.92970  0.26040  0.29021  Biso   1.000  N
  N143     1.0000 0.15554  0.28830  0.35663  Biso   1.000  N
  N144     1.0000 0.92383  0.23680  0.26533  Biso   1.000  N
  Cu33     1.0000 0.03886  0.74863  0.00000  Biso   1.000  Cu
  Cu34     1.0000 0.05112  0.66548  0.00000  Biso   1.000  Cu
  Cu35     1.0000 0.53886  0.24863  0.50000  Biso   1.000  Cu
  Cu36     1.0000 0.55112  0.16548  0.50000  Biso   1.000  Cu
  Cu37     1.0000 0.96114  0.25137  0.00000  Biso   1.000  Cu
  Cu38     1.0000 0.94888  0.33452  0.00000  Biso   1.000  Cu
  Cu39     1.0000 0.46114  0.75137  0.50000  Biso   1.000  Cu
  Cu40     1.0000 0.44888  0.83452  0.50000  Biso   1.000  Cu
  Cu41     1.0000 0.25137  0.03886  0.00000  Biso   1.000  Cu
  Cu42     1.0000 0.33452  0.05112  0.00000  Biso   1.000  Cu
  Cu43     1.0000 0.75137  0.53886  0.50000  Biso   1.000  Cu
  Cu44     1.0000 0.83452  0.55112  0.50000  Biso   1.000  Cu
  Cu45     1.0000 0.74863  0.96114  0.00000  Biso   1.000  Cu
  Cu46     1.0000 0.66548  0.94888  0.00000  Biso   1.000  Cu
  Cu47     1.0000 0.24863  0.46114  0.50000  Biso   1.000  Cu
  Cu48     1.0000 0.16548  0.44888  0.50000  Biso   1.000  Cu
