data_WUQRAC_clean_h
_audit_creation_date              2014-07-02
_audit_creation_method            'Materials Studio'
_symmetry_space_group_name_H-M    'P1'
_symmetry_Int_Tables_number       1
_symmetry_cell_setting            triclinic
loop_
_symmetry_equiv_pos_as_xyz
  x,y,z
_cell_length_a                    35.1571
_cell_length_b                    35.1571
_cell_length_c                    35.1571
_cell_angle_alpha                 90.0000
_cell_angle_beta                  90.0000
_cell_angle_gamma                 90.0000
loop_
_atom_site_label
_atom_site_type_symbol
_atom_site_fract_x
_atom_site_fract_y
_atom_site_fract_z
_atom_site_U_iso_or_equiv
_atom_site_adp_type
_atom_site_occupancy
C1     C     0.63900   0.46800   0.30000   0.01267  Uiso   1.00
C2     C     0.57800   0.47700   0.28200   0.01267  Uiso   1.00
C3     C     0.68400   0.50100   0.44000   0.01267  Uiso   1.00
C4     C     0.69300   0.53500   0.45400   0.01267  Uiso   1.00
C5     C     0.70600   0.56000   0.42800   0.01267  Uiso   1.00
C6     C     0.70400   0.55200   0.38900   0.01267  Uiso   1.00
C7     C     0.69500   0.51900   0.37400   0.01267  Uiso   1.00
C8     C     0.61200   0.39800   0.42100   0.01267  Uiso   1.00
C9     C     0.58000   0.40000   0.44000   0.01267  Uiso   1.00
C10    C     0.55200   0.42600   0.43200   0.01267  Uiso   1.00
C11    C     0.56100   0.45300   0.40900   0.01267  Uiso   1.00
C12    C     0.59600   0.45400   0.39800   0.01267  Uiso   1.00
C13    C     0.53400   0.47700   0.39500   0.01267  Uiso   1.00
N1     N     0.64800   0.45300   0.32400   0.01267  Uiso   1.00
N2     N     0.55500   0.46900   0.29900   0.01267  Uiso   1.00
N3     N     0.69100   0.48900   0.40000   0.01267  Uiso   1.00
N4     N     0.62400   0.42400   0.40600   0.01267  Uiso   1.00
H1     H     0.66995   0.47883   0.45904   0.01267  Uiso   1.00
H2     H     0.68944   0.54095   0.48568   0.01267  Uiso   1.00
H3     H     0.71887   0.58817   0.43761   0.01267  Uiso   1.00
H4     H     0.71050   0.57523   0.36733   0.01267  Uiso   1.00
H5     H     0.69101   0.51631   0.34193   0.01267  Uiso   1.00
H6     H     0.62816   0.36994   0.41937   0.01267  Uiso   1.00
H7     H     0.57438   0.37951   0.46450   0.01267  Uiso   1.00
H8     H     0.52269   0.42294   0.44552   0.01267  Uiso   1.00
H9     H     0.60691   0.47932   0.38093   0.01267  Uiso   1.00
H10    H     0.53278   0.48326   0.36321   0.01267  Uiso   1.00
H11    H     0.51262   0.49083   0.41508   0.01267  Uiso   1.00
C14    C     0.13900   0.96800   0.80000   0.01267  Uiso   1.00
C15    C     0.07800   0.97700   0.78200   0.01267  Uiso   1.00
C16    C     0.18400   0.00100   0.94000   0.01267  Uiso   1.00
C17    C     0.19300   0.03500   0.95400   0.01267  Uiso   1.00
C18    C     0.20600   0.06000   0.92800   0.01267  Uiso   1.00
C19    C     0.20400   0.05200   0.88900   0.01267  Uiso   1.00
C20    C     0.19500   0.01900   0.87400   0.01267  Uiso   1.00
C21    C     0.11200   0.89800   0.92100   0.01267  Uiso   1.00
C22    C     0.08000   0.90000   0.94000   0.01267  Uiso   1.00
C23    C     0.05200   0.92600   0.93200   0.01267  Uiso   1.00
C24    C     0.06100   0.95300   0.90900   0.01267  Uiso   1.00
C25    C     0.09600   0.95400   0.89800   0.01267  Uiso   1.00
C26    C     0.03400   0.97700   0.89500   0.01267  Uiso   1.00
N5     N     0.14800   0.95300   0.82400   0.01267  Uiso   1.00
N6     N     0.05500   0.96900   0.79900   0.01267  Uiso   1.00
N7     N     0.19100   0.98900   0.90000   0.01267  Uiso   1.00
N8     N     0.12400   0.92400   0.90600   0.01267  Uiso   1.00
H12    H     0.16995   0.97883   0.95904   0.01267  Uiso   1.00
H13    H     0.18944   0.04095   0.98568   0.01267  Uiso   1.00
H14    H     0.21887   0.08817   0.93761   0.01267  Uiso   1.00
H15    H     0.21050   0.07523   0.86733   0.01267  Uiso   1.00
H16    H     0.19101   0.01631   0.84193   0.01267  Uiso   1.00
H17    H     0.12816   0.86994   0.91937   0.01267  Uiso   1.00
H18    H     0.07438   0.87951   0.96450   0.01267  Uiso   1.00
H19    H     0.02269   0.92294   0.94552   0.01267  Uiso   1.00
H20    H     0.10691   0.97932   0.88093   0.01267  Uiso   1.00
H21    H     0.03278   0.98326   0.86321   0.01267  Uiso   1.00
H22    H     0.01262   0.99083   0.91508   0.01267  Uiso   1.00
C27    C     0.86100   0.53200   0.80000   0.01267  Uiso   1.00
C28    C     0.92200   0.52300   0.78200   0.01267  Uiso   1.00
C29    C     0.81600   0.49900   0.94000   0.01267  Uiso   1.00
C30    C     0.80700   0.46500   0.95400   0.01267  Uiso   1.00
C31    C     0.79400   0.44000   0.92800   0.01267  Uiso   1.00
C32    C     0.79600   0.44800   0.88900   0.01267  Uiso   1.00
C33    C     0.80500   0.48100   0.87400   0.01267  Uiso   1.00
C34    C     0.88800   0.60200   0.92100   0.01267  Uiso   1.00
C35    C     0.92000   0.60000   0.94000   0.01267  Uiso   1.00
C36    C     0.94800   0.57400   0.93200   0.01267  Uiso   1.00
C37    C     0.93900   0.54700   0.90900   0.01267  Uiso   1.00
C38    C     0.90400   0.54600   0.89800   0.01267  Uiso   1.00
C39    C     0.96600   0.52300   0.89500   0.01267  Uiso   1.00
N9     N     0.85200   0.54700   0.82400   0.01267  Uiso   1.00
N10    N     0.94500   0.53100   0.79900   0.01267  Uiso   1.00
N11    N     0.80900   0.51100   0.90000   0.01267  Uiso   1.00
N12    N     0.87600   0.57600   0.90600   0.01267  Uiso   1.00
H23    H     0.83005   0.52117   0.95904   0.01267  Uiso   1.00
H24    H     0.81056   0.45905   0.98568   0.01267  Uiso   1.00
H25    H     0.78113   0.41183   0.93761   0.01267  Uiso   1.00
H26    H     0.78950   0.42477   0.86733   0.01267  Uiso   1.00
H27    H     0.80899   0.48369   0.84193   0.01267  Uiso   1.00
H28    H     0.87184   0.63006   0.91937   0.01267  Uiso   1.00
H29    H     0.92562   0.62049   0.96450   0.01267  Uiso   1.00
H30    H     0.97731   0.57706   0.94552   0.01267  Uiso   1.00
H31    H     0.89309   0.52068   0.88093   0.01267  Uiso   1.00
H32    H     0.96722   0.51674   0.86321   0.01267  Uiso   1.00
H33    H     0.98738   0.50917   0.91508   0.01267  Uiso   1.00
C40    C     0.36100   0.03200   0.30000   0.01267  Uiso   1.00
C41    C     0.42200   0.02300   0.28200   0.01267  Uiso   1.00
C42    C     0.31600   0.99900   0.44000   0.01267  Uiso   1.00
C43    C     0.30700   0.96500   0.45400   0.01267  Uiso   1.00
C44    C     0.29400   0.94000   0.42800   0.01267  Uiso   1.00
C45    C     0.29600   0.94800   0.38900   0.01267  Uiso   1.00
C46    C     0.30500   0.98100   0.37400   0.01267  Uiso   1.00
C47    C     0.38800   0.10200   0.42100   0.01267  Uiso   1.00
C48    C     0.42000   0.10000   0.44000   0.01267  Uiso   1.00
C49    C     0.44800   0.07400   0.43200   0.01267  Uiso   1.00
C50    C     0.43900   0.04700   0.40900   0.01267  Uiso   1.00
C51    C     0.40400   0.04600   0.39800   0.01267  Uiso   1.00
C52    C     0.46600   0.02300   0.39500   0.01267  Uiso   1.00
N13    N     0.35200   0.04700   0.32400   0.01267  Uiso   1.00
N14    N     0.44500   0.03100   0.29900   0.01267  Uiso   1.00
N15    N     0.30900   0.01100   0.40000   0.01267  Uiso   1.00
N16    N     0.37600   0.07600   0.40600   0.01267  Uiso   1.00
H34    H     0.33005   0.02117   0.45904   0.01267  Uiso   1.00
H35    H     0.31056   0.95905   0.48568   0.01267  Uiso   1.00
H36    H     0.28113   0.91183   0.43761   0.01267  Uiso   1.00
H37    H     0.28950   0.92477   0.36733   0.01267  Uiso   1.00
H38    H     0.30899   0.98369   0.34193   0.01267  Uiso   1.00
H39    H     0.37184   0.13006   0.41937   0.01267  Uiso   1.00
H40    H     0.42562   0.12049   0.46450   0.01267  Uiso   1.00
H41    H     0.47731   0.07706   0.44552   0.01267  Uiso   1.00
H42    H     0.39309   0.02068   0.38093   0.01267  Uiso   1.00
H43    H     0.46722   0.01674   0.36321   0.01267  Uiso   1.00
H44    H     0.48738   0.00917   0.41508   0.01267  Uiso   1.00
C53    C     0.36100   0.96800   0.20000   0.01267  Uiso   1.00
C54    C     0.42200   0.97700   0.21800   0.01267  Uiso   1.00
C55    C     0.31600   0.00100   0.06000   0.01267  Uiso   1.00
C56    C     0.30700   0.03500   0.04600   0.01267  Uiso   1.00
C57    C     0.29400   0.06000   0.07200   0.01267  Uiso   1.00
C58    C     0.29600   0.05200   0.11100   0.01267  Uiso   1.00
C59    C     0.30500   0.01900   0.12600   0.01267  Uiso   1.00
C60    C     0.38800   0.89800   0.07900   0.01267  Uiso   1.00
C61    C     0.42000   0.90000   0.06000   0.01267  Uiso   1.00
C62    C     0.44800   0.92600   0.06800   0.01267  Uiso   1.00
C63    C     0.43900   0.95300   0.09100   0.01267  Uiso   1.00
C64    C     0.40400   0.95400   0.10200   0.01267  Uiso   1.00
C65    C     0.46600   0.97700   0.10500   0.01267  Uiso   1.00
N17    N     0.35200   0.95300   0.17600   0.01267  Uiso   1.00
N18    N     0.44500   0.96900   0.20100   0.01267  Uiso   1.00
N19    N     0.30900   0.98900   0.10000   0.01267  Uiso   1.00
N20    N     0.37600   0.92400   0.09400   0.01267  Uiso   1.00
H45    H     0.33005   0.97883   0.04096   0.01267  Uiso   1.00
H46    H     0.31056   0.04095   0.01432   0.01267  Uiso   1.00
H47    H     0.28113   0.08817   0.06239   0.01267  Uiso   1.00
H48    H     0.28950   0.07523   0.13267   0.01267  Uiso   1.00
H49    H     0.30899   0.01631   0.15807   0.01267  Uiso   1.00
H50    H     0.37184   0.86994   0.08063   0.01267  Uiso   1.00
H51    H     0.42562   0.87951   0.03550   0.01267  Uiso   1.00
H52    H     0.47731   0.92294   0.05448   0.01267  Uiso   1.00
H53    H     0.39309   0.97932   0.11907   0.01267  Uiso   1.00
H54    H     0.46722   0.98326   0.13679   0.01267  Uiso   1.00
H55    H     0.48738   0.99083   0.08492   0.01267  Uiso   1.00
C66    C     0.86100   0.46800   0.70000   0.01267  Uiso   1.00
C67    C     0.92200   0.47700   0.71800   0.01267  Uiso   1.00
C68    C     0.81600   0.50100   0.56000   0.01267  Uiso   1.00
C69    C     0.80700   0.53500   0.54600   0.01267  Uiso   1.00
C70    C     0.79400   0.56000   0.57200   0.01267  Uiso   1.00
C71    C     0.79600   0.55200   0.61100   0.01267  Uiso   1.00
C72    C     0.80500   0.51900   0.62600   0.01267  Uiso   1.00
C73    C     0.88800   0.39800   0.57900   0.01267  Uiso   1.00
C74    C     0.92000   0.40000   0.56000   0.01267  Uiso   1.00
C75    C     0.94800   0.42600   0.56800   0.01267  Uiso   1.00
C76    C     0.93900   0.45300   0.59100   0.01267  Uiso   1.00
C77    C     0.90400   0.45400   0.60200   0.01267  Uiso   1.00
C78    C     0.96600   0.47700   0.60500   0.01267  Uiso   1.00
N21    N     0.85200   0.45300   0.67600   0.01267  Uiso   1.00
N22    N     0.94500   0.46900   0.70100   0.01267  Uiso   1.00
N23    N     0.80900   0.48900   0.60000   0.01267  Uiso   1.00
N24    N     0.87600   0.42400   0.59400   0.01267  Uiso   1.00
H56    H     0.83005   0.47883   0.54096   0.01267  Uiso   1.00
H57    H     0.81056   0.54095   0.51432   0.01267  Uiso   1.00
H58    H     0.78113   0.58817   0.56239   0.01267  Uiso   1.00
H59    H     0.78950   0.57523   0.63267   0.01267  Uiso   1.00
H60    H     0.80899   0.51631   0.65807   0.01267  Uiso   1.00
H61    H     0.87184   0.36994   0.58063   0.01267  Uiso   1.00
H62    H     0.92562   0.37951   0.53550   0.01267  Uiso   1.00
H63    H     0.97731   0.42294   0.55448   0.01267  Uiso   1.00
H64    H     0.89309   0.47932   0.61907   0.01267  Uiso   1.00
H65    H     0.96722   0.48326   0.63679   0.01267  Uiso   1.00
H66    H     0.98738   0.49083   0.58492   0.01267  Uiso   1.00
C79    C     0.13900   0.03200   0.70000   0.01267  Uiso   1.00
C80    C     0.07800   0.02300   0.71800   0.01267  Uiso   1.00
C81    C     0.18400   0.99900   0.56000   0.01267  Uiso   1.00
C82    C     0.19300   0.96500   0.54600   0.01267  Uiso   1.00
C83    C     0.20600   0.94000   0.57200   0.01267  Uiso   1.00
C84    C     0.20400   0.94800   0.61100   0.01267  Uiso   1.00
C85    C     0.19500   0.98100   0.62600   0.01267  Uiso   1.00
C86    C     0.11200   0.10200   0.57900   0.01267  Uiso   1.00
C87    C     0.08000   0.10000   0.56000   0.01267  Uiso   1.00
C88    C     0.05200   0.07400   0.56800   0.01267  Uiso   1.00
C89    C     0.06100   0.04700   0.59100   0.01267  Uiso   1.00
C90    C     0.09600   0.04600   0.60200   0.01267  Uiso   1.00
C91    C     0.03400   0.02300   0.60500   0.01267  Uiso   1.00
N25    N     0.14800   0.04700   0.67600   0.01267  Uiso   1.00
N26    N     0.05500   0.03100   0.70100   0.01267  Uiso   1.00
N27    N     0.19100   0.01100   0.60000   0.01267  Uiso   1.00
N28    N     0.12400   0.07600   0.59400   0.01267  Uiso   1.00
H67    H     0.16995   0.02117   0.54096   0.01267  Uiso   1.00
H68    H     0.18944   0.95905   0.51432   0.01267  Uiso   1.00
H69    H     0.21887   0.91183   0.56239   0.01267  Uiso   1.00
H70    H     0.21050   0.92477   0.63267   0.01267  Uiso   1.00
H71    H     0.19101   0.98369   0.65807   0.01267  Uiso   1.00
H72    H     0.12816   0.13006   0.58063   0.01267  Uiso   1.00
H73    H     0.07438   0.12049   0.53550   0.01267  Uiso   1.00
H74    H     0.02269   0.07706   0.55448   0.01267  Uiso   1.00
H75    H     0.10691   0.02068   0.61907   0.01267  Uiso   1.00
H76    H     0.03278   0.01674   0.63679   0.01267  Uiso   1.00
H77    H     0.01262   0.00917   0.58492   0.01267  Uiso   1.00
C92    C     0.63900   0.53200   0.20000   0.01267  Uiso   1.00
C93    C     0.57800   0.52300   0.21800   0.01267  Uiso   1.00
C94    C     0.68400   0.49900   0.06000   0.01267  Uiso   1.00
C95    C     0.69300   0.46500   0.04600   0.01267  Uiso   1.00
C96    C     0.70600   0.44000   0.07200   0.01267  Uiso   1.00
C97    C     0.70400   0.44800   0.11100   0.01267  Uiso   1.00
C98    C     0.69500   0.48100   0.12600   0.01267  Uiso   1.00
C99    C     0.61200   0.60200   0.07900   0.01267  Uiso   1.00
C100   C     0.58000   0.60000   0.06000   0.01267  Uiso   1.00
C101   C     0.55200   0.57400   0.06800   0.01267  Uiso   1.00
C102   C     0.56100   0.54700   0.09100   0.01267  Uiso   1.00
C103   C     0.59600   0.54600   0.10200   0.01267  Uiso   1.00
C104   C     0.53400   0.52300   0.10500   0.01267  Uiso   1.00
N29    N     0.64800   0.54700   0.17600   0.01267  Uiso   1.00
N30    N     0.55500   0.53100   0.20100   0.01267  Uiso   1.00
N31    N     0.69100   0.51100   0.10000   0.01267  Uiso   1.00
N32    N     0.62400   0.57600   0.09400   0.01267  Uiso   1.00
H78    H     0.66995   0.52117   0.04096   0.01267  Uiso   1.00
H79    H     0.68944   0.45905   0.01432   0.01267  Uiso   1.00
H80    H     0.71887   0.41183   0.06239   0.01267  Uiso   1.00
H81    H     0.71050   0.42477   0.13267   0.01267  Uiso   1.00
H82    H     0.69101   0.48369   0.15807   0.01267  Uiso   1.00
H83    H     0.62816   0.63006   0.08063   0.01267  Uiso   1.00
H84    H     0.57438   0.62049   0.03550   0.01267  Uiso   1.00
H85    H     0.52269   0.57706   0.05448   0.01267  Uiso   1.00
H86    H     0.60691   0.52068   0.11907   0.01267  Uiso   1.00
H87    H     0.53278   0.51674   0.13679   0.01267  Uiso   1.00
H88    H     0.51262   0.50917   0.08492   0.01267  Uiso   1.00
C105   C     0.30000   0.63900   0.46800   0.01267  Uiso   1.00
C106   C     0.28200   0.57800   0.47700   0.01267  Uiso   1.00
C107   C     0.44000   0.68400   0.50100   0.01267  Uiso   1.00
C108   C     0.45400   0.69300   0.53500   0.01267  Uiso   1.00
C109   C     0.42800   0.70600   0.56000   0.01267  Uiso   1.00
C110   C     0.38900   0.70400   0.55200   0.01267  Uiso   1.00
C111   C     0.37400   0.69500   0.51900   0.01267  Uiso   1.00
C112   C     0.42100   0.61200   0.39800   0.01267  Uiso   1.00
C113   C     0.44000   0.58000   0.40000   0.01267  Uiso   1.00
C114   C     0.43200   0.55200   0.42600   0.01267  Uiso   1.00
C115   C     0.40900   0.56100   0.45300   0.01267  Uiso   1.00
C116   C     0.39800   0.59600   0.45400   0.01267  Uiso   1.00
C117   C     0.39500   0.53400   0.47700   0.01267  Uiso   1.00
N33    N     0.32400   0.64800   0.45300   0.01267  Uiso   1.00
N34    N     0.29900   0.55500   0.46900   0.01267  Uiso   1.00
N35    N     0.40000   0.69100   0.48900   0.01267  Uiso   1.00
N36    N     0.40600   0.62400   0.42400   0.01267  Uiso   1.00
H89    H     0.45904   0.66995   0.47883   0.01267  Uiso   1.00
H90    H     0.48568   0.68944   0.54095   0.01267  Uiso   1.00
H91    H     0.43761   0.71887   0.58817   0.01267  Uiso   1.00
H92    H     0.36733   0.71050   0.57523   0.01267  Uiso   1.00
H93    H     0.34193   0.69101   0.51631   0.01267  Uiso   1.00
H94    H     0.41937   0.62816   0.36994   0.01267  Uiso   1.00
H95    H     0.46450   0.57438   0.37951   0.01267  Uiso   1.00
H96    H     0.44552   0.52269   0.42294   0.01267  Uiso   1.00
H97    H     0.38093   0.60691   0.47932   0.01267  Uiso   1.00
H98    H     0.36321   0.53278   0.48326   0.01267  Uiso   1.00
H99    H     0.41508   0.51262   0.49083   0.01267  Uiso   1.00
C118   C     0.80000   0.13900   0.96800   0.01267  Uiso   1.00
C119   C     0.78200   0.07800   0.97700   0.01267  Uiso   1.00
C120   C     0.94000   0.18400   0.00100   0.01267  Uiso   1.00
C121   C     0.95400   0.19300   0.03500   0.01267  Uiso   1.00
C122   C     0.92800   0.20600   0.06000   0.01267  Uiso   1.00
C123   C     0.88900   0.20400   0.05200   0.01267  Uiso   1.00
C124   C     0.87400   0.19500   0.01900   0.01267  Uiso   1.00
C125   C     0.92100   0.11200   0.89800   0.01267  Uiso   1.00
C126   C     0.94000   0.08000   0.90000   0.01267  Uiso   1.00
C127   C     0.93200   0.05200   0.92600   0.01267  Uiso   1.00
C128   C     0.90900   0.06100   0.95300   0.01267  Uiso   1.00
C129   C     0.89800   0.09600   0.95400   0.01267  Uiso   1.00
C130   C     0.89500   0.03400   0.97700   0.01267  Uiso   1.00
N37    N     0.82400   0.14800   0.95300   0.01267  Uiso   1.00
N38    N     0.79900   0.05500   0.96900   0.01267  Uiso   1.00
N39    N     0.90000   0.19100   0.98900   0.01267  Uiso   1.00
N40    N     0.90600   0.12400   0.92400   0.01267  Uiso   1.00
H100   H     0.95904   0.16995   0.97883   0.01267  Uiso   1.00
H101   H     0.98568   0.18944   0.04095   0.01267  Uiso   1.00
H102   H     0.93761   0.21887   0.08817   0.01267  Uiso   1.00
H103   H     0.86733   0.21050   0.07523   0.01267  Uiso   1.00
H104   H     0.84193   0.19101   0.01631   0.01267  Uiso   1.00
H105   H     0.91937   0.12816   0.86994   0.01267  Uiso   1.00
H106   H     0.96450   0.07438   0.87951   0.01267  Uiso   1.00
H107   H     0.94552   0.02269   0.92294   0.01267  Uiso   1.00
H108   H     0.88093   0.10691   0.97932   0.01267  Uiso   1.00
H109   H     0.86321   0.03278   0.98326   0.01267  Uiso   1.00
H110   H     0.91508   0.01262   0.99083   0.01267  Uiso   1.00
C131   C     0.80000   0.86100   0.53200   0.01267  Uiso   1.00
C132   C     0.78200   0.92200   0.52300   0.01267  Uiso   1.00
C133   C     0.94000   0.81600   0.49900   0.01267  Uiso   1.00
C134   C     0.95400   0.80700   0.46500   0.01267  Uiso   1.00
C135   C     0.92800   0.79400   0.44000   0.01267  Uiso   1.00
C136   C     0.88900   0.79600   0.44800   0.01267  Uiso   1.00
C137   C     0.87400   0.80500   0.48100   0.01267  Uiso   1.00
C138   C     0.92100   0.88800   0.60200   0.01267  Uiso   1.00
C139   C     0.94000   0.92000   0.60000   0.01267  Uiso   1.00
C140   C     0.93200   0.94800   0.57400   0.01267  Uiso   1.00
C141   C     0.90900   0.93900   0.54700   0.01267  Uiso   1.00
C142   C     0.89800   0.90400   0.54600   0.01267  Uiso   1.00
C143   C     0.89500   0.96600   0.52300   0.01267  Uiso   1.00
N41    N     0.82400   0.85200   0.54700   0.01267  Uiso   1.00
N42    N     0.79900   0.94500   0.53100   0.01267  Uiso   1.00
N43    N     0.90000   0.80900   0.51100   0.01267  Uiso   1.00
N44    N     0.90600   0.87600   0.57600   0.01267  Uiso   1.00
H111   H     0.95904   0.83005   0.52117   0.01267  Uiso   1.00
H112   H     0.98568   0.81056   0.45905   0.01267  Uiso   1.00
H113   H     0.93761   0.78113   0.41183   0.01267  Uiso   1.00
H114   H     0.86733   0.78950   0.42477   0.01267  Uiso   1.00
H115   H     0.84193   0.80899   0.48369   0.01267  Uiso   1.00
H116   H     0.91937   0.87184   0.63006   0.01267  Uiso   1.00
H117   H     0.96450   0.92562   0.62049   0.01267  Uiso   1.00
H118   H     0.94552   0.97731   0.57706   0.01267  Uiso   1.00
H119   H     0.88093   0.89309   0.52068   0.01267  Uiso   1.00
H120   H     0.86321   0.96722   0.51674   0.01267  Uiso   1.00
H121   H     0.91508   0.98738   0.50917   0.01267  Uiso   1.00
C144   C     0.30000   0.36100   0.03200   0.01267  Uiso   1.00
C145   C     0.28200   0.42200   0.02300   0.01267  Uiso   1.00
C146   C     0.44000   0.31600   0.99900   0.01267  Uiso   1.00
C147   C     0.45400   0.30700   0.96500   0.01267  Uiso   1.00
C148   C     0.42800   0.29400   0.94000   0.01267  Uiso   1.00
C149   C     0.38900   0.29600   0.94800   0.01267  Uiso   1.00
C150   C     0.37400   0.30500   0.98100   0.01267  Uiso   1.00
C151   C     0.42100   0.38800   0.10200   0.01267  Uiso   1.00
C152   C     0.44000   0.42000   0.10000   0.01267  Uiso   1.00
C153   C     0.43200   0.44800   0.07400   0.01267  Uiso   1.00
C154   C     0.40900   0.43900   0.04700   0.01267  Uiso   1.00
C155   C     0.39800   0.40400   0.04600   0.01267  Uiso   1.00
C156   C     0.39500   0.46600   0.02300   0.01267  Uiso   1.00
N45    N     0.32400   0.35200   0.04700   0.01267  Uiso   1.00
N46    N     0.29900   0.44500   0.03100   0.01267  Uiso   1.00
N47    N     0.40000   0.30900   0.01100   0.01267  Uiso   1.00
N48    N     0.40600   0.37600   0.07600   0.01267  Uiso   1.00
H122   H     0.45904   0.33005   0.02117   0.01267  Uiso   1.00
H123   H     0.48568   0.31056   0.95905   0.01267  Uiso   1.00
H124   H     0.43761   0.28113   0.91183   0.01267  Uiso   1.00
H125   H     0.36733   0.28950   0.92477   0.01267  Uiso   1.00
H126   H     0.34193   0.30899   0.98369   0.01267  Uiso   1.00
H127   H     0.41937   0.37184   0.13006   0.01267  Uiso   1.00
H128   H     0.46450   0.42562   0.12049   0.01267  Uiso   1.00
H129   H     0.44552   0.47731   0.07706   0.01267  Uiso   1.00
H130   H     0.38093   0.39309   0.02068   0.01267  Uiso   1.00
H131   H     0.36321   0.46722   0.01674   0.01267  Uiso   1.00
H132   H     0.41508   0.48738   0.00917   0.01267  Uiso   1.00
C157   C     0.20000   0.36100   0.96800   0.01267  Uiso   1.00
C158   C     0.21800   0.42200   0.97700   0.01267  Uiso   1.00
C159   C     0.06000   0.31600   0.00100   0.01267  Uiso   1.00
C160   C     0.04600   0.30700   0.03500   0.01267  Uiso   1.00
C161   C     0.07200   0.29400   0.06000   0.01267  Uiso   1.00
C162   C     0.11100   0.29600   0.05200   0.01267  Uiso   1.00
C163   C     0.12600   0.30500   0.01900   0.01267  Uiso   1.00
C164   C     0.07900   0.38800   0.89800   0.01267  Uiso   1.00
C165   C     0.06000   0.42000   0.90000   0.01267  Uiso   1.00
C166   C     0.06800   0.44800   0.92600   0.01267  Uiso   1.00
C167   C     0.09100   0.43900   0.95300   0.01267  Uiso   1.00
C168   C     0.10200   0.40400   0.95400   0.01267  Uiso   1.00
C169   C     0.10500   0.46600   0.97700   0.01267  Uiso   1.00
N49    N     0.17600   0.35200   0.95300   0.01267  Uiso   1.00
N50    N     0.20100   0.44500   0.96900   0.01267  Uiso   1.00
N51    N     0.10000   0.30900   0.98900   0.01267  Uiso   1.00
N52    N     0.09400   0.37600   0.92400   0.01267  Uiso   1.00
H133   H     0.04096   0.33005   0.97883   0.01267  Uiso   1.00
H134   H     0.01432   0.31056   0.04095   0.01267  Uiso   1.00
H135   H     0.06239   0.28113   0.08817   0.01267  Uiso   1.00
H136   H     0.13267   0.28950   0.07523   0.01267  Uiso   1.00
H137   H     0.15807   0.30899   0.01631   0.01267  Uiso   1.00
H138   H     0.08063   0.37184   0.86994   0.01267  Uiso   1.00
H139   H     0.03550   0.42562   0.87951   0.01267  Uiso   1.00
H140   H     0.05448   0.47731   0.92294   0.01267  Uiso   1.00
H141   H     0.11907   0.39309   0.97932   0.01267  Uiso   1.00
H142   H     0.13679   0.46722   0.98326   0.01267  Uiso   1.00
H143   H     0.08492   0.48738   0.99083   0.01267  Uiso   1.00
C170   C     0.70000   0.86100   0.46800   0.01267  Uiso   1.00
C171   C     0.71800   0.92200   0.47700   0.01267  Uiso   1.00
C172   C     0.56000   0.81600   0.50100   0.01267  Uiso   1.00
C173   C     0.54600   0.80700   0.53500   0.01267  Uiso   1.00
C174   C     0.57200   0.79400   0.56000   0.01267  Uiso   1.00
C175   C     0.61100   0.79600   0.55200   0.01267  Uiso   1.00
C176   C     0.62600   0.80500   0.51900   0.01267  Uiso   1.00
C177   C     0.57900   0.88800   0.39800   0.01267  Uiso   1.00
C178   C     0.56000   0.92000   0.40000   0.01267  Uiso   1.00
C179   C     0.56800   0.94800   0.42600   0.01267  Uiso   1.00
C180   C     0.59100   0.93900   0.45300   0.01267  Uiso   1.00
C181   C     0.60200   0.90400   0.45400   0.01267  Uiso   1.00
C182   C     0.60500   0.96600   0.47700   0.01267  Uiso   1.00
N53    N     0.67600   0.85200   0.45300   0.01267  Uiso   1.00
N54    N     0.70100   0.94500   0.46900   0.01267  Uiso   1.00
N55    N     0.60000   0.80900   0.48900   0.01267  Uiso   1.00
N56    N     0.59400   0.87600   0.42400   0.01267  Uiso   1.00
H144   H     0.54096   0.83005   0.47883   0.01267  Uiso   1.00
H145   H     0.51432   0.81056   0.54095   0.01267  Uiso   1.00
H146   H     0.56239   0.78113   0.58817   0.01267  Uiso   1.00
H147   H     0.63267   0.78950   0.57523   0.01267  Uiso   1.00
H148   H     0.65807   0.80899   0.51631   0.01267  Uiso   1.00
H149   H     0.58063   0.87184   0.36994   0.01267  Uiso   1.00
H150   H     0.53550   0.92562   0.37951   0.01267  Uiso   1.00
H151   H     0.55448   0.97731   0.42294   0.01267  Uiso   1.00
H152   H     0.61907   0.89309   0.47932   0.01267  Uiso   1.00
H153   H     0.63679   0.96722   0.48326   0.01267  Uiso   1.00
H154   H     0.58492   0.98738   0.49083   0.01267  Uiso   1.00
C183   C     0.70000   0.13900   0.03200   0.01267  Uiso   1.00
C184   C     0.71800   0.07800   0.02300   0.01267  Uiso   1.00
C185   C     0.56000   0.18400   0.99900   0.01267  Uiso   1.00
C186   C     0.54600   0.19300   0.96500   0.01267  Uiso   1.00
C187   C     0.57200   0.20600   0.94000   0.01267  Uiso   1.00
C188   C     0.61100   0.20400   0.94800   0.01267  Uiso   1.00
C189   C     0.62600   0.19500   0.98100   0.01267  Uiso   1.00
C190   C     0.57900   0.11200   0.10200   0.01267  Uiso   1.00
C191   C     0.56000   0.08000   0.10000   0.01267  Uiso   1.00
C192   C     0.56800   0.05200   0.07400   0.01267  Uiso   1.00
C193   C     0.59100   0.06100   0.04700   0.01267  Uiso   1.00
C194   C     0.60200   0.09600   0.04600   0.01267  Uiso   1.00
C195   C     0.60500   0.03400   0.02300   0.01267  Uiso   1.00
N57    N     0.67600   0.14800   0.04700   0.01267  Uiso   1.00
N58    N     0.70100   0.05500   0.03100   0.01267  Uiso   1.00
N59    N     0.60000   0.19100   0.01100   0.01267  Uiso   1.00
N60    N     0.59400   0.12400   0.07600   0.01267  Uiso   1.00
H155   H     0.54096   0.16995   0.02117   0.01267  Uiso   1.00
H156   H     0.51432   0.18944   0.95905   0.01267  Uiso   1.00
H157   H     0.56239   0.21887   0.91183   0.01267  Uiso   1.00
H158   H     0.63267   0.21050   0.92477   0.01267  Uiso   1.00
H159   H     0.65807   0.19101   0.98369   0.01267  Uiso   1.00
H160   H     0.58063   0.12816   0.13006   0.01267  Uiso   1.00
H161   H     0.53550   0.07438   0.12049   0.01267  Uiso   1.00
H162   H     0.55448   0.02269   0.07706   0.01267  Uiso   1.00
H163   H     0.61907   0.10691   0.02068   0.01267  Uiso   1.00
H164   H     0.63679   0.03278   0.01674   0.01267  Uiso   1.00
H165   H     0.58492   0.01262   0.00917   0.01267  Uiso   1.00
C196   C     0.20000   0.63900   0.53200   0.01267  Uiso   1.00
C197   C     0.21800   0.57800   0.52300   0.01267  Uiso   1.00
C198   C     0.06000   0.68400   0.49900   0.01267  Uiso   1.00
C199   C     0.04600   0.69300   0.46500   0.01267  Uiso   1.00
C200   C     0.07200   0.70600   0.44000   0.01267  Uiso   1.00
C201   C     0.11100   0.70400   0.44800   0.01267  Uiso   1.00
C202   C     0.12600   0.69500   0.48100   0.01267  Uiso   1.00
C203   C     0.07900   0.61200   0.60200   0.01267  Uiso   1.00
C204   C     0.06000   0.58000   0.60000   0.01267  Uiso   1.00
C205   C     0.06800   0.55200   0.57400   0.01267  Uiso   1.00
C206   C     0.09100   0.56100   0.54700   0.01267  Uiso   1.00
C207   C     0.10200   0.59600   0.54600   0.01267  Uiso   1.00
C208   C     0.10500   0.53400   0.52300   0.01267  Uiso   1.00
N61    N     0.17600   0.64800   0.54700   0.01267  Uiso   1.00
N62    N     0.20100   0.55500   0.53100   0.01267  Uiso   1.00
N63    N     0.10000   0.69100   0.51100   0.01267  Uiso   1.00
N64    N     0.09400   0.62400   0.57600   0.01267  Uiso   1.00
H166   H     0.04096   0.66995   0.52117   0.01267  Uiso   1.00
H167   H     0.01432   0.68944   0.45905   0.01267  Uiso   1.00
H168   H     0.06239   0.71887   0.41183   0.01267  Uiso   1.00
H169   H     0.13267   0.71050   0.42477   0.01267  Uiso   1.00
H170   H     0.15807   0.69101   0.48369   0.01267  Uiso   1.00
H171   H     0.08063   0.62816   0.63006   0.01267  Uiso   1.00
H172   H     0.03550   0.57438   0.62049   0.01267  Uiso   1.00
H173   H     0.05448   0.52269   0.57706   0.01267  Uiso   1.00
H174   H     0.11907   0.60691   0.52068   0.01267  Uiso   1.00
H175   H     0.13679   0.53278   0.51674   0.01267  Uiso   1.00
H176   H     0.08492   0.51262   0.50917   0.01267  Uiso   1.00
C209   C     0.46800   0.30000   0.63900   0.01267  Uiso   1.00
C210   C     0.47700   0.28200   0.57800   0.01267  Uiso   1.00
C211   C     0.50100   0.44000   0.68400   0.01267  Uiso   1.00
C212   C     0.53500   0.45400   0.69300   0.01267  Uiso   1.00
C213   C     0.56000   0.42800   0.70600   0.01267  Uiso   1.00
C214   C     0.55200   0.38900   0.70400   0.01267  Uiso   1.00
C215   C     0.51900   0.37400   0.69500   0.01267  Uiso   1.00
C216   C     0.39800   0.42100   0.61200   0.01267  Uiso   1.00
C217   C     0.40000   0.44000   0.58000   0.01267  Uiso   1.00
C218   C     0.42600   0.43200   0.55200   0.01267  Uiso   1.00
C219   C     0.45300   0.40900   0.56100   0.01267  Uiso   1.00
C220   C     0.45400   0.39800   0.59600   0.01267  Uiso   1.00
C221   C     0.47700   0.39500   0.53400   0.01267  Uiso   1.00
N65    N     0.45300   0.32400   0.64800   0.01267  Uiso   1.00
N66    N     0.46900   0.29900   0.55500   0.01267  Uiso   1.00
N67    N     0.48900   0.40000   0.69100   0.01267  Uiso   1.00
N68    N     0.42400   0.40600   0.62400   0.01267  Uiso   1.00
H177   H     0.47883   0.45904   0.66995   0.01267  Uiso   1.00
H178   H     0.54095   0.48568   0.68944   0.01267  Uiso   1.00
H179   H     0.58817   0.43761   0.71887   0.01267  Uiso   1.00
H180   H     0.57523   0.36733   0.71050   0.01267  Uiso   1.00
H181   H     0.51631   0.34193   0.69101   0.01267  Uiso   1.00
H182   H     0.36994   0.41937   0.62816   0.01267  Uiso   1.00
H183   H     0.37951   0.46450   0.57438   0.01267  Uiso   1.00
H184   H     0.42294   0.44552   0.52269   0.01267  Uiso   1.00
H185   H     0.47932   0.38093   0.60691   0.01267  Uiso   1.00
H186   H     0.48326   0.36321   0.53278   0.01267  Uiso   1.00
H187   H     0.49083   0.41508   0.51262   0.01267  Uiso   1.00
C222   C     0.96800   0.80000   0.13900   0.01267  Uiso   1.00
C223   C     0.97700   0.78200   0.07800   0.01267  Uiso   1.00
C224   C     0.00100   0.94000   0.18400   0.01267  Uiso   1.00
C225   C     0.03500   0.95400   0.19300   0.01267  Uiso   1.00
C226   C     0.06000   0.92800   0.20600   0.01267  Uiso   1.00
C227   C     0.05200   0.88900   0.20400   0.01267  Uiso   1.00
C228   C     0.01900   0.87400   0.19500   0.01267  Uiso   1.00
C229   C     0.89800   0.92100   0.11200   0.01267  Uiso   1.00
C230   C     0.90000   0.94000   0.08000   0.01267  Uiso   1.00
C231   C     0.92600   0.93200   0.05200   0.01267  Uiso   1.00
C232   C     0.95300   0.90900   0.06100   0.01267  Uiso   1.00
C233   C     0.95400   0.89800   0.09600   0.01267  Uiso   1.00
C234   C     0.97700   0.89500   0.03400   0.01267  Uiso   1.00
N69    N     0.95300   0.82400   0.14800   0.01267  Uiso   1.00
N70    N     0.96900   0.79900   0.05500   0.01267  Uiso   1.00
N71    N     0.98900   0.90000   0.19100   0.01267  Uiso   1.00
N72    N     0.92400   0.90600   0.12400   0.01267  Uiso   1.00
H188   H     0.97883   0.95904   0.16995   0.01267  Uiso   1.00
H189   H     0.04095   0.98568   0.18944   0.01267  Uiso   1.00
H190   H     0.08817   0.93761   0.21887   0.01267  Uiso   1.00
H191   H     0.07523   0.86733   0.21050   0.01267  Uiso   1.00
H192   H     0.01631   0.84193   0.19101   0.01267  Uiso   1.00
H193   H     0.86994   0.91937   0.12816   0.01267  Uiso   1.00
H194   H     0.87951   0.96450   0.07438   0.01267  Uiso   1.00
H195   H     0.92294   0.94552   0.02269   0.01267  Uiso   1.00
H196   H     0.97932   0.88093   0.10691   0.01267  Uiso   1.00
H197   H     0.98326   0.86321   0.03278   0.01267  Uiso   1.00
H198   H     0.99083   0.91508   0.01262   0.01267  Uiso   1.00
C235   C     0.53200   0.80000   0.86100   0.01267  Uiso   1.00
C236   C     0.52300   0.78200   0.92200   0.01267  Uiso   1.00
C237   C     0.49900   0.94000   0.81600   0.01267  Uiso   1.00
C238   C     0.46500   0.95400   0.80700   0.01267  Uiso   1.00
C239   C     0.44000   0.92800   0.79400   0.01267  Uiso   1.00
C240   C     0.44800   0.88900   0.79600   0.01267  Uiso   1.00
C241   C     0.48100   0.87400   0.80500   0.01267  Uiso   1.00
C242   C     0.60200   0.92100   0.88800   0.01267  Uiso   1.00
C243   C     0.60000   0.94000   0.92000   0.01267  Uiso   1.00
C244   C     0.57400   0.93200   0.94800   0.01267  Uiso   1.00
C245   C     0.54700   0.90900   0.93900   0.01267  Uiso   1.00
C246   C     0.54600   0.89800   0.90400   0.01267  Uiso   1.00
C247   C     0.52300   0.89500   0.96600   0.01267  Uiso   1.00
N73    N     0.54700   0.82400   0.85200   0.01267  Uiso   1.00
N74    N     0.53100   0.79900   0.94500   0.01267  Uiso   1.00
N75    N     0.51100   0.90000   0.80900   0.01267  Uiso   1.00
N76    N     0.57600   0.90600   0.87600   0.01267  Uiso   1.00
H199   H     0.52117   0.95904   0.83005   0.01267  Uiso   1.00
H200   H     0.45905   0.98568   0.81056   0.01267  Uiso   1.00
H201   H     0.41183   0.93761   0.78113   0.01267  Uiso   1.00
H202   H     0.42477   0.86733   0.78950   0.01267  Uiso   1.00
H203   H     0.48369   0.84193   0.80899   0.01267  Uiso   1.00
H204   H     0.63006   0.91937   0.87184   0.01267  Uiso   1.00
H205   H     0.62049   0.96450   0.92562   0.01267  Uiso   1.00
H206   H     0.57706   0.94552   0.97731   0.01267  Uiso   1.00
H207   H     0.52068   0.88093   0.89309   0.01267  Uiso   1.00
H208   H     0.51674   0.86321   0.96722   0.01267  Uiso   1.00
H209   H     0.50917   0.91508   0.98738   0.01267  Uiso   1.00
C248   C     0.03200   0.30000   0.36100   0.01267  Uiso   1.00
C249   C     0.02300   0.28200   0.42200   0.01267  Uiso   1.00
C250   C     0.99900   0.44000   0.31600   0.01267  Uiso   1.00
C251   C     0.96500   0.45400   0.30700   0.01267  Uiso   1.00
C252   C     0.94000   0.42800   0.29400   0.01267  Uiso   1.00
C253   C     0.94800   0.38900   0.29600   0.01267  Uiso   1.00
C254   C     0.98100   0.37400   0.30500   0.01267  Uiso   1.00
C255   C     0.10200   0.42100   0.38800   0.01267  Uiso   1.00
C256   C     0.10000   0.44000   0.42000   0.01267  Uiso   1.00
C257   C     0.07400   0.43200   0.44800   0.01267  Uiso   1.00
C258   C     0.04700   0.40900   0.43900   0.01267  Uiso   1.00
C259   C     0.04600   0.39800   0.40400   0.01267  Uiso   1.00
C260   C     0.02300   0.39500   0.46600   0.01267  Uiso   1.00
N77    N     0.04700   0.32400   0.35200   0.01267  Uiso   1.00
N78    N     0.03100   0.29900   0.44500   0.01267  Uiso   1.00
N79    N     0.01100   0.40000   0.30900   0.01267  Uiso   1.00
N80    N     0.07600   0.40600   0.37600   0.01267  Uiso   1.00
H210   H     0.02117   0.45904   0.33005   0.01267  Uiso   1.00
H211   H     0.95905   0.48568   0.31056   0.01267  Uiso   1.00
H212   H     0.91183   0.43761   0.28113   0.01267  Uiso   1.00
H213   H     0.92477   0.36733   0.28950   0.01267  Uiso   1.00
H214   H     0.98369   0.34193   0.30899   0.01267  Uiso   1.00
H215   H     0.13006   0.41937   0.37184   0.01267  Uiso   1.00
H216   H     0.12049   0.46450   0.42562   0.01267  Uiso   1.00
H217   H     0.07706   0.44552   0.47731   0.01267  Uiso   1.00
H218   H     0.02068   0.38093   0.39309   0.01267  Uiso   1.00
H219   H     0.01674   0.36321   0.46722   0.01267  Uiso   1.00
H220   H     0.00917   0.41508   0.48738   0.01267  Uiso   1.00
C261   C     0.96800   0.20000   0.36100   0.01267  Uiso   1.00
C262   C     0.97700   0.21800   0.42200   0.01267  Uiso   1.00
C263   C     0.00100   0.06000   0.31600   0.01267  Uiso   1.00
C264   C     0.03500   0.04600   0.30700   0.01267  Uiso   1.00
C265   C     0.06000   0.07200   0.29400   0.01267  Uiso   1.00
C266   C     0.05200   0.11100   0.29600   0.01267  Uiso   1.00
C267   C     0.01900   0.12600   0.30500   0.01267  Uiso   1.00
C268   C     0.89800   0.07900   0.38800   0.01267  Uiso   1.00
C269   C     0.90000   0.06000   0.42000   0.01267  Uiso   1.00
C270   C     0.92600   0.06800   0.44800   0.01267  Uiso   1.00
C271   C     0.95300   0.09100   0.43900   0.01267  Uiso   1.00
C272   C     0.95400   0.10200   0.40400   0.01267  Uiso   1.00
C273   C     0.97700   0.10500   0.46600   0.01267  Uiso   1.00
N81    N     0.95300   0.17600   0.35200   0.01267  Uiso   1.00
N82    N     0.96900   0.20100   0.44500   0.01267  Uiso   1.00
N83    N     0.98900   0.10000   0.30900   0.01267  Uiso   1.00
N84    N     0.92400   0.09400   0.37600   0.01267  Uiso   1.00
H221   H     0.97883   0.04096   0.33005   0.01267  Uiso   1.00
H222   H     0.04095   0.01432   0.31056   0.01267  Uiso   1.00
H223   H     0.08817   0.06239   0.28113   0.01267  Uiso   1.00
H224   H     0.07523   0.13267   0.28950   0.01267  Uiso   1.00
H225   H     0.01631   0.15807   0.30899   0.01267  Uiso   1.00
H226   H     0.86994   0.08063   0.37184   0.01267  Uiso   1.00
H227   H     0.87951   0.03550   0.42562   0.01267  Uiso   1.00
H228   H     0.92294   0.05448   0.47731   0.01267  Uiso   1.00
H229   H     0.97932   0.11907   0.39309   0.01267  Uiso   1.00
H230   H     0.98326   0.13679   0.46722   0.01267  Uiso   1.00
H231   H     0.99083   0.08492   0.48738   0.01267  Uiso   1.00
C274   C     0.46800   0.70000   0.86100   0.01267  Uiso   1.00
C275   C     0.47700   0.71800   0.92200   0.01267  Uiso   1.00
C276   C     0.50100   0.56000   0.81600   0.01267  Uiso   1.00
C277   C     0.53500   0.54600   0.80700   0.01267  Uiso   1.00
C278   C     0.56000   0.57200   0.79400   0.01267  Uiso   1.00
C279   C     0.55200   0.61100   0.79600   0.01267  Uiso   1.00
C280   C     0.51900   0.62600   0.80500   0.01267  Uiso   1.00
C281   C     0.39800   0.57900   0.88800   0.01267  Uiso   1.00
C282   C     0.40000   0.56000   0.92000   0.01267  Uiso   1.00
C283   C     0.42600   0.56800   0.94800   0.01267  Uiso   1.00
C284   C     0.45300   0.59100   0.93900   0.01267  Uiso   1.00
C285   C     0.45400   0.60200   0.90400   0.01267  Uiso   1.00
C286   C     0.47700   0.60500   0.96600   0.01267  Uiso   1.00
N85    N     0.45300   0.67600   0.85200   0.01267  Uiso   1.00
N86    N     0.46900   0.70100   0.94500   0.01267  Uiso   1.00
N87    N     0.48900   0.60000   0.80900   0.01267  Uiso   1.00
N88    N     0.42400   0.59400   0.87600   0.01267  Uiso   1.00
H232   H     0.47883   0.54096   0.83005   0.01267  Uiso   1.00
H233   H     0.54095   0.51432   0.81056   0.01267  Uiso   1.00
H234   H     0.58817   0.56239   0.78113   0.01267  Uiso   1.00
H235   H     0.57523   0.63267   0.78950   0.01267  Uiso   1.00
H236   H     0.51631   0.65807   0.80899   0.01267  Uiso   1.00
H237   H     0.36994   0.58063   0.87184   0.01267  Uiso   1.00
H238   H     0.37951   0.53550   0.92562   0.01267  Uiso   1.00
H239   H     0.42294   0.55448   0.97731   0.01267  Uiso   1.00
H240   H     0.47932   0.61907   0.89309   0.01267  Uiso   1.00
H241   H     0.48326   0.63679   0.96722   0.01267  Uiso   1.00
H242   H     0.49083   0.58492   0.98738   0.01267  Uiso   1.00
C287   C     0.03200   0.70000   0.13900   0.01267  Uiso   1.00
C288   C     0.02300   0.71800   0.07800   0.01267  Uiso   1.00
C289   C     0.99900   0.56000   0.18400   0.01267  Uiso   1.00
C290   C     0.96500   0.54600   0.19300   0.01267  Uiso   1.00
C291   C     0.94000   0.57200   0.20600   0.01267  Uiso   1.00
C292   C     0.94800   0.61100   0.20400   0.01267  Uiso   1.00
C293   C     0.98100   0.62600   0.19500   0.01267  Uiso   1.00
C294   C     0.10200   0.57900   0.11200   0.01267  Uiso   1.00
C295   C     0.10000   0.56000   0.08000   0.01267  Uiso   1.00
C296   C     0.07400   0.56800   0.05200   0.01267  Uiso   1.00
C297   C     0.04700   0.59100   0.06100   0.01267  Uiso   1.00
C298   C     0.04600   0.60200   0.09600   0.01267  Uiso   1.00
C299   C     0.02300   0.60500   0.03400   0.01267  Uiso   1.00
N89    N     0.04700   0.67600   0.14800   0.01267  Uiso   1.00
N90    N     0.03100   0.70100   0.05500   0.01267  Uiso   1.00
N91    N     0.01100   0.60000   0.19100   0.01267  Uiso   1.00
N92    N     0.07600   0.59400   0.12400   0.01267  Uiso   1.00
H243   H     0.02117   0.54096   0.16995   0.01267  Uiso   1.00
H244   H     0.95905   0.51432   0.18944   0.01267  Uiso   1.00
H245   H     0.91183   0.56239   0.21887   0.01267  Uiso   1.00
H246   H     0.92477   0.63267   0.21050   0.01267  Uiso   1.00
H247   H     0.98369   0.65807   0.19101   0.01267  Uiso   1.00
H248   H     0.13006   0.58063   0.12816   0.01267  Uiso   1.00
H249   H     0.12049   0.53550   0.07438   0.01267  Uiso   1.00
H250   H     0.07706   0.55448   0.02269   0.01267  Uiso   1.00
H251   H     0.02068   0.61907   0.10691   0.01267  Uiso   1.00
H252   H     0.01674   0.63679   0.03278   0.01267  Uiso   1.00
H253   H     0.00917   0.58492   0.01262   0.01267  Uiso   1.00
C300   C     0.53200   0.20000   0.63900   0.01267  Uiso   1.00
C301   C     0.52300   0.21800   0.57800   0.01267  Uiso   1.00
C302   C     0.49900   0.06000   0.68400   0.01267  Uiso   1.00
C303   C     0.46500   0.04600   0.69300   0.01267  Uiso   1.00
C304   C     0.44000   0.07200   0.70600   0.01267  Uiso   1.00
C305   C     0.44800   0.11100   0.70400   0.01267  Uiso   1.00
C306   C     0.48100   0.12600   0.69500   0.01267  Uiso   1.00
C307   C     0.60200   0.07900   0.61200   0.01267  Uiso   1.00
C308   C     0.60000   0.06000   0.58000   0.01267  Uiso   1.00
C309   C     0.57400   0.06800   0.55200   0.01267  Uiso   1.00
C310   C     0.54700   0.09100   0.56100   0.01267  Uiso   1.00
C311   C     0.54600   0.10200   0.59600   0.01267  Uiso   1.00
C312   C     0.52300   0.10500   0.53400   0.01267  Uiso   1.00
N93    N     0.54700   0.17600   0.64800   0.01267  Uiso   1.00
N94    N     0.53100   0.20100   0.55500   0.01267  Uiso   1.00
N95    N     0.51100   0.10000   0.69100   0.01267  Uiso   1.00
N96    N     0.57600   0.09400   0.62400   0.01267  Uiso   1.00
H254   H     0.52117   0.04096   0.66995   0.01267  Uiso   1.00
H255   H     0.45905   0.01432   0.68944   0.01267  Uiso   1.00
H256   H     0.41183   0.06239   0.71887   0.01267  Uiso   1.00
H257   H     0.42477   0.13267   0.71050   0.01267  Uiso   1.00
H258   H     0.48369   0.15807   0.69101   0.01267  Uiso   1.00
H259   H     0.63006   0.08063   0.62816   0.01267  Uiso   1.00
H260   H     0.62049   0.03550   0.57438   0.01267  Uiso   1.00
H261   H     0.57706   0.05448   0.52269   0.01267  Uiso   1.00
H262   H     0.52068   0.11907   0.60691   0.01267  Uiso   1.00
H263   H     0.51674   0.13679   0.53278   0.01267  Uiso   1.00
H264   H     0.50917   0.08492   0.51262   0.01267  Uiso   1.00
C313   C     0.21800   0.88900   0.95000   0.01267  Uiso   1.00
C314   C     0.22700   0.82800   0.96800   0.01267  Uiso   1.00
C315   C     0.25100   0.93400   0.81000   0.01267  Uiso   1.00
C316   C     0.28500   0.94300   0.79600   0.01267  Uiso   1.00
C317   C     0.31000   0.95600   0.82200   0.01267  Uiso   1.00
C318   C     0.30200   0.95400   0.86100   0.01267  Uiso   1.00
C319   C     0.26900   0.94500   0.87600   0.01267  Uiso   1.00
C320   C     0.14800   0.86200   0.82900   0.01267  Uiso   1.00
C321   C     0.15000   0.83000   0.81000   0.01267  Uiso   1.00
C322   C     0.17600   0.80200   0.81800   0.01267  Uiso   1.00
C323   C     0.20300   0.81100   0.84100   0.01267  Uiso   1.00
C324   C     0.20400   0.84600   0.85200   0.01267  Uiso   1.00
C325   C     0.22700   0.78400   0.85500   0.01267  Uiso   1.00
N97    N     0.20300   0.89800   0.92600   0.01267  Uiso   1.00
N98    N     0.21900   0.80500   0.95100   0.01267  Uiso   1.00
N99    N     0.23900   0.94100   0.85000   0.01267  Uiso   1.00
N100   N     0.17400   0.87400   0.84400   0.01267  Uiso   1.00
H265   H     0.22883   0.91995   0.79096   0.01267  Uiso   1.00
H266   H     0.29095   0.93944   0.76432   0.01267  Uiso   1.00
H267   H     0.33817   0.96887   0.81239   0.01267  Uiso   1.00
H268   H     0.32523   0.96050   0.88267   0.01267  Uiso   1.00
H269   H     0.26631   0.94101   0.90807   0.01267  Uiso   1.00
H270   H     0.11994   0.87816   0.83063   0.01267  Uiso   1.00
H271   H     0.12951   0.82438   0.78550   0.01267  Uiso   1.00
H272   H     0.17294   0.77269   0.80448   0.01267  Uiso   1.00
H273   H     0.22932   0.85691   0.86907   0.01267  Uiso   1.00
H274   H     0.23326   0.78278   0.88679   0.01267  Uiso   1.00
H275   H     0.24083   0.76262   0.83492   0.01267  Uiso   1.00
C326   C     0.71800   0.38900   0.45000   0.01267  Uiso   1.00
C327   C     0.72700   0.32800   0.46800   0.01267  Uiso   1.00
C328   C     0.75100   0.43400   0.31000   0.01267  Uiso   1.00
C329   C     0.78500   0.44300   0.29600   0.01267  Uiso   1.00
C330   C     0.81000   0.45600   0.32200   0.01267  Uiso   1.00
C331   C     0.80200   0.45400   0.36100   0.01267  Uiso   1.00
C332   C     0.76900   0.44500   0.37600   0.01267  Uiso   1.00
C333   C     0.64800   0.36200   0.32900   0.01267  Uiso   1.00
C334   C     0.65000   0.33000   0.31000   0.01267  Uiso   1.00
C335   C     0.67600   0.30200   0.31800   0.01267  Uiso   1.00
C336   C     0.70300   0.31100   0.34100   0.01267  Uiso   1.00
C337   C     0.70400   0.34600   0.35200   0.01267  Uiso   1.00
C338   C     0.72700   0.28400   0.35500   0.01267  Uiso   1.00
N101   N     0.70300   0.39800   0.42600   0.01267  Uiso   1.00
N102   N     0.71900   0.30500   0.45100   0.01267  Uiso   1.00
N103   N     0.73900   0.44100   0.35000   0.01267  Uiso   1.00
N104   N     0.67400   0.37400   0.34400   0.01267  Uiso   1.00
H276   H     0.72883   0.41995   0.29096   0.01267  Uiso   1.00
H277   H     0.79095   0.43944   0.26432   0.01267  Uiso   1.00
H278   H     0.83817   0.46887   0.31239   0.01267  Uiso   1.00
H279   H     0.82523   0.46050   0.38267   0.01267  Uiso   1.00
H280   H     0.76631   0.44101   0.40807   0.01267  Uiso   1.00
H281   H     0.61994   0.37816   0.33063   0.01267  Uiso   1.00
H282   H     0.62951   0.32438   0.28550   0.01267  Uiso   1.00
H283   H     0.67294   0.27269   0.30448   0.01267  Uiso   1.00
H284   H     0.72932   0.35691   0.36907   0.01267  Uiso   1.00
H285   H     0.73326   0.28278   0.38679   0.01267  Uiso   1.00
H286   H     0.74083   0.26262   0.33492   0.01267  Uiso   1.00
C339   C     0.28200   0.11100   0.45000   0.01267  Uiso   1.00
C340   C     0.27300   0.17200   0.46800   0.01267  Uiso   1.00
C341   C     0.24900   0.06600   0.31000   0.01267  Uiso   1.00
C342   C     0.21500   0.05700   0.29600   0.01267  Uiso   1.00
C343   C     0.19000   0.04400   0.32200   0.01267  Uiso   1.00
C344   C     0.19800   0.04600   0.36100   0.01267  Uiso   1.00
C345   C     0.23100   0.05500   0.37600   0.01267  Uiso   1.00
C346   C     0.35200   0.13800   0.32900   0.01267  Uiso   1.00
C347   C     0.35000   0.17000   0.31000   0.01267  Uiso   1.00
C348   C     0.32400   0.19800   0.31800   0.01267  Uiso   1.00
C349   C     0.29700   0.18900   0.34100   0.01267  Uiso   1.00
C350   C     0.29600   0.15400   0.35200   0.01267  Uiso   1.00
C351   C     0.27300   0.21600   0.35500   0.01267  Uiso   1.00
N105   N     0.29700   0.10200   0.42600   0.01267  Uiso   1.00
N106   N     0.28100   0.19500   0.45100   0.01267  Uiso   1.00
N107   N     0.26100   0.05900   0.35000   0.01267  Uiso   1.00
N108   N     0.32600   0.12600   0.34400   0.01267  Uiso   1.00
H287   H     0.27117   0.08005   0.29096   0.01267  Uiso   1.00
H288   H     0.20905   0.06056   0.26432   0.01267  Uiso   1.00
H289   H     0.16183   0.03113   0.31239   0.01267  Uiso   1.00
H290   H     0.17477   0.03950   0.38267   0.01267  Uiso   1.00
H291   H     0.23369   0.05899   0.40807   0.01267  Uiso   1.00
H292   H     0.38006   0.12184   0.33063   0.01267  Uiso   1.00
H293   H     0.37049   0.17562   0.28550   0.01267  Uiso   1.00
H294   H     0.32706   0.22731   0.30448   0.01267  Uiso   1.00
H295   H     0.27068   0.14309   0.36907   0.01267  Uiso   1.00
H296   H     0.26674   0.21722   0.38679   0.01267  Uiso   1.00
H297   H     0.25917   0.23738   0.33492   0.01267  Uiso   1.00
C352   C     0.78200   0.61100   0.95000   0.01267  Uiso   1.00
C353   C     0.77300   0.67200   0.96800   0.01267  Uiso   1.00
C354   C     0.74900   0.56600   0.81000   0.01267  Uiso   1.00
C355   C     0.71500   0.55700   0.79600   0.01267  Uiso   1.00
C356   C     0.69000   0.54400   0.82200   0.01267  Uiso   1.00
C357   C     0.69800   0.54600   0.86100   0.01267  Uiso   1.00
C358   C     0.73100   0.55500   0.87600   0.01267  Uiso   1.00
C359   C     0.85200   0.63800   0.82900   0.01267  Uiso   1.00
C360   C     0.85000   0.67000   0.81000   0.01267  Uiso   1.00
C361   C     0.82400   0.69800   0.81800   0.01267  Uiso   1.00
C362   C     0.79700   0.68900   0.84100   0.01267  Uiso   1.00
C363   C     0.79600   0.65400   0.85200   0.01267  Uiso   1.00
C364   C     0.77300   0.71600   0.85500   0.01267  Uiso   1.00
N109   N     0.79700   0.60200   0.92600   0.01267  Uiso   1.00
N110   N     0.78100   0.69500   0.95100   0.01267  Uiso   1.00
N111   N     0.76100   0.55900   0.85000   0.01267  Uiso   1.00
N112   N     0.82600   0.62600   0.84400   0.01267  Uiso   1.00
H298   H     0.77117   0.58005   0.79096   0.01267  Uiso   1.00
H299   H     0.70905   0.56056   0.76432   0.01267  Uiso   1.00
H300   H     0.66183   0.53113   0.81239   0.01267  Uiso   1.00
H301   H     0.67477   0.53950   0.88267   0.01267  Uiso   1.00
H302   H     0.73369   0.55899   0.90807   0.01267  Uiso   1.00
H303   H     0.88006   0.62184   0.83063   0.01267  Uiso   1.00
H304   H     0.87049   0.67562   0.78550   0.01267  Uiso   1.00
H305   H     0.82706   0.72731   0.80448   0.01267  Uiso   1.00
H306   H     0.77068   0.64309   0.86907   0.01267  Uiso   1.00
H307   H     0.76674   0.71722   0.88679   0.01267  Uiso   1.00
H308   H     0.75917   0.73738   0.83492   0.01267  Uiso   1.00
C365   C     0.71800   0.61100   0.05000   0.01267  Uiso   1.00
C366   C     0.72700   0.67200   0.03200   0.01267  Uiso   1.00
C367   C     0.75100   0.56600   0.19000   0.01267  Uiso   1.00
C368   C     0.78500   0.55700   0.20400   0.01267  Uiso   1.00
C369   C     0.81000   0.54400   0.17800   0.01267  Uiso   1.00
C370   C     0.80200   0.54600   0.13900   0.01267  Uiso   1.00
C371   C     0.76900   0.55500   0.12400   0.01267  Uiso   1.00
C372   C     0.64800   0.63800   0.17100   0.01267  Uiso   1.00
C373   C     0.65000   0.67000   0.19000   0.01267  Uiso   1.00
C374   C     0.67600   0.69800   0.18200   0.01267  Uiso   1.00
C375   C     0.70300   0.68900   0.15900   0.01267  Uiso   1.00
C376   C     0.70400   0.65400   0.14800   0.01267  Uiso   1.00
C377   C     0.72700   0.71600   0.14500   0.01267  Uiso   1.00
N113   N     0.70300   0.60200   0.07400   0.01267  Uiso   1.00
N114   N     0.71900   0.69500   0.04900   0.01267  Uiso   1.00
N115   N     0.73900   0.55900   0.15000   0.01267  Uiso   1.00
N116   N     0.67400   0.62600   0.15600   0.01267  Uiso   1.00
H309   H     0.72883   0.58005   0.20904   0.01267  Uiso   1.00
H310   H     0.79095   0.56056   0.23568   0.01267  Uiso   1.00
H311   H     0.83817   0.53113   0.18761   0.01267  Uiso   1.00
H312   H     0.82523   0.53950   0.11733   0.01267  Uiso   1.00
H313   H     0.76631   0.55899   0.09193   0.01267  Uiso   1.00
H314   H     0.61994   0.62184   0.16937   0.01267  Uiso   1.00
H315   H     0.62951   0.67562   0.21450   0.01267  Uiso   1.00
H316   H     0.67294   0.72731   0.19552   0.01267  Uiso   1.00
H317   H     0.72932   0.64309   0.13093   0.01267  Uiso   1.00
H318   H     0.73326   0.71722   0.11321   0.01267  Uiso   1.00
H319   H     0.74083   0.73738   0.16508   0.01267  Uiso   1.00
C378   C     0.21800   0.11100   0.55000   0.01267  Uiso   1.00
C379   C     0.22700   0.17200   0.53200   0.01267  Uiso   1.00
C380   C     0.25100   0.06600   0.69000   0.01267  Uiso   1.00
C381   C     0.28500   0.05700   0.70400   0.01267  Uiso   1.00
C382   C     0.31000   0.04400   0.67800   0.01267  Uiso   1.00
C383   C     0.30200   0.04600   0.63900   0.01267  Uiso   1.00
C384   C     0.26900   0.05500   0.62400   0.01267  Uiso   1.00
C385   C     0.14800   0.13800   0.67100   0.01267  Uiso   1.00
C386   C     0.15000   0.17000   0.69000   0.01267  Uiso   1.00
C387   C     0.17600   0.19800   0.68200   0.01267  Uiso   1.00
C388   C     0.20300   0.18900   0.65900   0.01267  Uiso   1.00
C389   C     0.20400   0.15400   0.64800   0.01267  Uiso   1.00
C390   C     0.22700   0.21600   0.64500   0.01267  Uiso   1.00
N117   N     0.20300   0.10200   0.57400   0.01267  Uiso   1.00
N118   N     0.21900   0.19500   0.54900   0.01267  Uiso   1.00
N119   N     0.23900   0.05900   0.65000   0.01267  Uiso   1.00
N120   N     0.17400   0.12600   0.65600   0.01267  Uiso   1.00
H320   H     0.22883   0.08005   0.70904   0.01267  Uiso   1.00
H321   H     0.29095   0.06056   0.73568   0.01267  Uiso   1.00
H322   H     0.33817   0.03113   0.68761   0.01267  Uiso   1.00
H323   H     0.32523   0.03950   0.61733   0.01267  Uiso   1.00
H324   H     0.26631   0.05899   0.59193   0.01267  Uiso   1.00
H325   H     0.11994   0.12184   0.66937   0.01267  Uiso   1.00
H326   H     0.12951   0.17562   0.71450   0.01267  Uiso   1.00
H327   H     0.17294   0.22731   0.69552   0.01267  Uiso   1.00
H328   H     0.22932   0.14309   0.63093   0.01267  Uiso   1.00
H329   H     0.23326   0.21722   0.61321   0.01267  Uiso   1.00
H330   H     0.24083   0.23738   0.66508   0.01267  Uiso   1.00
C391   C     0.78200   0.38900   0.55000   0.01267  Uiso   1.00
C392   C     0.77300   0.32800   0.53200   0.01267  Uiso   1.00
C393   C     0.74900   0.43400   0.69000   0.01267  Uiso   1.00
C394   C     0.71500   0.44300   0.70400   0.01267  Uiso   1.00
C395   C     0.69000   0.45600   0.67800   0.01267  Uiso   1.00
C396   C     0.69800   0.45400   0.63900   0.01267  Uiso   1.00
C397   C     0.73100   0.44500   0.62400   0.01267  Uiso   1.00
C398   C     0.85200   0.36200   0.67100   0.01267  Uiso   1.00
C399   C     0.85000   0.33000   0.69000   0.01267  Uiso   1.00
C400   C     0.82400   0.30200   0.68200   0.01267  Uiso   1.00
C401   C     0.79700   0.31100   0.65900   0.01267  Uiso   1.00
C402   C     0.79600   0.34600   0.64800   0.01267  Uiso   1.00
C403   C     0.77300   0.28400   0.64500   0.01267  Uiso   1.00
N121   N     0.79700   0.39800   0.57400   0.01267  Uiso   1.00
N122   N     0.78100   0.30500   0.54900   0.01267  Uiso   1.00
N123   N     0.76100   0.44100   0.65000   0.01267  Uiso   1.00
N124   N     0.82600   0.37400   0.65600   0.01267  Uiso   1.00
H331   H     0.77117   0.41995   0.70904   0.01267  Uiso   1.00
H332   H     0.70905   0.43944   0.73568   0.01267  Uiso   1.00
H333   H     0.66183   0.46887   0.68761   0.01267  Uiso   1.00
H334   H     0.67477   0.46050   0.61733   0.01267  Uiso   1.00
H335   H     0.73369   0.44101   0.59193   0.01267  Uiso   1.00
H336   H     0.88006   0.37816   0.66937   0.01267  Uiso   1.00
H337   H     0.87049   0.32438   0.71450   0.01267  Uiso   1.00
H338   H     0.82706   0.27269   0.69552   0.01267  Uiso   1.00
H339   H     0.77068   0.35691   0.63093   0.01267  Uiso   1.00
H340   H     0.76674   0.28278   0.61321   0.01267  Uiso   1.00
H341   H     0.75917   0.26262   0.66508   0.01267  Uiso   1.00
C404   C     0.28200   0.88900   0.05000   0.01267  Uiso   1.00
C405   C     0.27300   0.82800   0.03200   0.01267  Uiso   1.00
C406   C     0.24900   0.93400   0.19000   0.01267  Uiso   1.00
C407   C     0.21500   0.94300   0.20400   0.01267  Uiso   1.00
C408   C     0.19000   0.95600   0.17800   0.01267  Uiso   1.00
C409   C     0.19800   0.95400   0.13900   0.01267  Uiso   1.00
C410   C     0.23100   0.94500   0.12400   0.01267  Uiso   1.00
C411   C     0.35200   0.86200   0.17100   0.01267  Uiso   1.00
C412   C     0.35000   0.83000   0.19000   0.01267  Uiso   1.00
C413   C     0.32400   0.80200   0.18200   0.01267  Uiso   1.00
C414   C     0.29700   0.81100   0.15900   0.01267  Uiso   1.00
C415   C     0.29600   0.84600   0.14800   0.01267  Uiso   1.00
C416   C     0.27300   0.78400   0.14500   0.01267  Uiso   1.00
N125   N     0.29700   0.89800   0.07400   0.01267  Uiso   1.00
N126   N     0.28100   0.80500   0.04900   0.01267  Uiso   1.00
N127   N     0.26100   0.94100   0.15000   0.01267  Uiso   1.00
N128   N     0.32600   0.87400   0.15600   0.01267  Uiso   1.00
H342   H     0.27117   0.91995   0.20904   0.01267  Uiso   1.00
H343   H     0.20905   0.93944   0.23568   0.01267  Uiso   1.00
H344   H     0.16183   0.96887   0.18761   0.01267  Uiso   1.00
H345   H     0.17477   0.96050   0.11733   0.01267  Uiso   1.00
H346   H     0.23369   0.94101   0.09193   0.01267  Uiso   1.00
H347   H     0.38006   0.87816   0.16937   0.01267  Uiso   1.00
H348   H     0.37049   0.82438   0.21450   0.01267  Uiso   1.00
H349   H     0.32706   0.77269   0.19552   0.01267  Uiso   1.00
H350   H     0.27068   0.85691   0.13093   0.01267  Uiso   1.00
H351   H     0.26674   0.78278   0.11321   0.01267  Uiso   1.00
H352   H     0.25917   0.76262   0.16508   0.01267  Uiso   1.00
C417   C     0.38900   0.55000   0.78200   0.01267  Uiso   1.00
C418   C     0.32800   0.53200   0.77300   0.01267  Uiso   1.00
C419   C     0.43400   0.69000   0.74900   0.01267  Uiso   1.00
C420   C     0.44300   0.70400   0.71500   0.01267  Uiso   1.00
C421   C     0.45600   0.67800   0.69000   0.01267  Uiso   1.00
C422   C     0.45400   0.63900   0.69800   0.01267  Uiso   1.00
C423   C     0.44500   0.62400   0.73100   0.01267  Uiso   1.00
C424   C     0.36200   0.67100   0.85200   0.01267  Uiso   1.00
C425   C     0.33000   0.69000   0.85000   0.01267  Uiso   1.00
C426   C     0.30200   0.68200   0.82400   0.01267  Uiso   1.00
C427   C     0.31100   0.65900   0.79700   0.01267  Uiso   1.00
C428   C     0.34600   0.64800   0.79600   0.01267  Uiso   1.00
C429   C     0.28400   0.64500   0.77300   0.01267  Uiso   1.00
N129   N     0.39800   0.57400   0.79700   0.01267  Uiso   1.00
N130   N     0.30500   0.54900   0.78100   0.01267  Uiso   1.00
N131   N     0.44100   0.65000   0.76100   0.01267  Uiso   1.00
N132   N     0.37400   0.65600   0.82600   0.01267  Uiso   1.00
H353   H     0.41995   0.70904   0.77117   0.01267  Uiso   1.00
H354   H     0.43944   0.73568   0.70905   0.01267  Uiso   1.00
H355   H     0.46887   0.68761   0.66183   0.01267  Uiso   1.00
H356   H     0.46050   0.61733   0.67477   0.01267  Uiso   1.00
H357   H     0.44101   0.59193   0.73369   0.01267  Uiso   1.00
H358   H     0.37816   0.66937   0.88006   0.01267  Uiso   1.00
H359   H     0.32438   0.71450   0.87049   0.01267  Uiso   1.00
H360   H     0.27269   0.69552   0.82706   0.01267  Uiso   1.00
H361   H     0.35691   0.63093   0.77068   0.01267  Uiso   1.00
H362   H     0.28278   0.61321   0.76674   0.01267  Uiso   1.00
H363   H     0.26262   0.66508   0.75917   0.01267  Uiso   1.00
C430   C     0.88900   0.05000   0.28200   0.01267  Uiso   1.00
C431   C     0.82800   0.03200   0.27300   0.01267  Uiso   1.00
C432   C     0.93400   0.19000   0.24900   0.01267  Uiso   1.00
C433   C     0.94300   0.20400   0.21500   0.01267  Uiso   1.00
C434   C     0.95600   0.17800   0.19000   0.01267  Uiso   1.00
C435   C     0.95400   0.13900   0.19800   0.01267  Uiso   1.00
C436   C     0.94500   0.12400   0.23100   0.01267  Uiso   1.00
C437   C     0.86200   0.17100   0.35200   0.01267  Uiso   1.00
C438   C     0.83000   0.19000   0.35000   0.01267  Uiso   1.00
C439   C     0.80200   0.18200   0.32400   0.01267  Uiso   1.00
C440   C     0.81100   0.15900   0.29700   0.01267  Uiso   1.00
C441   C     0.84600   0.14800   0.29600   0.01267  Uiso   1.00
C442   C     0.78400   0.14500   0.27300   0.01267  Uiso   1.00
N133   N     0.89800   0.07400   0.29700   0.01267  Uiso   1.00
N134   N     0.80500   0.04900   0.28100   0.01267  Uiso   1.00
N135   N     0.94100   0.15000   0.26100   0.01267  Uiso   1.00
N136   N     0.87400   0.15600   0.32600   0.01267  Uiso   1.00
H364   H     0.91995   0.20904   0.27117   0.01267  Uiso   1.00
H365   H     0.93944   0.23568   0.20905   0.01267  Uiso   1.00
H366   H     0.96887   0.18761   0.16183   0.01267  Uiso   1.00
H367   H     0.96050   0.11733   0.17477   0.01267  Uiso   1.00
H368   H     0.94101   0.09193   0.23369   0.01267  Uiso   1.00
H369   H     0.87816   0.16937   0.38006   0.01267  Uiso   1.00
H370   H     0.82438   0.21450   0.37049   0.01267  Uiso   1.00
H371   H     0.77269   0.19552   0.32706   0.01267  Uiso   1.00
H372   H     0.85691   0.13093   0.27068   0.01267  Uiso   1.00
H373   H     0.78278   0.11321   0.26674   0.01267  Uiso   1.00
H374   H     0.76262   0.16508   0.25917   0.01267  Uiso   1.00
C443   C     0.61100   0.05000   0.71800   0.01267  Uiso   1.00
C444   C     0.67200   0.03200   0.72700   0.01267  Uiso   1.00
C445   C     0.56600   0.19000   0.75100   0.01267  Uiso   1.00
C446   C     0.55700   0.20400   0.78500   0.01267  Uiso   1.00
C447   C     0.54400   0.17800   0.81000   0.01267  Uiso   1.00
C448   C     0.54600   0.13900   0.80200   0.01267  Uiso   1.00
C449   C     0.55500   0.12400   0.76900   0.01267  Uiso   1.00
C450   C     0.63800   0.17100   0.64800   0.01267  Uiso   1.00
C451   C     0.67000   0.19000   0.65000   0.01267  Uiso   1.00
C452   C     0.69800   0.18200   0.67600   0.01267  Uiso   1.00
C453   C     0.68900   0.15900   0.70300   0.01267  Uiso   1.00
C454   C     0.65400   0.14800   0.70400   0.01267  Uiso   1.00
C455   C     0.71600   0.14500   0.72700   0.01267  Uiso   1.00
N137   N     0.60200   0.07400   0.70300   0.01267  Uiso   1.00
N138   N     0.69500   0.04900   0.71900   0.01267  Uiso   1.00
N139   N     0.55900   0.15000   0.73900   0.01267  Uiso   1.00
N140   N     0.62600   0.15600   0.67400   0.01267  Uiso   1.00
H375   H     0.58005   0.20904   0.72883   0.01267  Uiso   1.00
H376   H     0.56056   0.23568   0.79095   0.01267  Uiso   1.00
H377   H     0.53113   0.18761   0.83817   0.01267  Uiso   1.00
H378   H     0.53950   0.11733   0.82523   0.01267  Uiso   1.00
H379   H     0.55899   0.09193   0.76631   0.01267  Uiso   1.00
H380   H     0.62184   0.16937   0.61994   0.01267  Uiso   1.00
H381   H     0.67562   0.21450   0.62951   0.01267  Uiso   1.00
H382   H     0.72731   0.19552   0.67294   0.01267  Uiso   1.00
H383   H     0.64309   0.13093   0.72932   0.01267  Uiso   1.00
H384   H     0.71722   0.11321   0.73326   0.01267  Uiso   1.00
H385   H     0.73738   0.16508   0.74083   0.01267  Uiso   1.00
C456   C     0.11100   0.55000   0.21800   0.01267  Uiso   1.00
C457   C     0.17200   0.53200   0.22700   0.01267  Uiso   1.00
C458   C     0.06600   0.69000   0.25100   0.01267  Uiso   1.00
C459   C     0.05700   0.70400   0.28500   0.01267  Uiso   1.00
C460   C     0.04400   0.67800   0.31000   0.01267  Uiso   1.00
C461   C     0.04600   0.63900   0.30200   0.01267  Uiso   1.00
C462   C     0.05500   0.62400   0.26900   0.01267  Uiso   1.00
C463   C     0.13800   0.67100   0.14800   0.01267  Uiso   1.00
C464   C     0.17000   0.69000   0.15000   0.01267  Uiso   1.00
C465   C     0.19800   0.68200   0.17600   0.01267  Uiso   1.00
C466   C     0.18900   0.65900   0.20300   0.01267  Uiso   1.00
C467   C     0.15400   0.64800   0.20400   0.01267  Uiso   1.00
C468   C     0.21600   0.64500   0.22700   0.01267  Uiso   1.00
N141   N     0.10200   0.57400   0.20300   0.01267  Uiso   1.00
N142   N     0.19500   0.54900   0.21900   0.01267  Uiso   1.00
N143   N     0.05900   0.65000   0.23900   0.01267  Uiso   1.00
N144   N     0.12600   0.65600   0.17400   0.01267  Uiso   1.00
H386   H     0.08005   0.70904   0.22883   0.01267  Uiso   1.00
H387   H     0.06056   0.73568   0.29095   0.01267  Uiso   1.00
H388   H     0.03113   0.68761   0.33817   0.01267  Uiso   1.00
H389   H     0.03950   0.61733   0.32523   0.01267  Uiso   1.00
H390   H     0.05899   0.59193   0.26631   0.01267  Uiso   1.00
H391   H     0.12184   0.66937   0.11994   0.01267  Uiso   1.00
H392   H     0.17562   0.71450   0.12951   0.01267  Uiso   1.00
H393   H     0.22731   0.69552   0.17294   0.01267  Uiso   1.00
H394   H     0.14309   0.63093   0.22932   0.01267  Uiso   1.00
H395   H     0.21722   0.61321   0.23326   0.01267  Uiso   1.00
H396   H     0.23738   0.66508   0.24083   0.01267  Uiso   1.00
C469   C     0.11100   0.45000   0.28200   0.01267  Uiso   1.00
C470   C     0.17200   0.46800   0.27300   0.01267  Uiso   1.00
C471   C     0.06600   0.31000   0.24900   0.01267  Uiso   1.00
C472   C     0.05700   0.29600   0.21500   0.01267  Uiso   1.00
C473   C     0.04400   0.32200   0.19000   0.01267  Uiso   1.00
C474   C     0.04600   0.36100   0.19800   0.01267  Uiso   1.00
C475   C     0.05500   0.37600   0.23100   0.01267  Uiso   1.00
C476   C     0.13800   0.32900   0.35200   0.01267  Uiso   1.00
C477   C     0.17000   0.31000   0.35000   0.01267  Uiso   1.00
C478   C     0.19800   0.31800   0.32400   0.01267  Uiso   1.00
C479   C     0.18900   0.34100   0.29700   0.01267  Uiso   1.00
C480   C     0.15400   0.35200   0.29600   0.01267  Uiso   1.00
C481   C     0.21600   0.35500   0.27300   0.01267  Uiso   1.00
N145   N     0.10200   0.42600   0.29700   0.01267  Uiso   1.00
N146   N     0.19500   0.45100   0.28100   0.01267  Uiso   1.00
N147   N     0.05900   0.35000   0.26100   0.01267  Uiso   1.00
N148   N     0.12600   0.34400   0.32600   0.01267  Uiso   1.00
H397   H     0.08005   0.29096   0.27117   0.01267  Uiso   1.00
H398   H     0.06056   0.26432   0.20905   0.01267  Uiso   1.00
H399   H     0.03113   0.31239   0.16183   0.01267  Uiso   1.00
H400   H     0.03950   0.38267   0.17477   0.01267  Uiso   1.00
H401   H     0.05899   0.40807   0.23369   0.01267  Uiso   1.00
H402   H     0.12184   0.33063   0.38006   0.01267  Uiso   1.00
H403   H     0.17562   0.28550   0.37049   0.01267  Uiso   1.00
H404   H     0.22731   0.30448   0.32706   0.01267  Uiso   1.00
H405   H     0.14309   0.36907   0.27068   0.01267  Uiso   1.00
H406   H     0.21722   0.38679   0.26674   0.01267  Uiso   1.00
H407   H     0.23738   0.33492   0.25917   0.01267  Uiso   1.00
C482   C     0.61100   0.95000   0.78200   0.01267  Uiso   1.00
C483   C     0.67200   0.96800   0.77300   0.01267  Uiso   1.00
C484   C     0.56600   0.81000   0.74900   0.01267  Uiso   1.00
C485   C     0.55700   0.79600   0.71500   0.01267  Uiso   1.00
C486   C     0.54400   0.82200   0.69000   0.01267  Uiso   1.00
C487   C     0.54600   0.86100   0.69800   0.01267  Uiso   1.00
C488   C     0.55500   0.87600   0.73100   0.01267  Uiso   1.00
C489   C     0.63800   0.82900   0.85200   0.01267  Uiso   1.00
C490   C     0.67000   0.81000   0.85000   0.01267  Uiso   1.00
C491   C     0.69800   0.81800   0.82400   0.01267  Uiso   1.00
C492   C     0.68900   0.84100   0.79700   0.01267  Uiso   1.00
C493   C     0.65400   0.85200   0.79600   0.01267  Uiso   1.00
C494   C     0.71600   0.85500   0.77300   0.01267  Uiso   1.00
N149   N     0.60200   0.92600   0.79700   0.01267  Uiso   1.00
N150   N     0.69500   0.95100   0.78100   0.01267  Uiso   1.00
N151   N     0.55900   0.85000   0.76100   0.01267  Uiso   1.00
N152   N     0.62600   0.84400   0.82600   0.01267  Uiso   1.00
H408   H     0.58005   0.79096   0.77117   0.01267  Uiso   1.00
H409   H     0.56056   0.76432   0.70905   0.01267  Uiso   1.00
H410   H     0.53113   0.81239   0.66183   0.01267  Uiso   1.00
H411   H     0.53950   0.88267   0.67477   0.01267  Uiso   1.00
H412   H     0.55899   0.90807   0.73369   0.01267  Uiso   1.00
H413   H     0.62184   0.83063   0.88006   0.01267  Uiso   1.00
H414   H     0.67562   0.78550   0.87049   0.01267  Uiso   1.00
H415   H     0.72731   0.80448   0.82706   0.01267  Uiso   1.00
H416   H     0.64309   0.86907   0.77068   0.01267  Uiso   1.00
H417   H     0.71722   0.88679   0.76674   0.01267  Uiso   1.00
H418   H     0.73738   0.83492   0.75917   0.01267  Uiso   1.00
C495   C     0.88900   0.95000   0.21800   0.01267  Uiso   1.00
C496   C     0.82800   0.96800   0.22700   0.01267  Uiso   1.00
C497   C     0.93400   0.81000   0.25100   0.01267  Uiso   1.00
C498   C     0.94300   0.79600   0.28500   0.01267  Uiso   1.00
C499   C     0.95600   0.82200   0.31000   0.01267  Uiso   1.00
C500   C     0.95400   0.86100   0.30200   0.01267  Uiso   1.00
C501   C     0.94500   0.87600   0.26900   0.01267  Uiso   1.00
C502   C     0.86200   0.82900   0.14800   0.01267  Uiso   1.00
C503   C     0.83000   0.81000   0.15000   0.01267  Uiso   1.00
C504   C     0.80200   0.81800   0.17600   0.01267  Uiso   1.00
C505   C     0.81100   0.84100   0.20300   0.01267  Uiso   1.00
C506   C     0.84600   0.85200   0.20400   0.01267  Uiso   1.00
C507   C     0.78400   0.85500   0.22700   0.01267  Uiso   1.00
N153   N     0.89800   0.92600   0.20300   0.01267  Uiso   1.00
N154   N     0.80500   0.95100   0.21900   0.01267  Uiso   1.00
N155   N     0.94100   0.85000   0.23900   0.01267  Uiso   1.00
N156   N     0.87400   0.84400   0.17400   0.01267  Uiso   1.00
H419   H     0.91995   0.79096   0.22883   0.01267  Uiso   1.00
H420   H     0.93944   0.76432   0.29095   0.01267  Uiso   1.00
H421   H     0.96887   0.81239   0.33817   0.01267  Uiso   1.00
H422   H     0.96050   0.88267   0.32523   0.01267  Uiso   1.00
H423   H     0.94101   0.90807   0.26631   0.01267  Uiso   1.00
H424   H     0.87816   0.83063   0.11994   0.01267  Uiso   1.00
H425   H     0.82438   0.78550   0.12951   0.01267  Uiso   1.00
H426   H     0.77269   0.80448   0.17294   0.01267  Uiso   1.00
H427   H     0.85691   0.86907   0.22932   0.01267  Uiso   1.00
H428   H     0.78278   0.88679   0.23326   0.01267  Uiso   1.00
H429   H     0.76262   0.83492   0.24083   0.01267  Uiso   1.00
C508   C     0.38900   0.45000   0.71800   0.01267  Uiso   1.00
C509   C     0.32800   0.46800   0.72700   0.01267  Uiso   1.00
C510   C     0.43400   0.31000   0.75100   0.01267  Uiso   1.00
C511   C     0.44300   0.29600   0.78500   0.01267  Uiso   1.00
C512   C     0.45600   0.32200   0.81000   0.01267  Uiso   1.00
C513   C     0.45400   0.36100   0.80200   0.01267  Uiso   1.00
C514   C     0.44500   0.37600   0.76900   0.01267  Uiso   1.00
C515   C     0.36200   0.32900   0.64800   0.01267  Uiso   1.00
C516   C     0.33000   0.31000   0.65000   0.01267  Uiso   1.00
C517   C     0.30200   0.31800   0.67600   0.01267  Uiso   1.00
C518   C     0.31100   0.34100   0.70300   0.01267  Uiso   1.00
C519   C     0.34600   0.35200   0.70400   0.01267  Uiso   1.00
C520   C     0.28400   0.35500   0.72700   0.01267  Uiso   1.00
N157   N     0.39800   0.42600   0.70300   0.01267  Uiso   1.00
N158   N     0.30500   0.45100   0.71900   0.01267  Uiso   1.00
N159   N     0.44100   0.35000   0.73900   0.01267  Uiso   1.00
N160   N     0.37400   0.34400   0.67400   0.01267  Uiso   1.00
H430   H     0.41995   0.29096   0.72883   0.01267  Uiso   1.00
H431   H     0.43944   0.26432   0.79095   0.01267  Uiso   1.00
H432   H     0.46887   0.31239   0.83817   0.01267  Uiso   1.00
H433   H     0.46050   0.38267   0.82523   0.01267  Uiso   1.00
H434   H     0.44101   0.40807   0.76631   0.01267  Uiso   1.00
H435   H     0.37816   0.33063   0.61994   0.01267  Uiso   1.00
H436   H     0.32438   0.28550   0.62951   0.01267  Uiso   1.00
H437   H     0.27269   0.30448   0.67294   0.01267  Uiso   1.00
H438   H     0.35691   0.36907   0.72932   0.01267  Uiso   1.00
H439   H     0.28278   0.38679   0.73326   0.01267  Uiso   1.00
H440   H     0.26262   0.33492   0.74083   0.01267  Uiso   1.00
C521   C     0.05000   0.71800   0.61100   0.01267  Uiso   1.00
C522   C     0.03200   0.72700   0.67200   0.01267  Uiso   1.00
C523   C     0.19000   0.75100   0.56600   0.01267  Uiso   1.00
C524   C     0.20400   0.78500   0.55700   0.01267  Uiso   1.00
C525   C     0.17800   0.81000   0.54400   0.01267  Uiso   1.00
C526   C     0.13900   0.80200   0.54600   0.01267  Uiso   1.00
C527   C     0.12400   0.76900   0.55500   0.01267  Uiso   1.00
C528   C     0.17100   0.64800   0.63800   0.01267  Uiso   1.00
C529   C     0.19000   0.65000   0.67000   0.01267  Uiso   1.00
C530   C     0.18200   0.67600   0.69800   0.01267  Uiso   1.00
C531   C     0.15900   0.70300   0.68900   0.01267  Uiso   1.00
C532   C     0.14800   0.70400   0.65400   0.01267  Uiso   1.00
C533   C     0.14500   0.72700   0.71600   0.01267  Uiso   1.00
N161   N     0.07400   0.70300   0.60200   0.01267  Uiso   1.00
N162   N     0.04900   0.71900   0.69500   0.01267  Uiso   1.00
N163   N     0.15000   0.73900   0.55900   0.01267  Uiso   1.00
N164   N     0.15600   0.67400   0.62600   0.01267  Uiso   1.00
H441   H     0.20904   0.72883   0.58005   0.01267  Uiso   1.00
H442   H     0.23568   0.79095   0.56056   0.01267  Uiso   1.00
H443   H     0.18761   0.83817   0.53113   0.01267  Uiso   1.00
H444   H     0.11733   0.82523   0.53950   0.01267  Uiso   1.00
H445   H     0.09193   0.76631   0.55899   0.01267  Uiso   1.00
H446   H     0.16937   0.61994   0.62184   0.01267  Uiso   1.00
H447   H     0.21450   0.62951   0.67562   0.01267  Uiso   1.00
H448   H     0.19552   0.67294   0.72731   0.01267  Uiso   1.00
H449   H     0.13093   0.72932   0.64309   0.01267  Uiso   1.00
H450   H     0.11321   0.73326   0.71722   0.01267  Uiso   1.00
H451   H     0.16508   0.74083   0.73738   0.01267  Uiso   1.00
C534   C     0.55000   0.21800   0.11100   0.01267  Uiso   1.00
C535   C     0.53200   0.22700   0.17200   0.01267  Uiso   1.00
C536   C     0.69000   0.25100   0.06600   0.01267  Uiso   1.00
C537   C     0.70400   0.28500   0.05700   0.01267  Uiso   1.00
C538   C     0.67800   0.31000   0.04400   0.01267  Uiso   1.00
C539   C     0.63900   0.30200   0.04600   0.01267  Uiso   1.00
C540   C     0.62400   0.26900   0.05500   0.01267  Uiso   1.00
C541   C     0.67100   0.14800   0.13800   0.01267  Uiso   1.00
C542   C     0.69000   0.15000   0.17000   0.01267  Uiso   1.00
C543   C     0.68200   0.17600   0.19800   0.01267  Uiso   1.00
C544   C     0.65900   0.20300   0.18900   0.01267  Uiso   1.00
C545   C     0.64800   0.20400   0.15400   0.01267  Uiso   1.00
C546   C     0.64500   0.22700   0.21600   0.01267  Uiso   1.00
N165   N     0.57400   0.20300   0.10200   0.01267  Uiso   1.00
N166   N     0.54900   0.21900   0.19500   0.01267  Uiso   1.00
N167   N     0.65000   0.23900   0.05900   0.01267  Uiso   1.00
N168   N     0.65600   0.17400   0.12600   0.01267  Uiso   1.00
H452   H     0.70904   0.22883   0.08005   0.01267  Uiso   1.00
H453   H     0.73568   0.29095   0.06056   0.01267  Uiso   1.00
H454   H     0.68761   0.33817   0.03113   0.01267  Uiso   1.00
H455   H     0.61733   0.32523   0.03950   0.01267  Uiso   1.00
H456   H     0.59193   0.26631   0.05899   0.01267  Uiso   1.00
H457   H     0.66937   0.11994   0.12184   0.01267  Uiso   1.00
H458   H     0.71450   0.12951   0.17562   0.01267  Uiso   1.00
H459   H     0.69552   0.17294   0.22731   0.01267  Uiso   1.00
H460   H     0.63093   0.22932   0.14309   0.01267  Uiso   1.00
H461   H     0.61321   0.23326   0.21722   0.01267  Uiso   1.00
H462   H     0.66508   0.24083   0.23738   0.01267  Uiso   1.00
C547   C     0.55000   0.78200   0.38900   0.01267  Uiso   1.00
C548   C     0.53200   0.77300   0.32800   0.01267  Uiso   1.00
C549   C     0.69000   0.74900   0.43400   0.01267  Uiso   1.00
C550   C     0.70400   0.71500   0.44300   0.01267  Uiso   1.00
C551   C     0.67800   0.69000   0.45600   0.01267  Uiso   1.00
C552   C     0.63900   0.69800   0.45400   0.01267  Uiso   1.00
C553   C     0.62400   0.73100   0.44500   0.01267  Uiso   1.00
C554   C     0.67100   0.85200   0.36200   0.01267  Uiso   1.00
C555   C     0.69000   0.85000   0.33000   0.01267  Uiso   1.00
C556   C     0.68200   0.82400   0.30200   0.01267  Uiso   1.00
C557   C     0.65900   0.79700   0.31100   0.01267  Uiso   1.00
C558   C     0.64800   0.79600   0.34600   0.01267  Uiso   1.00
C559   C     0.64500   0.77300   0.28400   0.01267  Uiso   1.00
N169   N     0.57400   0.79700   0.39800   0.01267  Uiso   1.00
N170   N     0.54900   0.78100   0.30500   0.01267  Uiso   1.00
N171   N     0.65000   0.76100   0.44100   0.01267  Uiso   1.00
N172   N     0.65600   0.82600   0.37400   0.01267  Uiso   1.00
H463   H     0.70904   0.77117   0.41995   0.01267  Uiso   1.00
H464   H     0.73568   0.70905   0.43944   0.01267  Uiso   1.00
H465   H     0.68761   0.66183   0.46887   0.01267  Uiso   1.00
H466   H     0.61733   0.67477   0.46050   0.01267  Uiso   1.00
H467   H     0.59193   0.73369   0.44101   0.01267  Uiso   1.00
H468   H     0.66937   0.88006   0.37816   0.01267  Uiso   1.00
H469   H     0.71450   0.87049   0.32438   0.01267  Uiso   1.00
H470   H     0.69552   0.82706   0.27269   0.01267  Uiso   1.00
H471   H     0.63093   0.77068   0.35691   0.01267  Uiso   1.00
H472   H     0.61321   0.76674   0.28278   0.01267  Uiso   1.00
H473   H     0.66508   0.75917   0.26262   0.01267  Uiso   1.00
C560   C     0.05000   0.28200   0.88900   0.01267  Uiso   1.00
C561   C     0.03200   0.27300   0.82800   0.01267  Uiso   1.00
C562   C     0.19000   0.24900   0.93400   0.01267  Uiso   1.00
C563   C     0.20400   0.21500   0.94300   0.01267  Uiso   1.00
C564   C     0.17800   0.19000   0.95600   0.01267  Uiso   1.00
C565   C     0.13900   0.19800   0.95400   0.01267  Uiso   1.00
C566   C     0.12400   0.23100   0.94500   0.01267  Uiso   1.00
C567   C     0.17100   0.35200   0.86200   0.01267  Uiso   1.00
C568   C     0.19000   0.35000   0.83000   0.01267  Uiso   1.00
C569   C     0.18200   0.32400   0.80200   0.01267  Uiso   1.00
C570   C     0.15900   0.29700   0.81100   0.01267  Uiso   1.00
C571   C     0.14800   0.29600   0.84600   0.01267  Uiso   1.00
C572   C     0.14500   0.27300   0.78400   0.01267  Uiso   1.00
N173   N     0.07400   0.29700   0.89800   0.01267  Uiso   1.00
N174   N     0.04900   0.28100   0.80500   0.01267  Uiso   1.00
N175   N     0.15000   0.26100   0.94100   0.01267  Uiso   1.00
N176   N     0.15600   0.32600   0.87400   0.01267  Uiso   1.00
H474   H     0.20904   0.27117   0.91995   0.01267  Uiso   1.00
H475   H     0.23568   0.20905   0.93944   0.01267  Uiso   1.00
H476   H     0.18761   0.16183   0.96887   0.01267  Uiso   1.00
H477   H     0.11733   0.17477   0.96050   0.01267  Uiso   1.00
H478   H     0.09193   0.23369   0.94101   0.01267  Uiso   1.00
H479   H     0.16937   0.38006   0.87816   0.01267  Uiso   1.00
H480   H     0.21450   0.37049   0.82438   0.01267  Uiso   1.00
H481   H     0.19552   0.32706   0.77269   0.01267  Uiso   1.00
H482   H     0.13093   0.27068   0.85691   0.01267  Uiso   1.00
H483   H     0.11321   0.26674   0.78278   0.01267  Uiso   1.00
H484   H     0.16508   0.25917   0.76262   0.01267  Uiso   1.00
C573   C     0.95000   0.21800   0.88900   0.01267  Uiso   1.00
C574   C     0.96800   0.22700   0.82800   0.01267  Uiso   1.00
C575   C     0.81000   0.25100   0.93400   0.01267  Uiso   1.00
C576   C     0.79600   0.28500   0.94300   0.01267  Uiso   1.00
C577   C     0.82200   0.31000   0.95600   0.01267  Uiso   1.00
C578   C     0.86100   0.30200   0.95400   0.01267  Uiso   1.00
C579   C     0.87600   0.26900   0.94500   0.01267  Uiso   1.00
C580   C     0.82900   0.14800   0.86200   0.01267  Uiso   1.00
C581   C     0.81000   0.15000   0.83000   0.01267  Uiso   1.00
C582   C     0.81800   0.17600   0.80200   0.01267  Uiso   1.00
C583   C     0.84100   0.20300   0.81100   0.01267  Uiso   1.00
C584   C     0.85200   0.20400   0.84600   0.01267  Uiso   1.00
C585   C     0.85500   0.22700   0.78400   0.01267  Uiso   1.00
N177   N     0.92600   0.20300   0.89800   0.01267  Uiso   1.00
N178   N     0.95100   0.21900   0.80500   0.01267  Uiso   1.00
N179   N     0.85000   0.23900   0.94100   0.01267  Uiso   1.00
N180   N     0.84400   0.17400   0.87400   0.01267  Uiso   1.00
H485   H     0.79096   0.22883   0.91995   0.01267  Uiso   1.00
H486   H     0.76432   0.29095   0.93944   0.01267  Uiso   1.00
H487   H     0.81239   0.33817   0.96887   0.01267  Uiso   1.00
H488   H     0.88267   0.32523   0.96050   0.01267  Uiso   1.00
H489   H     0.90807   0.26631   0.94101   0.01267  Uiso   1.00
H490   H     0.83063   0.11994   0.87816   0.01267  Uiso   1.00
H491   H     0.78550   0.12951   0.82438   0.01267  Uiso   1.00
H492   H     0.80448   0.17294   0.77269   0.01267  Uiso   1.00
H493   H     0.86907   0.22932   0.85691   0.01267  Uiso   1.00
H494   H     0.88679   0.23326   0.78278   0.01267  Uiso   1.00
H495   H     0.83492   0.24083   0.76262   0.01267  Uiso   1.00
C586   C     0.45000   0.71800   0.38900   0.01267  Uiso   1.00
C587   C     0.46800   0.72700   0.32800   0.01267  Uiso   1.00
C588   C     0.31000   0.75100   0.43400   0.01267  Uiso   1.00
C589   C     0.29600   0.78500   0.44300   0.01267  Uiso   1.00
C590   C     0.32200   0.81000   0.45600   0.01267  Uiso   1.00
C591   C     0.36100   0.80200   0.45400   0.01267  Uiso   1.00
C592   C     0.37600   0.76900   0.44500   0.01267  Uiso   1.00
C593   C     0.32900   0.64800   0.36200   0.01267  Uiso   1.00
C594   C     0.31000   0.65000   0.33000   0.01267  Uiso   1.00
C595   C     0.31800   0.67600   0.30200   0.01267  Uiso   1.00
C596   C     0.34100   0.70300   0.31100   0.01267  Uiso   1.00
C597   C     0.35200   0.70400   0.34600   0.01267  Uiso   1.00
C598   C     0.35500   0.72700   0.28400   0.01267  Uiso   1.00
N181   N     0.42600   0.70300   0.39800   0.01267  Uiso   1.00
N182   N     0.45100   0.71900   0.30500   0.01267  Uiso   1.00
N183   N     0.35000   0.73900   0.44100   0.01267  Uiso   1.00
N184   N     0.34400   0.67400   0.37400   0.01267  Uiso   1.00
H496   H     0.29096   0.72883   0.41995   0.01267  Uiso   1.00
H497   H     0.26432   0.79095   0.43944   0.01267  Uiso   1.00
H498   H     0.31239   0.83817   0.46887   0.01267  Uiso   1.00
H499   H     0.38267   0.82523   0.46050   0.01267  Uiso   1.00
H500   H     0.40807   0.76631   0.44101   0.01267  Uiso   1.00
H501   H     0.33063   0.61994   0.37816   0.01267  Uiso   1.00
H502   H     0.28550   0.62951   0.32438   0.01267  Uiso   1.00
H503   H     0.30448   0.67294   0.27269   0.01267  Uiso   1.00
H504   H     0.36907   0.72932   0.35691   0.01267  Uiso   1.00
H505   H     0.38679   0.73326   0.28278   0.01267  Uiso   1.00
H506   H     0.33492   0.74083   0.26262   0.01267  Uiso   1.00
C599   C     0.45000   0.28200   0.11100   0.01267  Uiso   1.00
C600   C     0.46800   0.27300   0.17200   0.01267  Uiso   1.00
C601   C     0.31000   0.24900   0.06600   0.01267  Uiso   1.00
C602   C     0.29600   0.21500   0.05700   0.01267  Uiso   1.00
C603   C     0.32200   0.19000   0.04400   0.01267  Uiso   1.00
C604   C     0.36100   0.19800   0.04600   0.01267  Uiso   1.00
C605   C     0.37600   0.23100   0.05500   0.01267  Uiso   1.00
C606   C     0.32900   0.35200   0.13800   0.01267  Uiso   1.00
C607   C     0.31000   0.35000   0.17000   0.01267  Uiso   1.00
C608   C     0.31800   0.32400   0.19800   0.01267  Uiso   1.00
C609   C     0.34100   0.29700   0.18900   0.01267  Uiso   1.00
C610   C     0.35200   0.29600   0.15400   0.01267  Uiso   1.00
C611   C     0.35500   0.27300   0.21600   0.01267  Uiso   1.00
N185   N     0.42600   0.29700   0.10200   0.01267  Uiso   1.00
N186   N     0.45100   0.28100   0.19500   0.01267  Uiso   1.00
N187   N     0.35000   0.26100   0.05900   0.01267  Uiso   1.00
N188   N     0.34400   0.32600   0.12600   0.01267  Uiso   1.00
H507   H     0.29096   0.27117   0.08005   0.01267  Uiso   1.00
H508   H     0.26432   0.20905   0.06056   0.01267  Uiso   1.00
H509   H     0.31239   0.16183   0.03113   0.01267  Uiso   1.00
H510   H     0.38267   0.17477   0.03950   0.01267  Uiso   1.00
H511   H     0.40807   0.23369   0.05899   0.01267  Uiso   1.00
H512   H     0.33063   0.38006   0.12184   0.01267  Uiso   1.00
H513   H     0.28550   0.37049   0.17562   0.01267  Uiso   1.00
H514   H     0.30448   0.32706   0.22731   0.01267  Uiso   1.00
H515   H     0.36907   0.27068   0.14309   0.01267  Uiso   1.00
H516   H     0.38679   0.26674   0.21722   0.01267  Uiso   1.00
H517   H     0.33492   0.25917   0.23738   0.01267  Uiso   1.00
C612   C     0.95000   0.78200   0.61100   0.01267  Uiso   1.00
C613   C     0.96800   0.77300   0.67200   0.01267  Uiso   1.00
C614   C     0.81000   0.74900   0.56600   0.01267  Uiso   1.00
C615   C     0.79600   0.71500   0.55700   0.01267  Uiso   1.00
C616   C     0.82200   0.69000   0.54400   0.01267  Uiso   1.00
C617   C     0.86100   0.69800   0.54600   0.01267  Uiso   1.00
C618   C     0.87600   0.73100   0.55500   0.01267  Uiso   1.00
C619   C     0.82900   0.85200   0.63800   0.01267  Uiso   1.00
C620   C     0.81000   0.85000   0.67000   0.01267  Uiso   1.00
C621   C     0.81800   0.82400   0.69800   0.01267  Uiso   1.00
C622   C     0.84100   0.79700   0.68900   0.01267  Uiso   1.00
C623   C     0.85200   0.79600   0.65400   0.01267  Uiso   1.00
C624   C     0.85500   0.77300   0.71600   0.01267  Uiso   1.00
N189   N     0.92600   0.79700   0.60200   0.01267  Uiso   1.00
N190   N     0.95100   0.78100   0.69500   0.01267  Uiso   1.00
N191   N     0.85000   0.76100   0.55900   0.01267  Uiso   1.00
N192   N     0.84400   0.82600   0.62600   0.01267  Uiso   1.00
H518   H     0.79096   0.77117   0.58005   0.01267  Uiso   1.00
H519   H     0.76432   0.70905   0.56056   0.01267  Uiso   1.00
H520   H     0.81239   0.66183   0.53113   0.01267  Uiso   1.00
H521   H     0.88267   0.67477   0.53950   0.01267  Uiso   1.00
H522   H     0.90807   0.73369   0.55899   0.01267  Uiso   1.00
H523   H     0.83063   0.88006   0.62184   0.01267  Uiso   1.00
H524   H     0.78550   0.87049   0.67562   0.01267  Uiso   1.00
H525   H     0.80448   0.82706   0.72731   0.01267  Uiso   1.00
H526   H     0.86907   0.77068   0.64309   0.01267  Uiso   1.00
H527   H     0.88679   0.76674   0.71722   0.01267  Uiso   1.00
H528   H     0.83492   0.75917   0.73738   0.01267  Uiso   1.00
C625   C     0.36100   0.53200   0.70000   0.01267  Uiso   1.00
C626   C     0.42200   0.52300   0.71800   0.01267  Uiso   1.00
C627   C     0.31600   0.49900   0.56000   0.01267  Uiso   1.00
C628   C     0.30700   0.46500   0.54600   0.01267  Uiso   1.00
C629   C     0.29400   0.44000   0.57200   0.01267  Uiso   1.00
C630   C     0.29600   0.44800   0.61100   0.01267  Uiso   1.00
C631   C     0.30500   0.48100   0.62600   0.01267  Uiso   1.00
C632   C     0.38800   0.60200   0.57900   0.01267  Uiso   1.00
C633   C     0.42000   0.60000   0.56000   0.01267  Uiso   1.00
C634   C     0.44800   0.57400   0.56800   0.01267  Uiso   1.00
C635   C     0.43900   0.54700   0.59100   0.01267  Uiso   1.00
C636   C     0.40400   0.54600   0.60200   0.01267  Uiso   1.00
C637   C     0.46600   0.52300   0.60500   0.01267  Uiso   1.00
N193   N     0.35200   0.54700   0.67600   0.01267  Uiso   1.00
N194   N     0.44500   0.53100   0.70100   0.01267  Uiso   1.00
N195   N     0.30900   0.51100   0.60000   0.01267  Uiso   1.00
N196   N     0.37600   0.57600   0.59400   0.01267  Uiso   1.00
H529   H     0.33005   0.52117   0.54096   0.01267  Uiso   1.00
H530   H     0.31056   0.45905   0.51432   0.01267  Uiso   1.00
H531   H     0.28113   0.41183   0.56239   0.01267  Uiso   1.00
H532   H     0.28950   0.42477   0.63267   0.01267  Uiso   1.00
H533   H     0.30899   0.48369   0.65807   0.01267  Uiso   1.00
H534   H     0.37184   0.63006   0.58063   0.01267  Uiso   1.00
H535   H     0.42562   0.62049   0.53550   0.01267  Uiso   1.00
H536   H     0.47731   0.57706   0.55448   0.01267  Uiso   1.00
H537   H     0.39309   0.52068   0.61907   0.01267  Uiso   1.00
H538   H     0.46722   0.51674   0.63679   0.01267  Uiso   1.00
H539   H     0.48738   0.50917   0.58492   0.01267  Uiso   1.00
C638   C     0.86100   0.03200   0.20000   0.01267  Uiso   1.00
C639   C     0.92200   0.02300   0.21800   0.01267  Uiso   1.00
C640   C     0.81600   0.99900   0.06000   0.01267  Uiso   1.00
C641   C     0.80700   0.96500   0.04600   0.01267  Uiso   1.00
C642   C     0.79400   0.94000   0.07200   0.01267  Uiso   1.00
C643   C     0.79600   0.94800   0.11100   0.01267  Uiso   1.00
C644   C     0.80500   0.98100   0.12600   0.01267  Uiso   1.00
C645   C     0.88800   0.10200   0.07900   0.01267  Uiso   1.00
C646   C     0.92000   0.10000   0.06000   0.01267  Uiso   1.00
C647   C     0.94800   0.07400   0.06800   0.01267  Uiso   1.00
C648   C     0.93900   0.04700   0.09100   0.01267  Uiso   1.00
C649   C     0.90400   0.04600   0.10200   0.01267  Uiso   1.00
C650   C     0.96600   0.02300   0.10500   0.01267  Uiso   1.00
N197   N     0.85200   0.04700   0.17600   0.01267  Uiso   1.00
N198   N     0.94500   0.03100   0.20100   0.01267  Uiso   1.00
N199   N     0.80900   0.01100   0.10000   0.01267  Uiso   1.00
N200   N     0.87600   0.07600   0.09400   0.01267  Uiso   1.00
H540   H     0.83005   0.02117   0.04096   0.01267  Uiso   1.00
H541   H     0.81056   0.95905   0.01432   0.01267  Uiso   1.00
H542   H     0.78113   0.91183   0.06239   0.01267  Uiso   1.00
H543   H     0.78950   0.92477   0.13267   0.01267  Uiso   1.00
H544   H     0.80899   0.98369   0.15807   0.01267  Uiso   1.00
H545   H     0.87184   0.13006   0.08063   0.01267  Uiso   1.00
H546   H     0.92562   0.12049   0.03550   0.01267  Uiso   1.00
H547   H     0.97731   0.07706   0.05448   0.01267  Uiso   1.00
H548   H     0.89309   0.02068   0.11907   0.01267  Uiso   1.00
H549   H     0.96722   0.01674   0.13679   0.01267  Uiso   1.00
H550   H     0.98738   0.00917   0.08492   0.01267  Uiso   1.00
C651   C     0.13900   0.46800   0.20000   0.01267  Uiso   1.00
C652   C     0.07800   0.47700   0.21800   0.01267  Uiso   1.00
C653   C     0.18400   0.50100   0.06000   0.01267  Uiso   1.00
C654   C     0.19300   0.53500   0.04600   0.01267  Uiso   1.00
C655   C     0.20600   0.56000   0.07200   0.01267  Uiso   1.00
C656   C     0.20400   0.55200   0.11100   0.01267  Uiso   1.00
C657   C     0.19500   0.51900   0.12600   0.01267  Uiso   1.00
C658   C     0.11200   0.39800   0.07900   0.01267  Uiso   1.00
C659   C     0.08000   0.40000   0.06000   0.01267  Uiso   1.00
C660   C     0.05200   0.42600   0.06800   0.01267  Uiso   1.00
C661   C     0.06100   0.45300   0.09100   0.01267  Uiso   1.00
C662   C     0.09600   0.45400   0.10200   0.01267  Uiso   1.00
C663   C     0.03400   0.47700   0.10500   0.01267  Uiso   1.00
N201   N     0.14800   0.45300   0.17600   0.01267  Uiso   1.00
N202   N     0.05500   0.46900   0.20100   0.01267  Uiso   1.00
N203   N     0.19100   0.48900   0.10000   0.01267  Uiso   1.00
N204   N     0.12400   0.42400   0.09400   0.01267  Uiso   1.00
H551   H     0.16995   0.47883   0.04096   0.01267  Uiso   1.00
H552   H     0.18944   0.54095   0.01432   0.01267  Uiso   1.00
H553   H     0.21887   0.58817   0.06239   0.01267  Uiso   1.00
H554   H     0.21050   0.57523   0.13267   0.01267  Uiso   1.00
H555   H     0.19101   0.51631   0.15807   0.01267  Uiso   1.00
H556   H     0.12816   0.36994   0.08063   0.01267  Uiso   1.00
H557   H     0.07438   0.37951   0.03550   0.01267  Uiso   1.00
H558   H     0.02269   0.42294   0.05448   0.01267  Uiso   1.00
H559   H     0.10691   0.47932   0.11907   0.01267  Uiso   1.00
H560   H     0.03278   0.48326   0.13679   0.01267  Uiso   1.00
H561   H     0.01262   0.49083   0.08492   0.01267  Uiso   1.00
C664   C     0.63900   0.96800   0.70000   0.01267  Uiso   1.00
C665   C     0.57800   0.97700   0.71800   0.01267  Uiso   1.00
C666   C     0.68400   0.00100   0.56000   0.01267  Uiso   1.00
C667   C     0.69300   0.03500   0.54600   0.01267  Uiso   1.00
C668   C     0.70600   0.06000   0.57200   0.01267  Uiso   1.00
C669   C     0.70400   0.05200   0.61100   0.01267  Uiso   1.00
C670   C     0.69500   0.01900   0.62600   0.01267  Uiso   1.00
C671   C     0.61200   0.89800   0.57900   0.01267  Uiso   1.00
C672   C     0.58000   0.90000   0.56000   0.01267  Uiso   1.00
C673   C     0.55200   0.92600   0.56800   0.01267  Uiso   1.00
C674   C     0.56100   0.95300   0.59100   0.01267  Uiso   1.00
C675   C     0.59600   0.95400   0.60200   0.01267  Uiso   1.00
C676   C     0.53400   0.97700   0.60500   0.01267  Uiso   1.00
N205   N     0.64800   0.95300   0.67600   0.01267  Uiso   1.00
N206   N     0.55500   0.96900   0.70100   0.01267  Uiso   1.00
N207   N     0.69100   0.98900   0.60000   0.01267  Uiso   1.00
N208   N     0.62400   0.92400   0.59400   0.01267  Uiso   1.00
H562   H     0.66995   0.97883   0.54096   0.01267  Uiso   1.00
H563   H     0.68944   0.04095   0.51432   0.01267  Uiso   1.00
H564   H     0.71887   0.08817   0.56239   0.01267  Uiso   1.00
H565   H     0.71050   0.07523   0.63267   0.01267  Uiso   1.00
H566   H     0.69101   0.01631   0.65807   0.01267  Uiso   1.00
H567   H     0.62816   0.86994   0.58063   0.01267  Uiso   1.00
H568   H     0.57438   0.87951   0.53550   0.01267  Uiso   1.00
H569   H     0.52269   0.92294   0.55448   0.01267  Uiso   1.00
H570   H     0.60691   0.97932   0.61907   0.01267  Uiso   1.00
H571   H     0.53278   0.98326   0.63679   0.01267  Uiso   1.00
H572   H     0.51262   0.99083   0.58492   0.01267  Uiso   1.00
C677   C     0.63900   0.03200   0.80000   0.01267  Uiso   1.00
C678   C     0.57800   0.02300   0.78200   0.01267  Uiso   1.00
C679   C     0.68400   0.99900   0.94000   0.01267  Uiso   1.00
C680   C     0.69300   0.96500   0.95400   0.01267  Uiso   1.00
C681   C     0.70600   0.94000   0.92800   0.01267  Uiso   1.00
C682   C     0.70400   0.94800   0.88900   0.01267  Uiso   1.00
C683   C     0.69500   0.98100   0.87400   0.01267  Uiso   1.00
C684   C     0.61200   0.10200   0.92100   0.01267  Uiso   1.00
C685   C     0.58000   0.10000   0.94000   0.01267  Uiso   1.00
C686   C     0.55200   0.07400   0.93200   0.01267  Uiso   1.00
C687   C     0.56100   0.04700   0.90900   0.01267  Uiso   1.00
C688   C     0.59600   0.04600   0.89800   0.01267  Uiso   1.00
C689   C     0.53400   0.02300   0.89500   0.01267  Uiso   1.00
N209   N     0.64800   0.04700   0.82400   0.01267  Uiso   1.00
N210   N     0.55500   0.03100   0.79900   0.01267  Uiso   1.00
N211   N     0.69100   0.01100   0.90000   0.01267  Uiso   1.00
N212   N     0.62400   0.07600   0.90600   0.01267  Uiso   1.00
H573   H     0.66995   0.02117   0.95904   0.01267  Uiso   1.00
H574   H     0.68944   0.95905   0.98568   0.01267  Uiso   1.00
H575   H     0.71887   0.91183   0.93761   0.01267  Uiso   1.00
H576   H     0.71050   0.92477   0.86733   0.01267  Uiso   1.00
H577   H     0.69101   0.98369   0.84193   0.01267  Uiso   1.00
H578   H     0.62816   0.13006   0.91937   0.01267  Uiso   1.00
H579   H     0.57438   0.12049   0.96450   0.01267  Uiso   1.00
H580   H     0.52269   0.07706   0.94552   0.01267  Uiso   1.00
H581   H     0.60691   0.02068   0.88093   0.01267  Uiso   1.00
H582   H     0.53278   0.01674   0.86321   0.01267  Uiso   1.00
H583   H     0.51262   0.00917   0.91508   0.01267  Uiso   1.00
C690   C     0.13900   0.53200   0.30000   0.01267  Uiso   1.00
C691   C     0.07800   0.52300   0.28200   0.01267  Uiso   1.00
C692   C     0.18400   0.49900   0.44000   0.01267  Uiso   1.00
C693   C     0.19300   0.46500   0.45400   0.01267  Uiso   1.00
C694   C     0.20600   0.44000   0.42800   0.01267  Uiso   1.00
C695   C     0.20400   0.44800   0.38900   0.01267  Uiso   1.00
C696   C     0.19500   0.48100   0.37400   0.01267  Uiso   1.00
C697   C     0.11200   0.60200   0.42100   0.01267  Uiso   1.00
C698   C     0.08000   0.60000   0.44000   0.01267  Uiso   1.00
C699   C     0.05200   0.57400   0.43200   0.01267  Uiso   1.00
C700   C     0.06100   0.54700   0.40900   0.01267  Uiso   1.00
C701   C     0.09600   0.54600   0.39800   0.01267  Uiso   1.00
C702   C     0.03400   0.52300   0.39500   0.01267  Uiso   1.00
N213   N     0.14800   0.54700   0.32400   0.01267  Uiso   1.00
N214   N     0.05500   0.53100   0.29900   0.01267  Uiso   1.00
N215   N     0.19100   0.51100   0.40000   0.01267  Uiso   1.00
N216   N     0.12400   0.57600   0.40600   0.01267  Uiso   1.00
H584   H     0.16995   0.52117   0.45904   0.01267  Uiso   1.00
H585   H     0.18944   0.45905   0.48568   0.01267  Uiso   1.00
H586   H     0.21887   0.41183   0.43761   0.01267  Uiso   1.00
H587   H     0.21050   0.42477   0.36733   0.01267  Uiso   1.00
H588   H     0.19101   0.48369   0.34193   0.01267  Uiso   1.00
H589   H     0.12816   0.63006   0.41937   0.01267  Uiso   1.00
H590   H     0.07438   0.62049   0.46450   0.01267  Uiso   1.00
H591   H     0.02269   0.57706   0.44552   0.01267  Uiso   1.00
H592   H     0.10691   0.52068   0.38093   0.01267  Uiso   1.00
H593   H     0.03278   0.51674   0.36321   0.01267  Uiso   1.00
H594   H     0.01262   0.50917   0.41508   0.01267  Uiso   1.00
C703   C     0.86100   0.96800   0.30000   0.01267  Uiso   1.00
C704   C     0.92200   0.97700   0.28200   0.01267  Uiso   1.00
C705   C     0.81600   0.00100   0.44000   0.01267  Uiso   1.00
C706   C     0.80700   0.03500   0.45400   0.01267  Uiso   1.00
C707   C     0.79400   0.06000   0.42800   0.01267  Uiso   1.00
C708   C     0.79600   0.05200   0.38900   0.01267  Uiso   1.00
C709   C     0.80500   0.01900   0.37400   0.01267  Uiso   1.00
C710   C     0.88800   0.89800   0.42100   0.01267  Uiso   1.00
C711   C     0.92000   0.90000   0.44000   0.01267  Uiso   1.00
C712   C     0.94800   0.92600   0.43200   0.01267  Uiso   1.00
C713   C     0.93900   0.95300   0.40900   0.01267  Uiso   1.00
C714   C     0.90400   0.95400   0.39800   0.01267  Uiso   1.00
C715   C     0.96600   0.97700   0.39500   0.01267  Uiso   1.00
N217   N     0.85200   0.95300   0.32400   0.01267  Uiso   1.00
N218   N     0.94500   0.96900   0.29900   0.01267  Uiso   1.00
N219   N     0.80900   0.98900   0.40000   0.01267  Uiso   1.00
N220   N     0.87600   0.92400   0.40600   0.01267  Uiso   1.00
H595   H     0.83005   0.97883   0.45904   0.01267  Uiso   1.00
H596   H     0.81056   0.04095   0.48568   0.01267  Uiso   1.00
H597   H     0.78113   0.08817   0.43761   0.01267  Uiso   1.00
H598   H     0.78950   0.07523   0.36733   0.01267  Uiso   1.00
H599   H     0.80899   0.01631   0.34193   0.01267  Uiso   1.00
H600   H     0.87184   0.86994   0.41937   0.01267  Uiso   1.00
H601   H     0.92562   0.87951   0.46450   0.01267  Uiso   1.00
H602   H     0.97731   0.92294   0.44552   0.01267  Uiso   1.00
H603   H     0.89309   0.97932   0.38093   0.01267  Uiso   1.00
H604   H     0.96722   0.98326   0.36321   0.01267  Uiso   1.00
H605   H     0.98738   0.99083   0.41508   0.01267  Uiso   1.00
C716   C     0.36100   0.46800   0.80000   0.01267  Uiso   1.00
C717   C     0.42200   0.47700   0.78200   0.01267  Uiso   1.00
C718   C     0.31600   0.50100   0.94000   0.01267  Uiso   1.00
C719   C     0.30700   0.53500   0.95400   0.01267  Uiso   1.00
C720   C     0.29400   0.56000   0.92800   0.01267  Uiso   1.00
C721   C     0.29600   0.55200   0.88900   0.01267  Uiso   1.00
C722   C     0.30500   0.51900   0.87400   0.01267  Uiso   1.00
C723   C     0.38800   0.39800   0.92100   0.01267  Uiso   1.00
C724   C     0.42000   0.40000   0.94000   0.01267  Uiso   1.00
C725   C     0.44800   0.42600   0.93200   0.01267  Uiso   1.00
C726   C     0.43900   0.45300   0.90900   0.01267  Uiso   1.00
C727   C     0.40400   0.45400   0.89800   0.01267  Uiso   1.00
C728   C     0.46600   0.47700   0.89500   0.01267  Uiso   1.00
N221   N     0.35200   0.45300   0.82400   0.01267  Uiso   1.00
N222   N     0.44500   0.46900   0.79900   0.01267  Uiso   1.00
N223   N     0.30900   0.48900   0.90000   0.01267  Uiso   1.00
N224   N     0.37600   0.42400   0.90600   0.01267  Uiso   1.00
H606   H     0.33005   0.47883   0.95904   0.01267  Uiso   1.00
H607   H     0.31056   0.54095   0.98568   0.01267  Uiso   1.00
H608   H     0.28113   0.58817   0.93761   0.01267  Uiso   1.00
H609   H     0.28950   0.57523   0.86733   0.01267  Uiso   1.00
H610   H     0.30899   0.51631   0.84193   0.01267  Uiso   1.00
H611   H     0.37184   0.36994   0.91937   0.01267  Uiso   1.00
H612   H     0.42562   0.37951   0.96450   0.01267  Uiso   1.00
H613   H     0.47731   0.42294   0.94552   0.01267  Uiso   1.00
H614   H     0.39309   0.47932   0.88093   0.01267  Uiso   1.00
H615   H     0.46722   0.48326   0.86321   0.01267  Uiso   1.00
H616   H     0.48738   0.49083   0.91508   0.01267  Uiso   1.00
C729   C     0.70000   0.36100   0.53200   0.01267  Uiso   1.00
C730   C     0.71800   0.42200   0.52300   0.01267  Uiso   1.00
C731   C     0.56000   0.31600   0.49900   0.01267  Uiso   1.00
C732   C     0.54600   0.30700   0.46500   0.01267  Uiso   1.00
C733   C     0.57200   0.29400   0.44000   0.01267  Uiso   1.00
C734   C     0.61100   0.29600   0.44800   0.01267  Uiso   1.00
C735   C     0.62600   0.30500   0.48100   0.01267  Uiso   1.00
C736   C     0.57900   0.38800   0.60200   0.01267  Uiso   1.00
C737   C     0.56000   0.42000   0.60000   0.01267  Uiso   1.00
C738   C     0.56800   0.44800   0.57400   0.01267  Uiso   1.00
C739   C     0.59100   0.43900   0.54700   0.01267  Uiso   1.00
C740   C     0.60200   0.40400   0.54600   0.01267  Uiso   1.00
C741   C     0.60500   0.46600   0.52300   0.01267  Uiso   1.00
N225   N     0.67600   0.35200   0.54700   0.01267  Uiso   1.00
N226   N     0.70100   0.44500   0.53100   0.01267  Uiso   1.00
N227   N     0.60000   0.30900   0.51100   0.01267  Uiso   1.00
N228   N     0.59400   0.37600   0.57600   0.01267  Uiso   1.00
H617   H     0.54096   0.33005   0.52117   0.01267  Uiso   1.00
H618   H     0.51432   0.31056   0.45905   0.01267  Uiso   1.00
H619   H     0.56239   0.28113   0.41183   0.01267  Uiso   1.00
H620   H     0.63267   0.28950   0.42477   0.01267  Uiso   1.00
H621   H     0.65807   0.30899   0.48369   0.01267  Uiso   1.00
H622   H     0.58063   0.37184   0.63006   0.01267  Uiso   1.00
H623   H     0.53550   0.42562   0.62049   0.01267  Uiso   1.00
H624   H     0.55448   0.47731   0.57706   0.01267  Uiso   1.00
H625   H     0.61907   0.39309   0.52068   0.01267  Uiso   1.00
H626   H     0.63679   0.46722   0.51674   0.01267  Uiso   1.00
H627   H     0.58492   0.48738   0.50917   0.01267  Uiso   1.00
C742   C     0.20000   0.86100   0.03200   0.01267  Uiso   1.00
C743   C     0.21800   0.92200   0.02300   0.01267  Uiso   1.00
C744   C     0.06000   0.81600   0.99900   0.01267  Uiso   1.00
C745   C     0.04600   0.80700   0.96500   0.01267  Uiso   1.00
C746   C     0.07200   0.79400   0.94000   0.01267  Uiso   1.00
C747   C     0.11100   0.79600   0.94800   0.01267  Uiso   1.00
C748   C     0.12600   0.80500   0.98100   0.01267  Uiso   1.00
C749   C     0.07900   0.88800   0.10200   0.01267  Uiso   1.00
C750   C     0.06000   0.92000   0.10000   0.01267  Uiso   1.00
C751   C     0.06800   0.94800   0.07400   0.01267  Uiso   1.00
C752   C     0.09100   0.93900   0.04700   0.01267  Uiso   1.00
C753   C     0.10200   0.90400   0.04600   0.01267  Uiso   1.00
C754   C     0.10500   0.96600   0.02300   0.01267  Uiso   1.00
N229   N     0.17600   0.85200   0.04700   0.01267  Uiso   1.00
N230   N     0.20100   0.94500   0.03100   0.01267  Uiso   1.00
N231   N     0.10000   0.80900   0.01100   0.01267  Uiso   1.00
N232   N     0.09400   0.87600   0.07600   0.01267  Uiso   1.00
H628   H     0.04096   0.83005   0.02117   0.01267  Uiso   1.00
H629   H     0.01432   0.81056   0.95905   0.01267  Uiso   1.00
H630   H     0.06239   0.78113   0.91183   0.01267  Uiso   1.00
H631   H     0.13267   0.78950   0.92477   0.01267  Uiso   1.00
H632   H     0.15807   0.80899   0.98369   0.01267  Uiso   1.00
H633   H     0.08063   0.87184   0.13006   0.01267  Uiso   1.00
H634   H     0.03550   0.92562   0.12049   0.01267  Uiso   1.00
H635   H     0.05448   0.97731   0.07706   0.01267  Uiso   1.00
H636   H     0.11907   0.89309   0.02068   0.01267  Uiso   1.00
H637   H     0.13679   0.96722   0.01674   0.01267  Uiso   1.00
H638   H     0.08492   0.98738   0.00917   0.01267  Uiso   1.00
C755   C     0.20000   0.13900   0.46800   0.01267  Uiso   1.00
C756   C     0.21800   0.07800   0.47700   0.01267  Uiso   1.00
C757   C     0.06000   0.18400   0.50100   0.01267  Uiso   1.00
C758   C     0.04600   0.19300   0.53500   0.01267  Uiso   1.00
C759   C     0.07200   0.20600   0.56000   0.01267  Uiso   1.00
C760   C     0.11100   0.20400   0.55200   0.01267  Uiso   1.00
C761   C     0.12600   0.19500   0.51900   0.01267  Uiso   1.00
C762   C     0.07900   0.11200   0.39800   0.01267  Uiso   1.00
C763   C     0.06000   0.08000   0.40000   0.01267  Uiso   1.00
C764   C     0.06800   0.05200   0.42600   0.01267  Uiso   1.00
C765   C     0.09100   0.06100   0.45300   0.01267  Uiso   1.00
C766   C     0.10200   0.09600   0.45400   0.01267  Uiso   1.00
C767   C     0.10500   0.03400   0.47700   0.01267  Uiso   1.00
N233   N     0.17600   0.14800   0.45300   0.01267  Uiso   1.00
N234   N     0.20100   0.05500   0.46900   0.01267  Uiso   1.00
N235   N     0.10000   0.19100   0.48900   0.01267  Uiso   1.00
N236   N     0.09400   0.12400   0.42400   0.01267  Uiso   1.00
H639   H     0.04096   0.16995   0.47883   0.01267  Uiso   1.00
H640   H     0.01432   0.18944   0.54095   0.01267  Uiso   1.00
H641   H     0.06239   0.21887   0.58817   0.01267  Uiso   1.00
H642   H     0.13267   0.21050   0.57523   0.01267  Uiso   1.00
H643   H     0.15807   0.19101   0.51631   0.01267  Uiso   1.00
H644   H     0.08063   0.12816   0.36994   0.01267  Uiso   1.00
H645   H     0.03550   0.07438   0.37951   0.01267  Uiso   1.00
H646   H     0.05448   0.02269   0.42294   0.01267  Uiso   1.00
H647   H     0.11907   0.10691   0.47932   0.01267  Uiso   1.00
H648   H     0.13679   0.03278   0.48326   0.01267  Uiso   1.00
H649   H     0.08492   0.01262   0.49083   0.01267  Uiso   1.00
C768   C     0.70000   0.63900   0.96800   0.01267  Uiso   1.00
C769   C     0.71800   0.57800   0.97700   0.01267  Uiso   1.00
C770   C     0.56000   0.68400   0.00100   0.01267  Uiso   1.00
C771   C     0.54600   0.69300   0.03500   0.01267  Uiso   1.00
C772   C     0.57200   0.70600   0.06000   0.01267  Uiso   1.00
C773   C     0.61100   0.70400   0.05200   0.01267  Uiso   1.00
C774   C     0.62600   0.69500   0.01900   0.01267  Uiso   1.00
C775   C     0.57900   0.61200   0.89800   0.01267  Uiso   1.00
C776   C     0.56000   0.58000   0.90000   0.01267  Uiso   1.00
C777   C     0.56800   0.55200   0.92600   0.01267  Uiso   1.00
C778   C     0.59100   0.56100   0.95300   0.01267  Uiso   1.00
C779   C     0.60200   0.59600   0.95400   0.01267  Uiso   1.00
C780   C     0.60500   0.53400   0.97700   0.01267  Uiso   1.00
N237   N     0.67600   0.64800   0.95300   0.01267  Uiso   1.00
N238   N     0.70100   0.55500   0.96900   0.01267  Uiso   1.00
N239   N     0.60000   0.69100   0.98900   0.01267  Uiso   1.00
N240   N     0.59400   0.62400   0.92400   0.01267  Uiso   1.00
H650   H     0.54096   0.66995   0.97883   0.01267  Uiso   1.00
H651   H     0.51432   0.68944   0.04095   0.01267  Uiso   1.00
H652   H     0.56239   0.71887   0.08817   0.01267  Uiso   1.00
H653   H     0.63267   0.71050   0.07523   0.01267  Uiso   1.00
H654   H     0.65807   0.69101   0.01631   0.01267  Uiso   1.00
H655   H     0.58063   0.62816   0.86994   0.01267  Uiso   1.00
H656   H     0.53550   0.57438   0.87951   0.01267  Uiso   1.00
H657   H     0.55448   0.52269   0.92294   0.01267  Uiso   1.00
H658   H     0.61907   0.60691   0.97932   0.01267  Uiso   1.00
H659   H     0.63679   0.53278   0.98326   0.01267  Uiso   1.00
H660   H     0.58492   0.51262   0.99083   0.01267  Uiso   1.00
C781   C     0.80000   0.63900   0.03200   0.01267  Uiso   1.00
C782   C     0.78200   0.57800   0.02300   0.01267  Uiso   1.00
C783   C     0.94000   0.68400   0.99900   0.01267  Uiso   1.00
C784   C     0.95400   0.69300   0.96500   0.01267  Uiso   1.00
C785   C     0.92800   0.70600   0.94000   0.01267  Uiso   1.00
C786   C     0.88900   0.70400   0.94800   0.01267  Uiso   1.00
C787   C     0.87400   0.69500   0.98100   0.01267  Uiso   1.00
C788   C     0.92100   0.61200   0.10200   0.01267  Uiso   1.00
C789   C     0.94000   0.58000   0.10000   0.01267  Uiso   1.00
C790   C     0.93200   0.55200   0.07400   0.01267  Uiso   1.00
C791   C     0.90900   0.56100   0.04700   0.01267  Uiso   1.00
C792   C     0.89800   0.59600   0.04600   0.01267  Uiso   1.00
C793   C     0.89500   0.53400   0.02300   0.01267  Uiso   1.00
N241   N     0.82400   0.64800   0.04700   0.01267  Uiso   1.00
N242   N     0.79900   0.55500   0.03100   0.01267  Uiso   1.00
N243   N     0.90000   0.69100   0.01100   0.01267  Uiso   1.00
N244   N     0.90600   0.62400   0.07600   0.01267  Uiso   1.00
H661   H     0.95904   0.66995   0.02117   0.01267  Uiso   1.00
H662   H     0.98568   0.68944   0.95905   0.01267  Uiso   1.00
H663   H     0.93761   0.71887   0.91183   0.01267  Uiso   1.00
H664   H     0.86733   0.71050   0.92477   0.01267  Uiso   1.00
H665   H     0.84193   0.69101   0.98369   0.01267  Uiso   1.00
H666   H     0.91937   0.62816   0.13006   0.01267  Uiso   1.00
H667   H     0.96450   0.57438   0.12049   0.01267  Uiso   1.00
H668   H     0.94552   0.52269   0.07706   0.01267  Uiso   1.00
H669   H     0.88093   0.60691   0.02068   0.01267  Uiso   1.00
H670   H     0.86321   0.53278   0.01674   0.01267  Uiso   1.00
H671   H     0.91508   0.51262   0.00917   0.01267  Uiso   1.00
C794   C     0.30000   0.13900   0.53200   0.01267  Uiso   1.00
C795   C     0.28200   0.07800   0.52300   0.01267  Uiso   1.00
C796   C     0.44000   0.18400   0.49900   0.01267  Uiso   1.00
C797   C     0.45400   0.19300   0.46500   0.01267  Uiso   1.00
C798   C     0.42800   0.20600   0.44000   0.01267  Uiso   1.00
C799   C     0.38900   0.20400   0.44800   0.01267  Uiso   1.00
C800   C     0.37400   0.19500   0.48100   0.01267  Uiso   1.00
C801   C     0.42100   0.11200   0.60200   0.01267  Uiso   1.00
C802   C     0.44000   0.08000   0.60000   0.01267  Uiso   1.00
C803   C     0.43200   0.05200   0.57400   0.01267  Uiso   1.00
C804   C     0.40900   0.06100   0.54700   0.01267  Uiso   1.00
C805   C     0.39800   0.09600   0.54600   0.01267  Uiso   1.00
C806   C     0.39500   0.03400   0.52300   0.01267  Uiso   1.00
N245   N     0.32400   0.14800   0.54700   0.01267  Uiso   1.00
N246   N     0.29900   0.05500   0.53100   0.01267  Uiso   1.00
N247   N     0.40000   0.19100   0.51100   0.01267  Uiso   1.00
N248   N     0.40600   0.12400   0.57600   0.01267  Uiso   1.00
H672   H     0.45904   0.16995   0.52117   0.01267  Uiso   1.00
H673   H     0.48568   0.18944   0.45905   0.01267  Uiso   1.00
H674   H     0.43761   0.21887   0.41183   0.01267  Uiso   1.00
H675   H     0.36733   0.21050   0.42477   0.01267  Uiso   1.00
H676   H     0.34193   0.19101   0.48369   0.01267  Uiso   1.00
H677   H     0.41937   0.12816   0.63006   0.01267  Uiso   1.00
H678   H     0.46450   0.07438   0.62049   0.01267  Uiso   1.00
H679   H     0.44552   0.02269   0.57706   0.01267  Uiso   1.00
H680   H     0.38093   0.10691   0.52068   0.01267  Uiso   1.00
H681   H     0.36321   0.03278   0.51674   0.01267  Uiso   1.00
H682   H     0.41508   0.01262   0.50917   0.01267  Uiso   1.00
C807   C     0.30000   0.86100   0.96800   0.01267  Uiso   1.00
C808   C     0.28200   0.92200   0.97700   0.01267  Uiso   1.00
C809   C     0.44000   0.81600   0.00100   0.01267  Uiso   1.00
C810   C     0.45400   0.80700   0.03500   0.01267  Uiso   1.00
C811   C     0.42800   0.79400   0.06000   0.01267  Uiso   1.00
C812   C     0.38900   0.79600   0.05200   0.01267  Uiso   1.00
C813   C     0.37400   0.80500   0.01900   0.01267  Uiso   1.00
C814   C     0.42100   0.88800   0.89800   0.01267  Uiso   1.00
C815   C     0.44000   0.92000   0.90000   0.01267  Uiso   1.00
C816   C     0.43200   0.94800   0.92600   0.01267  Uiso   1.00
C817   C     0.40900   0.93900   0.95300   0.01267  Uiso   1.00
C818   C     0.39800   0.90400   0.95400   0.01267  Uiso   1.00
C819   C     0.39500   0.96600   0.97700   0.01267  Uiso   1.00
N249   N     0.32400   0.85200   0.95300   0.01267  Uiso   1.00
N250   N     0.29900   0.94500   0.96900   0.01267  Uiso   1.00
N251   N     0.40000   0.80900   0.98900   0.01267  Uiso   1.00
N252   N     0.40600   0.87600   0.92400   0.01267  Uiso   1.00
H683   H     0.45904   0.83005   0.97883   0.01267  Uiso   1.00
H684   H     0.48568   0.81056   0.04095   0.01267  Uiso   1.00
H685   H     0.43761   0.78113   0.08817   0.01267  Uiso   1.00
H686   H     0.36733   0.78950   0.07523   0.01267  Uiso   1.00
H687   H     0.34193   0.80899   0.01631   0.01267  Uiso   1.00
H688   H     0.41937   0.87184   0.86994   0.01267  Uiso   1.00
H689   H     0.46450   0.92562   0.87951   0.01267  Uiso   1.00
H690   H     0.44552   0.97731   0.92294   0.01267  Uiso   1.00
H691   H     0.38093   0.89309   0.97932   0.01267  Uiso   1.00
H692   H     0.36321   0.96722   0.98326   0.01267  Uiso   1.00
H693   H     0.41508   0.98738   0.99083   0.01267  Uiso   1.00
C820   C     0.80000   0.36100   0.46800   0.01267  Uiso   1.00
C821   C     0.78200   0.42200   0.47700   0.01267  Uiso   1.00
C822   C     0.94000   0.31600   0.50100   0.01267  Uiso   1.00
C823   C     0.95400   0.30700   0.53500   0.01267  Uiso   1.00
C824   C     0.92800   0.29400   0.56000   0.01267  Uiso   1.00
C825   C     0.88900   0.29600   0.55200   0.01267  Uiso   1.00
C826   C     0.87400   0.30500   0.51900   0.01267  Uiso   1.00
C827   C     0.92100   0.38800   0.39800   0.01267  Uiso   1.00
C828   C     0.94000   0.42000   0.40000   0.01267  Uiso   1.00
C829   C     0.93200   0.44800   0.42600   0.01267  Uiso   1.00
C830   C     0.90900   0.43900   0.45300   0.01267  Uiso   1.00
C831   C     0.89800   0.40400   0.45400   0.01267  Uiso   1.00
C832   C     0.89500   0.46600   0.47700   0.01267  Uiso   1.00
N253   N     0.82400   0.35200   0.45300   0.01267  Uiso   1.00
N254   N     0.79900   0.44500   0.46900   0.01267  Uiso   1.00
N255   N     0.90000   0.30900   0.48900   0.01267  Uiso   1.00
N256   N     0.90600   0.37600   0.42400   0.01267  Uiso   1.00
H694   H     0.95904   0.33005   0.47883   0.01267  Uiso   1.00
H695   H     0.98568   0.31056   0.54095   0.01267  Uiso   1.00
H696   H     0.93761   0.28113   0.58817   0.01267  Uiso   1.00
H697   H     0.86733   0.28950   0.57523   0.01267  Uiso   1.00
H698   H     0.84193   0.30899   0.51631   0.01267  Uiso   1.00
H699   H     0.91937   0.37184   0.36994   0.01267  Uiso   1.00
H700   H     0.96450   0.42562   0.37951   0.01267  Uiso   1.00
H701   H     0.94552   0.47731   0.42294   0.01267  Uiso   1.00
H702   H     0.88093   0.39309   0.47932   0.01267  Uiso   1.00
H703   H     0.86321   0.46722   0.48326   0.01267  Uiso   1.00
H704   H     0.91508   0.48738   0.49083   0.01267  Uiso   1.00
C833   C     0.53200   0.70000   0.36100   0.01267  Uiso   1.00
C834   C     0.52300   0.71800   0.42200   0.01267  Uiso   1.00
C835   C     0.49900   0.56000   0.31600   0.01267  Uiso   1.00
C836   C     0.46500   0.54600   0.30700   0.01267  Uiso   1.00
C837   C     0.44000   0.57200   0.29400   0.01267  Uiso   1.00
C838   C     0.44800   0.61100   0.29600   0.01267  Uiso   1.00
C839   C     0.48100   0.62600   0.30500   0.01267  Uiso   1.00
C840   C     0.60200   0.57900   0.38800   0.01267  Uiso   1.00
C841   C     0.60000   0.56000   0.42000   0.01267  Uiso   1.00
C842   C     0.57400   0.56800   0.44800   0.01267  Uiso   1.00
C843   C     0.54700   0.59100   0.43900   0.01267  Uiso   1.00
C844   C     0.54600   0.60200   0.40400   0.01267  Uiso   1.00
C845   C     0.52300   0.60500   0.46600   0.01267  Uiso   1.00
N257   N     0.54700   0.67600   0.35200   0.01267  Uiso   1.00
N258   N     0.53100   0.70100   0.44500   0.01267  Uiso   1.00
N259   N     0.51100   0.60000   0.30900   0.01267  Uiso   1.00
N260   N     0.57600   0.59400   0.37600   0.01267  Uiso   1.00
H705   H     0.52117   0.54096   0.33005   0.01267  Uiso   1.00
H706   H     0.45905   0.51432   0.31056   0.01267  Uiso   1.00
H707   H     0.41183   0.56239   0.28113   0.01267  Uiso   1.00
H708   H     0.42477   0.63267   0.28950   0.01267  Uiso   1.00
H709   H     0.48369   0.65807   0.30899   0.01267  Uiso   1.00
H710   H     0.63006   0.58063   0.37184   0.01267  Uiso   1.00
H711   H     0.62049   0.53550   0.42562   0.01267  Uiso   1.00
H712   H     0.57706   0.55448   0.47731   0.01267  Uiso   1.00
H713   H     0.52068   0.61907   0.39309   0.01267  Uiso   1.00
H714   H     0.51674   0.63679   0.46722   0.01267  Uiso   1.00
H715   H     0.50917   0.58492   0.48738   0.01267  Uiso   1.00
C846   C     0.03200   0.20000   0.86100   0.01267  Uiso   1.00
C847   C     0.02300   0.21800   0.92200   0.01267  Uiso   1.00
C848   C     0.99900   0.06000   0.81600   0.01267  Uiso   1.00
C849   C     0.96500   0.04600   0.80700   0.01267  Uiso   1.00
C850   C     0.94000   0.07200   0.79400   0.01267  Uiso   1.00
C851   C     0.94800   0.11100   0.79600   0.01267  Uiso   1.00
C852   C     0.98100   0.12600   0.80500   0.01267  Uiso   1.00
C853   C     0.10200   0.07900   0.88800   0.01267  Uiso   1.00
C854   C     0.10000   0.06000   0.92000   0.01267  Uiso   1.00
C855   C     0.07400   0.06800   0.94800   0.01267  Uiso   1.00
C856   C     0.04700   0.09100   0.93900   0.01267  Uiso   1.00
C857   C     0.04600   0.10200   0.90400   0.01267  Uiso   1.00
C858   C     0.02300   0.10500   0.96600   0.01267  Uiso   1.00
N261   N     0.04700   0.17600   0.85200   0.01267  Uiso   1.00
N262   N     0.03100   0.20100   0.94500   0.01267  Uiso   1.00
N263   N     0.01100   0.10000   0.80900   0.01267  Uiso   1.00
N264   N     0.07600   0.09400   0.87600   0.01267  Uiso   1.00
H716   H     0.02117   0.04096   0.83005   0.01267  Uiso   1.00
H717   H     0.95905   0.01432   0.81056   0.01267  Uiso   1.00
H718   H     0.91183   0.06239   0.78113   0.01267  Uiso   1.00
H719   H     0.92477   0.13267   0.78950   0.01267  Uiso   1.00
H720   H     0.98369   0.15807   0.80899   0.01267  Uiso   1.00
H721   H     0.13006   0.08063   0.87184   0.01267  Uiso   1.00
H722   H     0.12049   0.03550   0.92562   0.01267  Uiso   1.00
H723   H     0.07706   0.05448   0.97731   0.01267  Uiso   1.00
H724   H     0.02068   0.11907   0.89309   0.01267  Uiso   1.00
H725   H     0.01674   0.13679   0.96722   0.01267  Uiso   1.00
H726   H     0.00917   0.08492   0.98738   0.01267  Uiso   1.00
C859   C     0.46800   0.20000   0.13900   0.01267  Uiso   1.00
C860   C     0.47700   0.21800   0.07800   0.01267  Uiso   1.00
C861   C     0.50100   0.06000   0.18400   0.01267  Uiso   1.00
C862   C     0.53500   0.04600   0.19300   0.01267  Uiso   1.00
C863   C     0.56000   0.07200   0.20600   0.01267  Uiso   1.00
C864   C     0.55200   0.11100   0.20400   0.01267  Uiso   1.00
C865   C     0.51900   0.12600   0.19500   0.01267  Uiso   1.00
C866   C     0.39800   0.07900   0.11200   0.01267  Uiso   1.00
C867   C     0.40000   0.06000   0.08000   0.01267  Uiso   1.00
C868   C     0.42600   0.06800   0.05200   0.01267  Uiso   1.00
C869   C     0.45300   0.09100   0.06100   0.01267  Uiso   1.00
C870   C     0.45400   0.10200   0.09600   0.01267  Uiso   1.00
C871   C     0.47700   0.10500   0.03400   0.01267  Uiso   1.00
N265   N     0.45300   0.17600   0.14800   0.01267  Uiso   1.00
N266   N     0.46900   0.20100   0.05500   0.01267  Uiso   1.00
N267   N     0.48900   0.10000   0.19100   0.01267  Uiso   1.00
N268   N     0.42400   0.09400   0.12400   0.01267  Uiso   1.00
H727   H     0.47883   0.04096   0.16995   0.01267  Uiso   1.00
H728   H     0.54095   0.01432   0.18944   0.01267  Uiso   1.00
H729   H     0.58817   0.06239   0.21887   0.01267  Uiso   1.00
H730   H     0.57523   0.13267   0.21050   0.01267  Uiso   1.00
H731   H     0.51631   0.15807   0.19101   0.01267  Uiso   1.00
H732   H     0.36994   0.08063   0.12816   0.01267  Uiso   1.00
H733   H     0.37951   0.03550   0.07438   0.01267  Uiso   1.00
H734   H     0.42294   0.05448   0.02269   0.01267  Uiso   1.00
H735   H     0.47932   0.11907   0.10691   0.01267  Uiso   1.00
H736   H     0.48326   0.13679   0.03278   0.01267  Uiso   1.00
H737   H     0.49083   0.08492   0.01262   0.01267  Uiso   1.00
C872   C     0.96800   0.70000   0.63900   0.01267  Uiso   1.00
C873   C     0.97700   0.71800   0.57800   0.01267  Uiso   1.00
C874   C     0.00100   0.56000   0.68400   0.01267  Uiso   1.00
C875   C     0.03500   0.54600   0.69300   0.01267  Uiso   1.00
C876   C     0.06000   0.57200   0.70600   0.01267  Uiso   1.00
C877   C     0.05200   0.61100   0.70400   0.01267  Uiso   1.00
C878   C     0.01900   0.62600   0.69500   0.01267  Uiso   1.00
C879   C     0.89800   0.57900   0.61200   0.01267  Uiso   1.00
C880   C     0.90000   0.56000   0.58000   0.01267  Uiso   1.00
C881   C     0.92600   0.56800   0.55200   0.01267  Uiso   1.00
C882   C     0.95300   0.59100   0.56100   0.01267  Uiso   1.00
C883   C     0.95400   0.60200   0.59600   0.01267  Uiso   1.00
C884   C     0.97700   0.60500   0.53400   0.01267  Uiso   1.00
N269   N     0.95300   0.67600   0.64800   0.01267  Uiso   1.00
N270   N     0.96900   0.70100   0.55500   0.01267  Uiso   1.00
N271   N     0.98900   0.60000   0.69100   0.01267  Uiso   1.00
N272   N     0.92400   0.59400   0.62400   0.01267  Uiso   1.00
H738   H     0.97883   0.54096   0.66995   0.01267  Uiso   1.00
H739   H     0.04095   0.51432   0.68944   0.01267  Uiso   1.00
H740   H     0.08817   0.56239   0.71887   0.01267  Uiso   1.00
H741   H     0.07523   0.63267   0.71050   0.01267  Uiso   1.00
H742   H     0.01631   0.65807   0.69101   0.01267  Uiso   1.00
H743   H     0.86994   0.58063   0.62816   0.01267  Uiso   1.00
H744   H     0.87951   0.53550   0.57438   0.01267  Uiso   1.00
H745   H     0.92294   0.55448   0.52269   0.01267  Uiso   1.00
H746   H     0.97932   0.61907   0.60691   0.01267  Uiso   1.00
H747   H     0.98326   0.63679   0.53278   0.01267  Uiso   1.00
H748   H     0.99083   0.58492   0.51262   0.01267  Uiso   1.00
C885   C     0.03200   0.80000   0.63900   0.01267  Uiso   1.00
C886   C     0.02300   0.78200   0.57800   0.01267  Uiso   1.00
C887   C     0.99900   0.94000   0.68400   0.01267  Uiso   1.00
C888   C     0.96500   0.95400   0.69300   0.01267  Uiso   1.00
C889   C     0.94000   0.92800   0.70600   0.01267  Uiso   1.00
C890   C     0.94800   0.88900   0.70400   0.01267  Uiso   1.00
C891   C     0.98100   0.87400   0.69500   0.01267  Uiso   1.00
C892   C     0.10200   0.92100   0.61200   0.01267  Uiso   1.00
C893   C     0.10000   0.94000   0.58000   0.01267  Uiso   1.00
C894   C     0.07400   0.93200   0.55200   0.01267  Uiso   1.00
C895   C     0.04700   0.90900   0.56100   0.01267  Uiso   1.00
C896   C     0.04600   0.89800   0.59600   0.01267  Uiso   1.00
C897   C     0.02300   0.89500   0.53400   0.01267  Uiso   1.00
N273   N     0.04700   0.82400   0.64800   0.01267  Uiso   1.00
N274   N     0.03100   0.79900   0.55500   0.01267  Uiso   1.00
N275   N     0.01100   0.90000   0.69100   0.01267  Uiso   1.00
N276   N     0.07600   0.90600   0.62400   0.01267  Uiso   1.00
H749   H     0.02117   0.95904   0.66995   0.01267  Uiso   1.00
H750   H     0.95905   0.98568   0.68944   0.01267  Uiso   1.00
H751   H     0.91183   0.93761   0.71887   0.01267  Uiso   1.00
H752   H     0.92477   0.86733   0.71050   0.01267  Uiso   1.00
H753   H     0.98369   0.84193   0.69101   0.01267  Uiso   1.00
H754   H     0.13006   0.91937   0.62816   0.01267  Uiso   1.00
H755   H     0.12049   0.96450   0.57438   0.01267  Uiso   1.00
H756   H     0.07706   0.94552   0.52269   0.01267  Uiso   1.00
H757   H     0.02068   0.88093   0.60691   0.01267  Uiso   1.00
H758   H     0.01674   0.86321   0.53278   0.01267  Uiso   1.00
H759   H     0.00917   0.91508   0.51262   0.01267  Uiso   1.00
C898   C     0.53200   0.30000   0.13900   0.01267  Uiso   1.00
C899   C     0.52300   0.28200   0.07800   0.01267  Uiso   1.00
C900   C     0.49900   0.44000   0.18400   0.01267  Uiso   1.00
C901   C     0.46500   0.45400   0.19300   0.01267  Uiso   1.00
C902   C     0.44000   0.42800   0.20600   0.01267  Uiso   1.00
C903   C     0.44800   0.38900   0.20400   0.01267  Uiso   1.00
C904   C     0.48100   0.37400   0.19500   0.01267  Uiso   1.00
C905   C     0.60200   0.42100   0.11200   0.01267  Uiso   1.00
C906   C     0.60000   0.44000   0.08000   0.01267  Uiso   1.00
C907   C     0.57400   0.43200   0.05200   0.01267  Uiso   1.00
C908   C     0.54700   0.40900   0.06100   0.01267  Uiso   1.00
C909   C     0.54600   0.39800   0.09600   0.01267  Uiso   1.00
C910   C     0.52300   0.39500   0.03400   0.01267  Uiso   1.00
N277   N     0.54700   0.32400   0.14800   0.01267  Uiso   1.00
N278   N     0.53100   0.29900   0.05500   0.01267  Uiso   1.00
N279   N     0.51100   0.40000   0.19100   0.01267  Uiso   1.00
N280   N     0.57600   0.40600   0.12400   0.01267  Uiso   1.00
H760   H     0.52117   0.45904   0.16995   0.01267  Uiso   1.00
H761   H     0.45905   0.48568   0.18944   0.01267  Uiso   1.00
H762   H     0.41183   0.43761   0.21887   0.01267  Uiso   1.00
H763   H     0.42477   0.36733   0.21050   0.01267  Uiso   1.00
H764   H     0.48369   0.34193   0.19101   0.01267  Uiso   1.00
H765   H     0.63006   0.41937   0.12816   0.01267  Uiso   1.00
H766   H     0.62049   0.46450   0.07438   0.01267  Uiso   1.00
H767   H     0.57706   0.44552   0.02269   0.01267  Uiso   1.00
H768   H     0.52068   0.38093   0.10691   0.01267  Uiso   1.00
H769   H     0.51674   0.36321   0.03278   0.01267  Uiso   1.00
H770   H     0.50917   0.41508   0.01262   0.01267  Uiso   1.00
C911   C     0.96800   0.30000   0.86100   0.01267  Uiso   1.00
C912   C     0.97700   0.28200   0.92200   0.01267  Uiso   1.00
C913   C     0.00100   0.44000   0.81600   0.01267  Uiso   1.00
C914   C     0.03500   0.45400   0.80700   0.01267  Uiso   1.00
C915   C     0.06000   0.42800   0.79400   0.01267  Uiso   1.00
C916   C     0.05200   0.38900   0.79600   0.01267  Uiso   1.00
C917   C     0.01900   0.37400   0.80500   0.01267  Uiso   1.00
C918   C     0.89800   0.42100   0.88800   0.01267  Uiso   1.00
C919   C     0.90000   0.44000   0.92000   0.01267  Uiso   1.00
C920   C     0.92600   0.43200   0.94800   0.01267  Uiso   1.00
C921   C     0.95300   0.40900   0.93900   0.01267  Uiso   1.00
C922   C     0.95400   0.39800   0.90400   0.01267  Uiso   1.00
C923   C     0.97700   0.39500   0.96600   0.01267  Uiso   1.00
N281   N     0.95300   0.32400   0.85200   0.01267  Uiso   1.00
N282   N     0.96900   0.29900   0.94500   0.01267  Uiso   1.00
N283   N     0.98900   0.40000   0.80900   0.01267  Uiso   1.00
N284   N     0.92400   0.40600   0.87600   0.01267  Uiso   1.00
H771   H     0.97883   0.45904   0.83005   0.01267  Uiso   1.00
H772   H     0.04095   0.48568   0.81056   0.01267  Uiso   1.00
H773   H     0.08817   0.43761   0.78113   0.01267  Uiso   1.00
H774   H     0.07523   0.36733   0.78950   0.01267  Uiso   1.00
H775   H     0.01631   0.34193   0.80899   0.01267  Uiso   1.00
H776   H     0.86994   0.41937   0.87184   0.01267  Uiso   1.00
H777   H     0.87951   0.46450   0.92562   0.01267  Uiso   1.00
H778   H     0.92294   0.44552   0.97731   0.01267  Uiso   1.00
H779   H     0.97932   0.38093   0.89309   0.01267  Uiso   1.00
H780   H     0.98326   0.36321   0.96722   0.01267  Uiso   1.00
H781   H     0.99083   0.41508   0.98738   0.01267  Uiso   1.00
C924   C     0.46800   0.80000   0.36100   0.01267  Uiso   1.00
C925   C     0.47700   0.78200   0.42200   0.01267  Uiso   1.00
C926   C     0.50100   0.94000   0.31600   0.01267  Uiso   1.00
C927   C     0.53500   0.95400   0.30700   0.01267  Uiso   1.00
C928   C     0.56000   0.92800   0.29400   0.01267  Uiso   1.00
C929   C     0.55200   0.88900   0.29600   0.01267  Uiso   1.00
C930   C     0.51900   0.87400   0.30500   0.01267  Uiso   1.00
C931   C     0.39800   0.92100   0.38800   0.01267  Uiso   1.00
C932   C     0.40000   0.94000   0.42000   0.01267  Uiso   1.00
C933   C     0.42600   0.93200   0.44800   0.01267  Uiso   1.00
C934   C     0.45300   0.90900   0.43900   0.01267  Uiso   1.00
C935   C     0.45400   0.89800   0.40400   0.01267  Uiso   1.00
C936   C     0.47700   0.89500   0.46600   0.01267  Uiso   1.00
N285   N     0.45300   0.82400   0.35200   0.01267  Uiso   1.00
N286   N     0.46900   0.79900   0.44500   0.01267  Uiso   1.00
N287   N     0.48900   0.90000   0.30900   0.01267  Uiso   1.00
N288   N     0.42400   0.90600   0.37600   0.01267  Uiso   1.00
H782   H     0.47883   0.95904   0.33005   0.01267  Uiso   1.00
H783   H     0.54095   0.98568   0.31056   0.01267  Uiso   1.00
H784   H     0.58817   0.93761   0.28113   0.01267  Uiso   1.00
H785   H     0.57523   0.86733   0.28950   0.01267  Uiso   1.00
H786   H     0.51631   0.84193   0.30899   0.01267  Uiso   1.00
H787   H     0.36994   0.91937   0.37184   0.01267  Uiso   1.00
H788   H     0.37951   0.96450   0.42562   0.01267  Uiso   1.00
H789   H     0.42294   0.94552   0.47731   0.01267  Uiso   1.00
H790   H     0.47932   0.88093   0.39309   0.01267  Uiso   1.00
H791   H     0.48326   0.86321   0.46722   0.01267  Uiso   1.00
H792   H     0.49083   0.91508   0.48738   0.01267  Uiso   1.00
C937   C     0.78200   0.11100   0.05000   0.01267  Uiso   1.00
C938   C     0.77300   0.17200   0.03200   0.01267  Uiso   1.00
C939   C     0.74900   0.06600   0.19000   0.01267  Uiso   1.00
C940   C     0.71500   0.05700   0.20400   0.01267  Uiso   1.00
C941   C     0.69000   0.04400   0.17800   0.01267  Uiso   1.00
C942   C     0.69800   0.04600   0.13900   0.01267  Uiso   1.00
C943   C     0.73100   0.05500   0.12400   0.01267  Uiso   1.00
C944   C     0.85200   0.13800   0.17100   0.01267  Uiso   1.00
C945   C     0.85000   0.17000   0.19000   0.01267  Uiso   1.00
C946   C     0.82400   0.19800   0.18200   0.01267  Uiso   1.00
C947   C     0.79700   0.18900   0.15900   0.01267  Uiso   1.00
C948   C     0.79600   0.15400   0.14800   0.01267  Uiso   1.00
C949   C     0.77300   0.21600   0.14500   0.01267  Uiso   1.00
N289   N     0.79700   0.10200   0.07400   0.01267  Uiso   1.00
N290   N     0.78100   0.19500   0.04900   0.01267  Uiso   1.00
N291   N     0.76100   0.05900   0.15000   0.01267  Uiso   1.00
N292   N     0.82600   0.12600   0.15600   0.01267  Uiso   1.00
H793   H     0.77117   0.08005   0.20904   0.01267  Uiso   1.00
H794   H     0.70905   0.06056   0.23568   0.01267  Uiso   1.00
H795   H     0.66183   0.03113   0.18761   0.01267  Uiso   1.00
H796   H     0.67477   0.03950   0.11733   0.01267  Uiso   1.00
H797   H     0.73369   0.05899   0.09193   0.01267  Uiso   1.00
H798   H     0.88006   0.12184   0.16937   0.01267  Uiso   1.00
H799   H     0.87049   0.17562   0.21450   0.01267  Uiso   1.00
H800   H     0.82706   0.22731   0.19552   0.01267  Uiso   1.00
H801   H     0.77068   0.14309   0.13093   0.01267  Uiso   1.00
H802   H     0.76674   0.21722   0.11321   0.01267  Uiso   1.00
H803   H     0.75917   0.23738   0.16508   0.01267  Uiso   1.00
C950   C     0.28200   0.61100   0.55000   0.01267  Uiso   1.00
C951   C     0.27300   0.67200   0.53200   0.01267  Uiso   1.00
C952   C     0.24900   0.56600   0.69000   0.01267  Uiso   1.00
C953   C     0.21500   0.55700   0.70400   0.01267  Uiso   1.00
C954   C     0.19000   0.54400   0.67800   0.01267  Uiso   1.00
C955   C     0.19800   0.54600   0.63900   0.01267  Uiso   1.00
C956   C     0.23100   0.55500   0.62400   0.01267  Uiso   1.00
C957   C     0.35200   0.63800   0.67100   0.01267  Uiso   1.00
C958   C     0.35000   0.67000   0.69000   0.01267  Uiso   1.00
C959   C     0.32400   0.69800   0.68200   0.01267  Uiso   1.00
C960   C     0.29700   0.68900   0.65900   0.01267  Uiso   1.00
C961   C     0.29600   0.65400   0.64800   0.01267  Uiso   1.00
C962   C     0.27300   0.71600   0.64500   0.01267  Uiso   1.00
N293   N     0.29700   0.60200   0.57400   0.01267  Uiso   1.00
N294   N     0.28100   0.69500   0.54900   0.01267  Uiso   1.00
N295   N     0.26100   0.55900   0.65000   0.01267  Uiso   1.00
N296   N     0.32600   0.62600   0.65600   0.01267  Uiso   1.00
H804   H     0.27117   0.58005   0.70904   0.01267  Uiso   1.00
H805   H     0.20905   0.56056   0.73568   0.01267  Uiso   1.00
H806   H     0.16183   0.53113   0.68761   0.01267  Uiso   1.00
H807   H     0.17477   0.53950   0.61733   0.01267  Uiso   1.00
H808   H     0.23369   0.55899   0.59193   0.01267  Uiso   1.00
H809   H     0.38006   0.62184   0.66937   0.01267  Uiso   1.00
H810   H     0.37049   0.67562   0.71450   0.01267  Uiso   1.00
H811   H     0.32706   0.72731   0.69552   0.01267  Uiso   1.00
H812   H     0.27068   0.64309   0.63093   0.01267  Uiso   1.00
H813   H     0.26674   0.71722   0.61321   0.01267  Uiso   1.00
H814   H     0.25917   0.73738   0.66508   0.01267  Uiso   1.00
C963   C     0.71800   0.88900   0.55000   0.01267  Uiso   1.00
C964   C     0.72700   0.82800   0.53200   0.01267  Uiso   1.00
C965   C     0.75100   0.93400   0.69000   0.01267  Uiso   1.00
C966   C     0.78500   0.94300   0.70400   0.01267  Uiso   1.00
C967   C     0.81000   0.95600   0.67800   0.01267  Uiso   1.00
C968   C     0.80200   0.95400   0.63900   0.01267  Uiso   1.00
C969   C     0.76900   0.94500   0.62400   0.01267  Uiso   1.00
C970   C     0.64800   0.86200   0.67100   0.01267  Uiso   1.00
C971   C     0.65000   0.83000   0.69000   0.01267  Uiso   1.00
C972   C     0.67600   0.80200   0.68200   0.01267  Uiso   1.00
C973   C     0.70300   0.81100   0.65900   0.01267  Uiso   1.00
C974   C     0.70400   0.84600   0.64800   0.01267  Uiso   1.00
C975   C     0.72700   0.78400   0.64500   0.01267  Uiso   1.00
N297   N     0.70300   0.89800   0.57400   0.01267  Uiso   1.00
N298   N     0.71900   0.80500   0.54900   0.01267  Uiso   1.00
N299   N     0.73900   0.94100   0.65000   0.01267  Uiso   1.00
N300   N     0.67400   0.87400   0.65600   0.01267  Uiso   1.00
H815   H     0.72883   0.91995   0.70904   0.01267  Uiso   1.00
H816   H     0.79095   0.93944   0.73568   0.01267  Uiso   1.00
H817   H     0.83817   0.96887   0.68761   0.01267  Uiso   1.00
H818   H     0.82523   0.96050   0.61733   0.01267  Uiso   1.00
H819   H     0.76631   0.94101   0.59193   0.01267  Uiso   1.00
H820   H     0.61994   0.87816   0.66937   0.01267  Uiso   1.00
H821   H     0.62951   0.82438   0.71450   0.01267  Uiso   1.00
H822   H     0.67294   0.77269   0.69552   0.01267  Uiso   1.00
H823   H     0.72932   0.85691   0.63093   0.01267  Uiso   1.00
H824   H     0.73326   0.78278   0.61321   0.01267  Uiso   1.00
H825   H     0.74083   0.76262   0.66508   0.01267  Uiso   1.00
C976   C     0.21800   0.38900   0.05000   0.01267  Uiso   1.00
C977   C     0.22700   0.32800   0.03200   0.01267  Uiso   1.00
C978   C     0.25100   0.43400   0.19000   0.01267  Uiso   1.00
C979   C     0.28500   0.44300   0.20400   0.01267  Uiso   1.00
C980   C     0.31000   0.45600   0.17800   0.01267  Uiso   1.00
C981   C     0.30200   0.45400   0.13900   0.01267  Uiso   1.00
C982   C     0.26900   0.44500   0.12400   0.01267  Uiso   1.00
C983   C     0.14800   0.36200   0.17100   0.01267  Uiso   1.00
C984   C     0.15000   0.33000   0.19000   0.01267  Uiso   1.00
C985   C     0.17600   0.30200   0.18200   0.01267  Uiso   1.00
C986   C     0.20300   0.31100   0.15900   0.01267  Uiso   1.00
C987   C     0.20400   0.34600   0.14800   0.01267  Uiso   1.00
C988   C     0.22700   0.28400   0.14500   0.01267  Uiso   1.00
N301   N     0.20300   0.39800   0.07400   0.01267  Uiso   1.00
N302   N     0.21900   0.30500   0.04900   0.01267  Uiso   1.00
N303   N     0.23900   0.44100   0.15000   0.01267  Uiso   1.00
N304   N     0.17400   0.37400   0.15600   0.01267  Uiso   1.00
H826   H     0.22883   0.41995   0.20904   0.01267  Uiso   1.00
H827   H     0.29095   0.43944   0.23568   0.01267  Uiso   1.00
H828   H     0.33817   0.46887   0.18761   0.01267  Uiso   1.00
H829   H     0.32523   0.46050   0.11733   0.01267  Uiso   1.00
H830   H     0.26631   0.44101   0.09193   0.01267  Uiso   1.00
H831   H     0.11994   0.37816   0.16937   0.01267  Uiso   1.00
H832   H     0.12951   0.32438   0.21450   0.01267  Uiso   1.00
H833   H     0.17294   0.27269   0.19552   0.01267  Uiso   1.00
H834   H     0.22932   0.35691   0.13093   0.01267  Uiso   1.00
H835   H     0.23326   0.28278   0.11321   0.01267  Uiso   1.00
H836   H     0.24083   0.26262   0.16508   0.01267  Uiso   1.00
C989   C     0.28200   0.38900   0.95000   0.01267  Uiso   1.00
C990   C     0.27300   0.32800   0.96800   0.01267  Uiso   1.00
C991   C     0.24900   0.43400   0.81000   0.01267  Uiso   1.00
C992   C     0.21500   0.44300   0.79600   0.01267  Uiso   1.00
C993   C     0.19000   0.45600   0.82200   0.01267  Uiso   1.00
C994   C     0.19800   0.45400   0.86100   0.01267  Uiso   1.00
C995   C     0.23100   0.44500   0.87600   0.01267  Uiso   1.00
C996   C     0.35200   0.36200   0.82900   0.01267  Uiso   1.00
C997   C     0.35000   0.33000   0.81000   0.01267  Uiso   1.00
C998   C     0.32400   0.30200   0.81800   0.01267  Uiso   1.00
C999   C     0.29700   0.31100   0.84100   0.01267  Uiso   1.00
C1000  C     0.29600   0.34600   0.85200   0.01267  Uiso   1.00
C1001  C     0.27300   0.28400   0.85500   0.01267  Uiso   1.00
N305   N     0.29700   0.39800   0.92600   0.01267  Uiso   1.00
N306   N     0.28100   0.30500   0.95100   0.01267  Uiso   1.00
N307   N     0.26100   0.44100   0.85000   0.01267  Uiso   1.00
N308   N     0.32600   0.37400   0.84400   0.01267  Uiso   1.00
H837   H     0.27117   0.41995   0.79096   0.01267  Uiso   1.00
H838   H     0.20905   0.43944   0.76432   0.01267  Uiso   1.00
H839   H     0.16183   0.46887   0.81239   0.01267  Uiso   1.00
H840   H     0.17477   0.46050   0.88267   0.01267  Uiso   1.00
H841   H     0.23369   0.44101   0.90807   0.01267  Uiso   1.00
H842   H     0.38006   0.37816   0.83063   0.01267  Uiso   1.00
H843   H     0.37049   0.32438   0.78550   0.01267  Uiso   1.00
H844   H     0.32706   0.27269   0.80448   0.01267  Uiso   1.00
H845   H     0.27068   0.35691   0.86907   0.01267  Uiso   1.00
H846   H     0.26674   0.28278   0.88679   0.01267  Uiso   1.00
H847   H     0.25917   0.26262   0.83492   0.01267  Uiso   1.00
C1002  C     0.78200   0.88900   0.45000   0.01267  Uiso   1.00
C1003  C     0.77300   0.82800   0.46800   0.01267  Uiso   1.00
C1004  C     0.74900   0.93400   0.31000   0.01267  Uiso   1.00
C1005  C     0.71500   0.94300   0.29600   0.01267  Uiso   1.00
C1006  C     0.69000   0.95600   0.32200   0.01267  Uiso   1.00
C1007  C     0.69800   0.95400   0.36100   0.01267  Uiso   1.00
C1008  C     0.73100   0.94500   0.37600   0.01267  Uiso   1.00
C1009  C     0.85200   0.86200   0.32900   0.01267  Uiso   1.00
C1010  C     0.85000   0.83000   0.31000   0.01267  Uiso   1.00
C1011  C     0.82400   0.80200   0.31800   0.01267  Uiso   1.00
C1012  C     0.79700   0.81100   0.34100   0.01267  Uiso   1.00
C1013  C     0.79600   0.84600   0.35200   0.01267  Uiso   1.00
C1014  C     0.77300   0.78400   0.35500   0.01267  Uiso   1.00
N309   N     0.79700   0.89800   0.42600   0.01267  Uiso   1.00
N310   N     0.78100   0.80500   0.45100   0.01267  Uiso   1.00
N311   N     0.76100   0.94100   0.35000   0.01267  Uiso   1.00
N312   N     0.82600   0.87400   0.34400   0.01267  Uiso   1.00
H848   H     0.77117   0.91995   0.29096   0.01267  Uiso   1.00
H849   H     0.70905   0.93944   0.26432   0.01267  Uiso   1.00
H850   H     0.66183   0.96887   0.31239   0.01267  Uiso   1.00
H851   H     0.67477   0.96050   0.38267   0.01267  Uiso   1.00
H852   H     0.73369   0.94101   0.40807   0.01267  Uiso   1.00
H853   H     0.88006   0.87816   0.33063   0.01267  Uiso   1.00
H854   H     0.87049   0.82438   0.28550   0.01267  Uiso   1.00
H855   H     0.82706   0.77269   0.30448   0.01267  Uiso   1.00
H856   H     0.77068   0.85691   0.36907   0.01267  Uiso   1.00
H857   H     0.76674   0.78278   0.38679   0.01267  Uiso   1.00
H858   H     0.75917   0.76262   0.33492   0.01267  Uiso   1.00
C1015  C     0.21800   0.61100   0.45000   0.01267  Uiso   1.00
C1016  C     0.22700   0.67200   0.46800   0.01267  Uiso   1.00
C1017  C     0.25100   0.56600   0.31000   0.01267  Uiso   1.00
C1018  C     0.28500   0.55700   0.29600   0.01267  Uiso   1.00
C1019  C     0.31000   0.54400   0.32200   0.01267  Uiso   1.00
C1020  C     0.30200   0.54600   0.36100   0.01267  Uiso   1.00
C1021  C     0.26900   0.55500   0.37600   0.01267  Uiso   1.00
C1022  C     0.14800   0.63800   0.32900   0.01267  Uiso   1.00
C1023  C     0.15000   0.67000   0.31000   0.01267  Uiso   1.00
C1024  C     0.17600   0.69800   0.31800   0.01267  Uiso   1.00
C1025  C     0.20300   0.68900   0.34100   0.01267  Uiso   1.00
C1026  C     0.20400   0.65400   0.35200   0.01267  Uiso   1.00
C1027  C     0.22700   0.71600   0.35500   0.01267  Uiso   1.00
N313   N     0.20300   0.60200   0.42600   0.01267  Uiso   1.00
N314   N     0.21900   0.69500   0.45100   0.01267  Uiso   1.00
N315   N     0.23900   0.55900   0.35000   0.01267  Uiso   1.00
N316   N     0.17400   0.62600   0.34400   0.01267  Uiso   1.00
H859   H     0.22883   0.58005   0.29096   0.01267  Uiso   1.00
H860   H     0.29095   0.56056   0.26432   0.01267  Uiso   1.00
H861   H     0.33817   0.53113   0.31239   0.01267  Uiso   1.00
H862   H     0.32523   0.53950   0.38267   0.01267  Uiso   1.00
H863   H     0.26631   0.55899   0.40807   0.01267  Uiso   1.00
H864   H     0.11994   0.62184   0.33063   0.01267  Uiso   1.00
H865   H     0.12951   0.67562   0.28550   0.01267  Uiso   1.00
H866   H     0.17294   0.72731   0.30448   0.01267  Uiso   1.00
H867   H     0.22932   0.64309   0.36907   0.01267  Uiso   1.00
H868   H     0.23326   0.71722   0.38679   0.01267  Uiso   1.00
H869   H     0.24083   0.73738   0.33492   0.01267  Uiso   1.00
C1028  C     0.71800   0.11100   0.95000   0.01267  Uiso   1.00
C1029  C     0.72700   0.17200   0.96800   0.01267  Uiso   1.00
C1030  C     0.75100   0.06600   0.81000   0.01267  Uiso   1.00
C1031  C     0.78500   0.05700   0.79600   0.01267  Uiso   1.00
C1032  C     0.81000   0.04400   0.82200   0.01267  Uiso   1.00
C1033  C     0.80200   0.04600   0.86100   0.01267  Uiso   1.00
C1034  C     0.76900   0.05500   0.87600   0.01267  Uiso   1.00
C1035  C     0.64800   0.13800   0.82900   0.01267  Uiso   1.00
C1036  C     0.65000   0.17000   0.81000   0.01267  Uiso   1.00
C1037  C     0.67600   0.19800   0.81800   0.01267  Uiso   1.00
C1038  C     0.70300   0.18900   0.84100   0.01267  Uiso   1.00
C1039  C     0.70400   0.15400   0.85200   0.01267  Uiso   1.00
C1040  C     0.72700   0.21600   0.85500   0.01267  Uiso   1.00
N317   N     0.70300   0.10200   0.92600   0.01267  Uiso   1.00
N318   N     0.71900   0.19500   0.95100   0.01267  Uiso   1.00
N319   N     0.73900   0.05900   0.85000   0.01267  Uiso   1.00
N320   N     0.67400   0.12600   0.84400   0.01267  Uiso   1.00
H870   H     0.72883   0.08005   0.79096   0.01267  Uiso   1.00
H871   H     0.79095   0.06056   0.76432   0.01267  Uiso   1.00
H872   H     0.83817   0.03113   0.81239   0.01267  Uiso   1.00
H873   H     0.82523   0.03950   0.88267   0.01267  Uiso   1.00
H874   H     0.76631   0.05899   0.90807   0.01267  Uiso   1.00
H875   H     0.61994   0.12184   0.83063   0.01267  Uiso   1.00
H876   H     0.62951   0.17562   0.78550   0.01267  Uiso   1.00
H877   H     0.67294   0.22731   0.80448   0.01267  Uiso   1.00
H878   H     0.72932   0.14309   0.86907   0.01267  Uiso   1.00
H879   H     0.73326   0.21722   0.88679   0.01267  Uiso   1.00
H880   H     0.74083   0.23738   0.83492   0.01267  Uiso   1.00
C1041  C     0.61100   0.45000   0.21800   0.01267  Uiso   1.00
C1042  C     0.67200   0.46800   0.22700   0.01267  Uiso   1.00
C1043  C     0.56600   0.31000   0.25100   0.01267  Uiso   1.00
C1044  C     0.55700   0.29600   0.28500   0.01267  Uiso   1.00
C1045  C     0.54400   0.32200   0.31000   0.01267  Uiso   1.00
C1046  C     0.54600   0.36100   0.30200   0.01267  Uiso   1.00
C1047  C     0.55500   0.37600   0.26900   0.01267  Uiso   1.00
C1048  C     0.63800   0.32900   0.14800   0.01267  Uiso   1.00
C1049  C     0.67000   0.31000   0.15000   0.01267  Uiso   1.00
C1050  C     0.69800   0.31800   0.17600   0.01267  Uiso   1.00
C1051  C     0.68900   0.34100   0.20300   0.01267  Uiso   1.00
C1052  C     0.65400   0.35200   0.20400   0.01267  Uiso   1.00
C1053  C     0.71600   0.35500   0.22700   0.01267  Uiso   1.00
N321   N     0.60200   0.42600   0.20300   0.01267  Uiso   1.00
N322   N     0.69500   0.45100   0.21900   0.01267  Uiso   1.00
N323   N     0.55900   0.35000   0.23900   0.01267  Uiso   1.00
N324   N     0.62600   0.34400   0.17400   0.01267  Uiso   1.00
H881   H     0.58005   0.29096   0.22883   0.01267  Uiso   1.00
H882   H     0.56056   0.26432   0.29095   0.01267  Uiso   1.00
H883   H     0.53113   0.31239   0.33817   0.01267  Uiso   1.00
H884   H     0.53950   0.38267   0.32523   0.01267  Uiso   1.00
H885   H     0.55899   0.40807   0.26631   0.01267  Uiso   1.00
H886   H     0.62184   0.33063   0.11994   0.01267  Uiso   1.00
H887   H     0.67562   0.28550   0.12951   0.01267  Uiso   1.00
H888   H     0.72731   0.30448   0.17294   0.01267  Uiso   1.00
H889   H     0.64309   0.36907   0.22932   0.01267  Uiso   1.00
H890   H     0.71722   0.38679   0.23326   0.01267  Uiso   1.00
H891   H     0.73738   0.33492   0.24083   0.01267  Uiso   1.00
C1054  C     0.11100   0.95000   0.71800   0.01267  Uiso   1.00
C1055  C     0.17200   0.96800   0.72700   0.01267  Uiso   1.00
C1056  C     0.06600   0.81000   0.75100   0.01267  Uiso   1.00
C1057  C     0.05700   0.79600   0.78500   0.01267  Uiso   1.00
C1058  C     0.04400   0.82200   0.81000   0.01267  Uiso   1.00
C1059  C     0.04600   0.86100   0.80200   0.01267  Uiso   1.00
C1060  C     0.05500   0.87600   0.76900   0.01267  Uiso   1.00
C1061  C     0.13800   0.82900   0.64800   0.01267  Uiso   1.00
C1062  C     0.17000   0.81000   0.65000   0.01267  Uiso   1.00
C1063  C     0.19800   0.81800   0.67600   0.01267  Uiso   1.00
C1064  C     0.18900   0.84100   0.70300   0.01267  Uiso   1.00
C1065  C     0.15400   0.85200   0.70400   0.01267  Uiso   1.00
C1066  C     0.21600   0.85500   0.72700   0.01267  Uiso   1.00
N325   N     0.10200   0.92600   0.70300   0.01267  Uiso   1.00
N326   N     0.19500   0.95100   0.71900   0.01267  Uiso   1.00
N327   N     0.05900   0.85000   0.73900   0.01267  Uiso   1.00
N328   N     0.12600   0.84400   0.67400   0.01267  Uiso   1.00
H892   H     0.08005   0.79096   0.72883   0.01267  Uiso   1.00
H893   H     0.06056   0.76432   0.79095   0.01267  Uiso   1.00
H894   H     0.03113   0.81239   0.83817   0.01267  Uiso   1.00
H895   H     0.03950   0.88267   0.82523   0.01267  Uiso   1.00
H896   H     0.05899   0.90807   0.76631   0.01267  Uiso   1.00
H897   H     0.12184   0.83063   0.61994   0.01267  Uiso   1.00
H898   H     0.17562   0.78550   0.62951   0.01267  Uiso   1.00
H899   H     0.22731   0.80448   0.67294   0.01267  Uiso   1.00
H900   H     0.14309   0.86907   0.72932   0.01267  Uiso   1.00
H901   H     0.21722   0.88679   0.73326   0.01267  Uiso   1.00
H902   H     0.23738   0.83492   0.74083   0.01267  Uiso   1.00
C1067  C     0.38900   0.95000   0.28200   0.01267  Uiso   1.00
C1068  C     0.32800   0.96800   0.27300   0.01267  Uiso   1.00
C1069  C     0.43400   0.81000   0.24900   0.01267  Uiso   1.00
C1070  C     0.44300   0.79600   0.21500   0.01267  Uiso   1.00
C1071  C     0.45600   0.82200   0.19000   0.01267  Uiso   1.00
C1072  C     0.45400   0.86100   0.19800   0.01267  Uiso   1.00
C1073  C     0.44500   0.87600   0.23100   0.01267  Uiso   1.00
C1074  C     0.36200   0.82900   0.35200   0.01267  Uiso   1.00
C1075  C     0.33000   0.81000   0.35000   0.01267  Uiso   1.00
C1076  C     0.30200   0.81800   0.32400   0.01267  Uiso   1.00
C1077  C     0.31100   0.84100   0.29700   0.01267  Uiso   1.00
C1078  C     0.34600   0.85200   0.29600   0.01267  Uiso   1.00
C1079  C     0.28400   0.85500   0.27300   0.01267  Uiso   1.00
N329   N     0.39800   0.92600   0.29700   0.01267  Uiso   1.00
N330   N     0.30500   0.95100   0.28100   0.01267  Uiso   1.00
N331   N     0.44100   0.85000   0.26100   0.01267  Uiso   1.00
N332   N     0.37400   0.84400   0.32600   0.01267  Uiso   1.00
H903   H     0.41995   0.79096   0.27117   0.01267  Uiso   1.00
H904   H     0.43944   0.76432   0.20905   0.01267  Uiso   1.00
H905   H     0.46887   0.81239   0.16183   0.01267  Uiso   1.00
H906   H     0.46050   0.88267   0.17477   0.01267  Uiso   1.00
H907   H     0.44101   0.90807   0.23369   0.01267  Uiso   1.00
H908   H     0.37816   0.83063   0.38006   0.01267  Uiso   1.00
H909   H     0.32438   0.78550   0.37049   0.01267  Uiso   1.00
H910   H     0.27269   0.80448   0.32706   0.01267  Uiso   1.00
H911   H     0.35691   0.86907   0.27068   0.01267  Uiso   1.00
H912   H     0.28278   0.88679   0.26674   0.01267  Uiso   1.00
H913   H     0.26262   0.83492   0.25917   0.01267  Uiso   1.00
C1080  C     0.88900   0.45000   0.78200   0.01267  Uiso   1.00
C1081  C     0.82800   0.46800   0.77300   0.01267  Uiso   1.00
C1082  C     0.93400   0.31000   0.74900   0.01267  Uiso   1.00
C1083  C     0.94300   0.29600   0.71500   0.01267  Uiso   1.00
C1084  C     0.95600   0.32200   0.69000   0.01267  Uiso   1.00
C1085  C     0.95400   0.36100   0.69800   0.01267  Uiso   1.00
C1086  C     0.94500   0.37600   0.73100   0.01267  Uiso   1.00
C1087  C     0.86200   0.32900   0.85200   0.01267  Uiso   1.00
C1088  C     0.83000   0.31000   0.85000   0.01267  Uiso   1.00
C1089  C     0.80200   0.31800   0.82400   0.01267  Uiso   1.00
C1090  C     0.81100   0.34100   0.79700   0.01267  Uiso   1.00
C1091  C     0.84600   0.35200   0.79600   0.01267  Uiso   1.00
C1092  C     0.78400   0.35500   0.77300   0.01267  Uiso   1.00
N333   N     0.89800   0.42600   0.79700   0.01267  Uiso   1.00
N334   N     0.80500   0.45100   0.78100   0.01267  Uiso   1.00
N335   N     0.94100   0.35000   0.76100   0.01267  Uiso   1.00
N336   N     0.87400   0.34400   0.82600   0.01267  Uiso   1.00
H914   H     0.91995   0.29096   0.77117   0.01267  Uiso   1.00
H915   H     0.93944   0.26432   0.70905   0.01267  Uiso   1.00
H916   H     0.96887   0.31239   0.66183   0.01267  Uiso   1.00
H917   H     0.96050   0.38267   0.67477   0.01267  Uiso   1.00
H918   H     0.94101   0.40807   0.73369   0.01267  Uiso   1.00
H919   H     0.87816   0.33063   0.88006   0.01267  Uiso   1.00
H920   H     0.82438   0.28550   0.87049   0.01267  Uiso   1.00
H921   H     0.77269   0.30448   0.82706   0.01267  Uiso   1.00
H922   H     0.85691   0.36907   0.77068   0.01267  Uiso   1.00
H923   H     0.78278   0.38679   0.76674   0.01267  Uiso   1.00
H924   H     0.76262   0.33492   0.75917   0.01267  Uiso   1.00
C1093  C     0.88900   0.55000   0.71800   0.01267  Uiso   1.00
C1094  C     0.82800   0.53200   0.72700   0.01267  Uiso   1.00
C1095  C     0.93400   0.69000   0.75100   0.01267  Uiso   1.00
C1096  C     0.94300   0.70400   0.78500   0.01267  Uiso   1.00
C1097  C     0.95600   0.67800   0.81000   0.01267  Uiso   1.00
C1098  C     0.95400   0.63900   0.80200   0.01267  Uiso   1.00
C1099  C     0.94500   0.62400   0.76900   0.01267  Uiso   1.00
C1100  C     0.86200   0.67100   0.64800   0.01267  Uiso   1.00
C1101  C     0.83000   0.69000   0.65000   0.01267  Uiso   1.00
C1102  C     0.80200   0.68200   0.67600   0.01267  Uiso   1.00
C1103  C     0.81100   0.65900   0.70300   0.01267  Uiso   1.00
C1104  C     0.84600   0.64800   0.70400   0.01267  Uiso   1.00
C1105  C     0.78400   0.64500   0.72700   0.01267  Uiso   1.00
N337   N     0.89800   0.57400   0.70300   0.01267  Uiso   1.00
N338   N     0.80500   0.54900   0.71900   0.01267  Uiso   1.00
N339   N     0.94100   0.65000   0.73900   0.01267  Uiso   1.00
N340   N     0.87400   0.65600   0.67400   0.01267  Uiso   1.00
H925   H     0.91995   0.70904   0.72883   0.01267  Uiso   1.00
H926   H     0.93944   0.73568   0.79095   0.01267  Uiso   1.00
H927   H     0.96887   0.68761   0.83817   0.01267  Uiso   1.00
H928   H     0.96050   0.61733   0.82523   0.01267  Uiso   1.00
H929   H     0.94101   0.59193   0.76631   0.01267  Uiso   1.00
H930   H     0.87816   0.66937   0.61994   0.01267  Uiso   1.00
H931   H     0.82438   0.71450   0.62951   0.01267  Uiso   1.00
H932   H     0.77269   0.69552   0.67294   0.01267  Uiso   1.00
H933   H     0.85691   0.63093   0.72932   0.01267  Uiso   1.00
H934   H     0.78278   0.61321   0.73326   0.01267  Uiso   1.00
H935   H     0.76262   0.66508   0.74083   0.01267  Uiso   1.00
C1106  C     0.38900   0.05000   0.21800   0.01267  Uiso   1.00
C1107  C     0.32800   0.03200   0.22700   0.01267  Uiso   1.00
C1108  C     0.43400   0.19000   0.25100   0.01267  Uiso   1.00
C1109  C     0.44300   0.20400   0.28500   0.01267  Uiso   1.00
C1110  C     0.45600   0.17800   0.31000   0.01267  Uiso   1.00
C1111  C     0.45400   0.13900   0.30200   0.01267  Uiso   1.00
C1112  C     0.44500   0.12400   0.26900   0.01267  Uiso   1.00
C1113  C     0.36200   0.17100   0.14800   0.01267  Uiso   1.00
C1114  C     0.33000   0.19000   0.15000   0.01267  Uiso   1.00
C1115  C     0.30200   0.18200   0.17600   0.01267  Uiso   1.00
C1116  C     0.31100   0.15900   0.20300   0.01267  Uiso   1.00
C1117  C     0.34600   0.14800   0.20400   0.01267  Uiso   1.00
C1118  C     0.28400   0.14500   0.22700   0.01267  Uiso   1.00
N341   N     0.39800   0.07400   0.20300   0.01267  Uiso   1.00
N342   N     0.30500   0.04900   0.21900   0.01267  Uiso   1.00
N343   N     0.44100   0.15000   0.23900   0.01267  Uiso   1.00
N344   N     0.37400   0.15600   0.17400   0.01267  Uiso   1.00
H936   H     0.41995   0.20904   0.22883   0.01267  Uiso   1.00
H937   H     0.43944   0.23568   0.29095   0.01267  Uiso   1.00
H938   H     0.46887   0.18761   0.33817   0.01267  Uiso   1.00
H939   H     0.46050   0.11733   0.32523   0.01267  Uiso   1.00
H940   H     0.44101   0.09193   0.26631   0.01267  Uiso   1.00
H941   H     0.37816   0.16937   0.11994   0.01267  Uiso   1.00
H942   H     0.32438   0.21450   0.12951   0.01267  Uiso   1.00
H943   H     0.27269   0.19552   0.17294   0.01267  Uiso   1.00
H944   H     0.35691   0.13093   0.22932   0.01267  Uiso   1.00
H945   H     0.28278   0.11321   0.23326   0.01267  Uiso   1.00
H946   H     0.26262   0.16508   0.24083   0.01267  Uiso   1.00
C1119  C     0.11100   0.05000   0.78200   0.01267  Uiso   1.00
C1120  C     0.17200   0.03200   0.77300   0.01267  Uiso   1.00
C1121  C     0.06600   0.19000   0.74900   0.01267  Uiso   1.00
C1122  C     0.05700   0.20400   0.71500   0.01267  Uiso   1.00
C1123  C     0.04400   0.17800   0.69000   0.01267  Uiso   1.00
C1124  C     0.04600   0.13900   0.69800   0.01267  Uiso   1.00
C1125  C     0.05500   0.12400   0.73100   0.01267  Uiso   1.00
C1126  C     0.13800   0.17100   0.85200   0.01267  Uiso   1.00
C1127  C     0.17000   0.19000   0.85000   0.01267  Uiso   1.00
C1128  C     0.19800   0.18200   0.82400   0.01267  Uiso   1.00
C1129  C     0.18900   0.15900   0.79700   0.01267  Uiso   1.00
C1130  C     0.15400   0.14800   0.79600   0.01267  Uiso   1.00
C1131  C     0.21600   0.14500   0.77300   0.01267  Uiso   1.00
N345   N     0.10200   0.07400   0.79700   0.01267  Uiso   1.00
N346   N     0.19500   0.04900   0.78100   0.01267  Uiso   1.00
N347   N     0.05900   0.15000   0.76100   0.01267  Uiso   1.00
N348   N     0.12600   0.15600   0.82600   0.01267  Uiso   1.00
H947   H     0.08005   0.20904   0.77117   0.01267  Uiso   1.00
H948   H     0.06056   0.23568   0.70905   0.01267  Uiso   1.00
H949   H     0.03113   0.18761   0.66183   0.01267  Uiso   1.00
H950   H     0.03950   0.11733   0.67477   0.01267  Uiso   1.00
H951   H     0.05899   0.09193   0.73369   0.01267  Uiso   1.00
H952   H     0.12184   0.16937   0.88006   0.01267  Uiso   1.00
H953   H     0.17562   0.21450   0.87049   0.01267  Uiso   1.00
H954   H     0.22731   0.19552   0.82706   0.01267  Uiso   1.00
H955   H     0.14309   0.13093   0.77068   0.01267  Uiso   1.00
H956   H     0.21722   0.11321   0.76674   0.01267  Uiso   1.00
H957   H     0.23738   0.16508   0.75917   0.01267  Uiso   1.00
C1132  C     0.61100   0.55000   0.28200   0.01267  Uiso   1.00
C1133  C     0.67200   0.53200   0.27300   0.01267  Uiso   1.00
C1134  C     0.56600   0.69000   0.24900   0.01267  Uiso   1.00
C1135  C     0.55700   0.70400   0.21500   0.01267  Uiso   1.00
C1136  C     0.54400   0.67800   0.19000   0.01267  Uiso   1.00
C1137  C     0.54600   0.63900   0.19800   0.01267  Uiso   1.00
C1138  C     0.55500   0.62400   0.23100   0.01267  Uiso   1.00
C1139  C     0.63800   0.67100   0.35200   0.01267  Uiso   1.00
C1140  C     0.67000   0.69000   0.35000   0.01267  Uiso   1.00
C1141  C     0.69800   0.68200   0.32400   0.01267  Uiso   1.00
C1142  C     0.68900   0.65900   0.29700   0.01267  Uiso   1.00
C1143  C     0.65400   0.64800   0.29600   0.01267  Uiso   1.00
C1144  C     0.71600   0.64500   0.27300   0.01267  Uiso   1.00
N349   N     0.60200   0.57400   0.29700   0.01267  Uiso   1.00
N350   N     0.69500   0.54900   0.28100   0.01267  Uiso   1.00
N351   N     0.55900   0.65000   0.26100   0.01267  Uiso   1.00
N352   N     0.62600   0.65600   0.32600   0.01267  Uiso   1.00
H958   H     0.58005   0.70904   0.27117   0.01267  Uiso   1.00
H959   H     0.56056   0.73568   0.20905   0.01267  Uiso   1.00
H960   H     0.53113   0.68761   0.16183   0.01267  Uiso   1.00
H961   H     0.53950   0.61733   0.17477   0.01267  Uiso   1.00
H962   H     0.55899   0.59193   0.23369   0.01267  Uiso   1.00
H963   H     0.62184   0.66937   0.38006   0.01267  Uiso   1.00
H964   H     0.67562   0.71450   0.37049   0.01267  Uiso   1.00
H965   H     0.72731   0.69552   0.32706   0.01267  Uiso   1.00
H966   H     0.64309   0.63093   0.27068   0.01267  Uiso   1.00
H967   H     0.71722   0.61321   0.26674   0.01267  Uiso   1.00
H968   H     0.73738   0.66508   0.25917   0.01267  Uiso   1.00
C1145  C     0.95000   0.28200   0.38900   0.01267  Uiso   1.00
C1146  C     0.96800   0.27300   0.32800   0.01267  Uiso   1.00
C1147  C     0.81000   0.24900   0.43400   0.01267  Uiso   1.00
C1148  C     0.79600   0.21500   0.44300   0.01267  Uiso   1.00
C1149  C     0.82200   0.19000   0.45600   0.01267  Uiso   1.00
C1150  C     0.86100   0.19800   0.45400   0.01267  Uiso   1.00
C1151  C     0.87600   0.23100   0.44500   0.01267  Uiso   1.00
C1152  C     0.82900   0.35200   0.36200   0.01267  Uiso   1.00
C1153  C     0.81000   0.35000   0.33000   0.01267  Uiso   1.00
C1154  C     0.81800   0.32400   0.30200   0.01267  Uiso   1.00
C1155  C     0.84100   0.29700   0.31100   0.01267  Uiso   1.00
C1156  C     0.85200   0.29600   0.34600   0.01267  Uiso   1.00
C1157  C     0.85500   0.27300   0.28400   0.01267  Uiso   1.00
N353   N     0.92600   0.29700   0.39800   0.01267  Uiso   1.00
N354   N     0.95100   0.28100   0.30500   0.01267  Uiso   1.00
N355   N     0.85000   0.26100   0.44100   0.01267  Uiso   1.00
N356   N     0.84400   0.32600   0.37400   0.01267  Uiso   1.00
H969   H     0.79096   0.27117   0.41995   0.01267  Uiso   1.00
H970   H     0.76432   0.20905   0.43944   0.01267  Uiso   1.00
H971   H     0.81239   0.16183   0.46887   0.01267  Uiso   1.00
H972   H     0.88267   0.17477   0.46050   0.01267  Uiso   1.00
H973   H     0.90807   0.23369   0.44101   0.01267  Uiso   1.00
H974   H     0.83063   0.38006   0.37816   0.01267  Uiso   1.00
H975   H     0.78550   0.37049   0.32438   0.01267  Uiso   1.00
H976   H     0.80448   0.32706   0.27269   0.01267  Uiso   1.00
H977   H     0.86907   0.27068   0.35691   0.01267  Uiso   1.00
H978   H     0.88679   0.26674   0.28278   0.01267  Uiso   1.00
H979   H     0.83492   0.25917   0.26262   0.01267  Uiso   1.00
C1158  C     0.45000   0.78200   0.88900   0.01267  Uiso   1.00
C1159  C     0.46800   0.77300   0.82800   0.01267  Uiso   1.00
C1160  C     0.31000   0.74900   0.93400   0.01267  Uiso   1.00
C1161  C     0.29600   0.71500   0.94300   0.01267  Uiso   1.00
C1162  C     0.32200   0.69000   0.95600   0.01267  Uiso   1.00
C1163  C     0.36100   0.69800   0.95400   0.01267  Uiso   1.00
C1164  C     0.37600   0.73100   0.94500   0.01267  Uiso   1.00
C1165  C     0.32900   0.85200   0.86200   0.01267  Uiso   1.00
C1166  C     0.31000   0.85000   0.83000   0.01267  Uiso   1.00
C1167  C     0.31800   0.82400   0.80200   0.01267  Uiso   1.00
C1168  C     0.34100   0.79700   0.81100   0.01267  Uiso   1.00
C1169  C     0.35200   0.79600   0.84600   0.01267  Uiso   1.00
C1170  C     0.35500   0.77300   0.78400   0.01267  Uiso   1.00
N357   N     0.42600   0.79700   0.89800   0.01267  Uiso   1.00
N358   N     0.45100   0.78100   0.80500   0.01267  Uiso   1.00
N359   N     0.35000   0.76100   0.94100   0.01267  Uiso   1.00
N360   N     0.34400   0.82600   0.87400   0.01267  Uiso   1.00
H980   H     0.29096   0.77117   0.91995   0.01267  Uiso   1.00
H981   H     0.26432   0.70905   0.93944   0.01267  Uiso   1.00
H982   H     0.31239   0.66183   0.96887   0.01267  Uiso   1.00
H983   H     0.38267   0.67477   0.96050   0.01267  Uiso   1.00
H984   H     0.40807   0.73369   0.94101   0.01267  Uiso   1.00
H985   H     0.33063   0.88006   0.87816   0.01267  Uiso   1.00
H986   H     0.28550   0.87049   0.82438   0.01267  Uiso   1.00
H987   H     0.30448   0.82706   0.77269   0.01267  Uiso   1.00
H988   H     0.36907   0.77068   0.85691   0.01267  Uiso   1.00
H989   H     0.38679   0.76674   0.78278   0.01267  Uiso   1.00
H990   H     0.33492   0.75917   0.76262   0.01267  Uiso   1.00
C1171  C     0.45000   0.21800   0.61100   0.01267  Uiso   1.00
C1172  C     0.46800   0.22700   0.67200   0.01267  Uiso   1.00
C1173  C     0.31000   0.25100   0.56600   0.01267  Uiso   1.00
C1174  C     0.29600   0.28500   0.55700   0.01267  Uiso   1.00
C1175  C     0.32200   0.31000   0.54400   0.01267  Uiso   1.00
C1176  C     0.36100   0.30200   0.54600   0.01267  Uiso   1.00
C1177  C     0.37600   0.26900   0.55500   0.01267  Uiso   1.00
C1178  C     0.32900   0.14800   0.63800   0.01267  Uiso   1.00
C1179  C     0.31000   0.15000   0.67000   0.01267  Uiso   1.00
C1180  C     0.31800   0.17600   0.69800   0.01267  Uiso   1.00
C1181  C     0.34100   0.20300   0.68900   0.01267  Uiso   1.00
C1182  C     0.35200   0.20400   0.65400   0.01267  Uiso   1.00
C1183  C     0.35500   0.22700   0.71600   0.01267  Uiso   1.00
N361   N     0.42600   0.20300   0.60200   0.01267  Uiso   1.00
N362   N     0.45100   0.21900   0.69500   0.01267  Uiso   1.00
N363   N     0.35000   0.23900   0.55900   0.01267  Uiso   1.00
N364   N     0.34400   0.17400   0.62600   0.01267  Uiso   1.00
H991   H     0.29096   0.22883   0.58005   0.01267  Uiso   1.00
H992   H     0.26432   0.29095   0.56056   0.01267  Uiso   1.00
H993   H     0.31239   0.33817   0.53113   0.01267  Uiso   1.00
H994   H     0.38267   0.32523   0.53950   0.01267  Uiso   1.00
H995   H     0.40807   0.26631   0.55899   0.01267  Uiso   1.00
H996   H     0.33063   0.11994   0.62184   0.01267  Uiso   1.00
H997   H     0.28550   0.12951   0.67562   0.01267  Uiso   1.00
H998   H     0.30448   0.17294   0.72731   0.01267  Uiso   1.00
H999   H     0.36907   0.22932   0.64309   0.01267  Uiso   1.00
H1000  H     0.38679   0.23326   0.71722   0.01267  Uiso   1.00
H1001  H     0.33492   0.24083   0.73738   0.01267  Uiso   1.00
C1184  C     0.95000   0.71800   0.11100   0.01267  Uiso   1.00
C1185  C     0.96800   0.72700   0.17200   0.01267  Uiso   1.00
C1186  C     0.81000   0.75100   0.06600   0.01267  Uiso   1.00
C1187  C     0.79600   0.78500   0.05700   0.01267  Uiso   1.00
C1188  C     0.82200   0.81000   0.04400   0.01267  Uiso   1.00
C1189  C     0.86100   0.80200   0.04600   0.01267  Uiso   1.00
C1190  C     0.87600   0.76900   0.05500   0.01267  Uiso   1.00
C1191  C     0.82900   0.64800   0.13800   0.01267  Uiso   1.00
C1192  C     0.81000   0.65000   0.17000   0.01267  Uiso   1.00
C1193  C     0.81800   0.67600   0.19800   0.01267  Uiso   1.00
C1194  C     0.84100   0.70300   0.18900   0.01267  Uiso   1.00
C1195  C     0.85200   0.70400   0.15400   0.01267  Uiso   1.00
C1196  C     0.85500   0.72700   0.21600   0.01267  Uiso   1.00
N365   N     0.92600   0.70300   0.10200   0.01267  Uiso   1.00
N366   N     0.95100   0.71900   0.19500   0.01267  Uiso   1.00
N367   N     0.85000   0.73900   0.05900   0.01267  Uiso   1.00
N368   N     0.84400   0.67400   0.12600   0.01267  Uiso   1.00
H1002  H     0.79096   0.72883   0.08005   0.01267  Uiso   1.00
H1003  H     0.76432   0.79095   0.06056   0.01267  Uiso   1.00
H1004  H     0.81239   0.83817   0.03113   0.01267  Uiso   1.00
H1005  H     0.88267   0.82523   0.03950   0.01267  Uiso   1.00
H1006  H     0.90807   0.76631   0.05899   0.01267  Uiso   1.00
H1007  H     0.83063   0.61994   0.12184   0.01267  Uiso   1.00
H1008  H     0.78550   0.62951   0.17562   0.01267  Uiso   1.00
H1009  H     0.80448   0.67294   0.22731   0.01267  Uiso   1.00
H1010  H     0.86907   0.72932   0.14309   0.01267  Uiso   1.00
H1011  H     0.88679   0.73326   0.21722   0.01267  Uiso   1.00
H1012  H     0.83492   0.74083   0.23738   0.01267  Uiso   1.00
C1197  C     0.05000   0.78200   0.11100   0.01267  Uiso   1.00
C1198  C     0.03200   0.77300   0.17200   0.01267  Uiso   1.00
C1199  C     0.19000   0.74900   0.06600   0.01267  Uiso   1.00
C1200  C     0.20400   0.71500   0.05700   0.01267  Uiso   1.00
C1201  C     0.17800   0.69000   0.04400   0.01267  Uiso   1.00
C1202  C     0.13900   0.69800   0.04600   0.01267  Uiso   1.00
C1203  C     0.12400   0.73100   0.05500   0.01267  Uiso   1.00
C1204  C     0.17100   0.85200   0.13800   0.01267  Uiso   1.00
C1205  C     0.19000   0.85000   0.17000   0.01267  Uiso   1.00
C1206  C     0.18200   0.82400   0.19800   0.01267  Uiso   1.00
C1207  C     0.15900   0.79700   0.18900   0.01267  Uiso   1.00
C1208  C     0.14800   0.79600   0.15400   0.01267  Uiso   1.00
C1209  C     0.14500   0.77300   0.21600   0.01267  Uiso   1.00
N369   N     0.07400   0.79700   0.10200   0.01267  Uiso   1.00
N370   N     0.04900   0.78100   0.19500   0.01267  Uiso   1.00
N371   N     0.15000   0.76100   0.05900   0.01267  Uiso   1.00
N372   N     0.15600   0.82600   0.12600   0.01267  Uiso   1.00
H1013  H     0.20904   0.77117   0.08005   0.01267  Uiso   1.00
H1014  H     0.23568   0.70905   0.06056   0.01267  Uiso   1.00
H1015  H     0.18761   0.66183   0.03113   0.01267  Uiso   1.00
H1016  H     0.11733   0.67477   0.03950   0.01267  Uiso   1.00
H1017  H     0.09193   0.73369   0.05899   0.01267  Uiso   1.00
H1018  H     0.16937   0.88006   0.12184   0.01267  Uiso   1.00
H1019  H     0.21450   0.87049   0.17562   0.01267  Uiso   1.00
H1020  H     0.19552   0.82706   0.22731   0.01267  Uiso   1.00
H1021  H     0.13093   0.77068   0.14309   0.01267  Uiso   1.00
H1022  H     0.11321   0.76674   0.21722   0.01267  Uiso   1.00
H1023  H     0.16508   0.75917   0.23738   0.01267  Uiso   1.00
C1210  C     0.55000   0.28200   0.61100   0.01267  Uiso   1.00
C1211  C     0.53200   0.27300   0.67200   0.01267  Uiso   1.00
C1212  C     0.69000   0.24900   0.56600   0.01267  Uiso   1.00
C1213  C     0.70400   0.21500   0.55700   0.01267  Uiso   1.00
C1214  C     0.67800   0.19000   0.54400   0.01267  Uiso   1.00
C1215  C     0.63900   0.19800   0.54600   0.01267  Uiso   1.00
C1216  C     0.62400   0.23100   0.55500   0.01267  Uiso   1.00
C1217  C     0.67100   0.35200   0.63800   0.01267  Uiso   1.00
C1218  C     0.69000   0.35000   0.67000   0.01267  Uiso   1.00
C1219  C     0.68200   0.32400   0.69800   0.01267  Uiso   1.00
C1220  C     0.65900   0.29700   0.68900   0.01267  Uiso   1.00
C1221  C     0.64800   0.29600   0.65400   0.01267  Uiso   1.00
C1222  C     0.64500   0.27300   0.71600   0.01267  Uiso   1.00
N373   N     0.57400   0.29700   0.60200   0.01267  Uiso   1.00
N374   N     0.54900   0.28100   0.69500   0.01267  Uiso   1.00
N375   N     0.65000   0.26100   0.55900   0.01267  Uiso   1.00
N376   N     0.65600   0.32600   0.62600   0.01267  Uiso   1.00
H1024  H     0.70904   0.27117   0.58005   0.01267  Uiso   1.00
H1025  H     0.73568   0.20905   0.56056   0.01267  Uiso   1.00
H1026  H     0.68761   0.16183   0.53113   0.01267  Uiso   1.00
H1027  H     0.61733   0.17477   0.53950   0.01267  Uiso   1.00
H1028  H     0.59193   0.23369   0.55899   0.01267  Uiso   1.00
H1029  H     0.66937   0.38006   0.62184   0.01267  Uiso   1.00
H1030  H     0.71450   0.37049   0.67562   0.01267  Uiso   1.00
H1031  H     0.69552   0.32706   0.72731   0.01267  Uiso   1.00
H1032  H     0.63093   0.27068   0.64309   0.01267  Uiso   1.00
H1033  H     0.61321   0.26674   0.71722   0.01267  Uiso   1.00
H1034  H     0.66508   0.25917   0.73738   0.01267  Uiso   1.00
C1223  C     0.55000   0.71800   0.88900   0.01267  Uiso   1.00
C1224  C     0.53200   0.72700   0.82800   0.01267  Uiso   1.00
C1225  C     0.69000   0.75100   0.93400   0.01267  Uiso   1.00
C1226  C     0.70400   0.78500   0.94300   0.01267  Uiso   1.00
C1227  C     0.67800   0.81000   0.95600   0.01267  Uiso   1.00
C1228  C     0.63900   0.80200   0.95400   0.01267  Uiso   1.00
C1229  C     0.62400   0.76900   0.94500   0.01267  Uiso   1.00
C1230  C     0.67100   0.64800   0.86200   0.01267  Uiso   1.00
C1231  C     0.69000   0.65000   0.83000   0.01267  Uiso   1.00
C1232  C     0.68200   0.67600   0.80200   0.01267  Uiso   1.00
C1233  C     0.65900   0.70300   0.81100   0.01267  Uiso   1.00
C1234  C     0.64800   0.70400   0.84600   0.01267  Uiso   1.00
C1235  C     0.64500   0.72700   0.78400   0.01267  Uiso   1.00
N377   N     0.57400   0.70300   0.89800   0.01267  Uiso   1.00
N378   N     0.54900   0.71900   0.80500   0.01267  Uiso   1.00
N379   N     0.65000   0.73900   0.94100   0.01267  Uiso   1.00
N380   N     0.65600   0.67400   0.87400   0.01267  Uiso   1.00
H1035  H     0.70904   0.72883   0.91995   0.01267  Uiso   1.00
H1036  H     0.73568   0.79095   0.93944   0.01267  Uiso   1.00
H1037  H     0.68761   0.83817   0.96887   0.01267  Uiso   1.00
H1038  H     0.61733   0.82523   0.96050   0.01267  Uiso   1.00
H1039  H     0.59193   0.76631   0.94101   0.01267  Uiso   1.00
H1040  H     0.66937   0.61994   0.87816   0.01267  Uiso   1.00
H1041  H     0.71450   0.62951   0.82438   0.01267  Uiso   1.00
H1042  H     0.69552   0.67294   0.77269   0.01267  Uiso   1.00
H1043  H     0.63093   0.72932   0.85691   0.01267  Uiso   1.00
H1044  H     0.61321   0.73326   0.78278   0.01267  Uiso   1.00
H1045  H     0.66508   0.74083   0.76262   0.01267  Uiso   1.00
C1236  C     0.05000   0.21800   0.38900   0.01267  Uiso   1.00
C1237  C     0.03200   0.22700   0.32800   0.01267  Uiso   1.00
C1238  C     0.19000   0.25100   0.43400   0.01267  Uiso   1.00
C1239  C     0.20400   0.28500   0.44300   0.01267  Uiso   1.00
C1240  C     0.17800   0.31000   0.45600   0.01267  Uiso   1.00
C1241  C     0.13900   0.30200   0.45400   0.01267  Uiso   1.00
C1242  C     0.12400   0.26900   0.44500   0.01267  Uiso   1.00
C1243  C     0.17100   0.14800   0.36200   0.01267  Uiso   1.00
C1244  C     0.19000   0.15000   0.33000   0.01267  Uiso   1.00
C1245  C     0.18200   0.17600   0.30200   0.01267  Uiso   1.00
C1246  C     0.15900   0.20300   0.31100   0.01267  Uiso   1.00
C1247  C     0.14800   0.20400   0.34600   0.01267  Uiso   1.00
C1248  C     0.14500   0.22700   0.28400   0.01267  Uiso   1.00
N381   N     0.07400   0.20300   0.39800   0.01267  Uiso   1.00
N382   N     0.04900   0.21900   0.30500   0.01267  Uiso   1.00
N383   N     0.15000   0.23900   0.44100   0.01267  Uiso   1.00
N384   N     0.15600   0.17400   0.37400   0.01267  Uiso   1.00
H1046  H     0.20904   0.22883   0.41995   0.01267  Uiso   1.00
H1047  H     0.23568   0.29095   0.43944   0.01267  Uiso   1.00
H1048  H     0.18761   0.33817   0.46887   0.01267  Uiso   1.00
H1049  H     0.11733   0.32523   0.46050   0.01267  Uiso   1.00
H1050  H     0.09193   0.26631   0.44101   0.01267  Uiso   1.00
H1051  H     0.16937   0.11994   0.37816   0.01267  Uiso   1.00
H1052  H     0.21450   0.12951   0.32438   0.01267  Uiso   1.00
H1053  H     0.19552   0.17294   0.27269   0.01267  Uiso   1.00
H1054  H     0.13093   0.22932   0.35691   0.01267  Uiso   1.00
H1055  H     0.11321   0.23326   0.28278   0.01267  Uiso   1.00
H1056  H     0.16508   0.24083   0.26262   0.01267  Uiso   1.00
Nb1    Nb    0.62500   0.50000   0.25000   0.01267  Uiso   1.00
Nb2    Nb    0.87500   0.50000   0.75000   0.01267  Uiso   1.00
Nb3    Nb    0.37500   0.00000   0.25000   0.01267  Uiso   1.00
Nb4    Nb    0.12500   0.00000   0.75000   0.01267  Uiso   1.00
Nb5    Nb    0.25000   0.62500   0.50000   0.01267  Uiso   1.00
Nb6    Nb    0.75000   0.87500   0.50000   0.01267  Uiso   1.00
Nb7    Nb    0.25000   0.37500   0.00000   0.01267  Uiso   1.00
Nb8    Nb    0.75000   0.12500   0.00000   0.01267  Uiso   1.00
Nb9    Nb    0.50000   0.25000   0.62500   0.01267  Uiso   1.00
Nb10   Nb    0.50000   0.75000   0.87500   0.01267  Uiso   1.00
Nb11   Nb    0.00000   0.25000   0.37500   0.01267  Uiso   1.00
Nb12   Nb    0.00000   0.75000   0.12500   0.01267  Uiso   1.00
Nb13   Nb    0.25000   0.87500   0.00000   0.01267  Uiso   1.00
Nb14   Nb    0.75000   0.37500   0.50000   0.01267  Uiso   1.00
Nb15   Nb    0.25000   0.12500   0.50000   0.01267  Uiso   1.00
Nb16   Nb    0.75000   0.62500   0.00000   0.01267  Uiso   1.00
Nb17   Nb    0.37500   0.50000   0.75000   0.01267  Uiso   1.00
Nb18   Nb    0.62500   0.00000   0.75000   0.01267  Uiso   1.00
Nb19   Nb    0.12500   0.50000   0.25000   0.01267  Uiso   1.00
Nb20   Nb    0.87500   0.00000   0.25000   0.01267  Uiso   1.00
Nb21   Nb    0.00000   0.75000   0.62500   0.01267  Uiso   1.00
Nb22   Nb    0.50000   0.75000   0.37500   0.01267  Uiso   1.00
Nb23   Nb    0.00000   0.25000   0.87500   0.01267  Uiso   1.00
Nb24   Nb    0.50000   0.25000   0.12500   0.01267  Uiso   1.00
Fe1    Fe    0.68200   0.43200   0.37500   0.01267  Uiso   1.00
Fe2    Fe    0.81800   0.56800   0.87500   0.01267  Uiso   1.00
Fe3    Fe    0.31800   0.93200   0.12500   0.01267  Uiso   1.00
Fe4    Fe    0.18200   0.06800   0.62500   0.01267  Uiso   1.00
Fe5    Fe    0.37500   0.68200   0.43200   0.01267  Uiso   1.00
Fe6    Fe    0.87500   0.81800   0.56800   0.01267  Uiso   1.00
Fe7    Fe    0.12500   0.31800   0.93200   0.01267  Uiso   1.00
Fe8    Fe    0.62500   0.18200   0.06800   0.01267  Uiso   1.00
Fe9    Fe    0.43200   0.37500   0.68200   0.01267  Uiso   1.00
Fe10   Fe    0.56800   0.87500   0.81800   0.01267  Uiso   1.00
Fe11   Fe    0.93200   0.12500   0.31800   0.01267  Uiso   1.00
Fe12   Fe    0.06800   0.62500   0.18200   0.01267  Uiso   1.00
Fe13   Fe    0.18200   0.93200   0.87500   0.01267  Uiso   1.00
Fe14   Fe    0.31800   0.06800   0.37500   0.01267  Uiso   1.00
Fe15   Fe    0.68200   0.56800   0.12500   0.01267  Uiso   1.00
Fe16   Fe    0.81800   0.43200   0.62500   0.01267  Uiso   1.00
Fe17   Fe    0.43200   0.62500   0.81800   0.01267  Uiso   1.00
Fe18   Fe    0.56800   0.12500   0.68200   0.01267  Uiso   1.00
Fe19   Fe    0.06800   0.37500   0.31800   0.01267  Uiso   1.00
Fe20   Fe    0.93200   0.87500   0.18200   0.01267  Uiso   1.00
Fe21   Fe    0.12500   0.68200   0.56800   0.01267  Uiso   1.00
Fe22   Fe    0.62500   0.81800   0.43200   0.01267  Uiso   1.00
Fe23   Fe    0.87500   0.18200   0.93200   0.01267  Uiso   1.00
Fe24   Fe    0.37500   0.31800   0.06800   0.01267  Uiso   1.00
Fe25   Fe    0.31800   0.56800   0.62500   0.01267  Uiso   1.00
Fe26   Fe    0.18200   0.43200   0.12500   0.01267  Uiso   1.00
Fe27   Fe    0.68200   0.06800   0.87500   0.01267  Uiso   1.00
Fe28   Fe    0.81800   0.93200   0.37500   0.01267  Uiso   1.00
Fe29   Fe    0.62500   0.31800   0.56800   0.01267  Uiso   1.00
Fe30   Fe    0.12500   0.18200   0.43200   0.01267  Uiso   1.00
Fe31   Fe    0.87500   0.68200   0.06800   0.01267  Uiso   1.00
Fe32   Fe    0.37500   0.81800   0.93200   0.01267  Uiso   1.00
Fe33   Fe    0.56800   0.62500   0.31800   0.01267  Uiso   1.00
Fe34   Fe    0.43200   0.12500   0.18200   0.01267  Uiso   1.00
Fe35   Fe    0.06800   0.87500   0.68200   0.01267  Uiso   1.00
Fe36   Fe    0.93200   0.37500   0.81800   0.01267  Uiso   1.00
Fe37   Fe    0.81800   0.06800   0.12500   0.01267  Uiso   1.00
Fe38   Fe    0.68200   0.93200   0.62500   0.01267  Uiso   1.00
Fe39   Fe    0.31800   0.43200   0.87500   0.01267  Uiso   1.00
Fe40   Fe    0.18200   0.56800   0.37500   0.01267  Uiso   1.00
Fe41   Fe    0.56800   0.37500   0.18200   0.01267  Uiso   1.00
Fe42   Fe    0.43200   0.87500   0.31800   0.01267  Uiso   1.00
Fe43   Fe    0.93200   0.62500   0.68200   0.01267  Uiso   1.00
Fe44   Fe    0.06800   0.12500   0.81800   0.01267  Uiso   1.00
Fe45   Fe    0.87500   0.31800   0.43200   0.01267  Uiso   1.00
Fe46   Fe    0.37500   0.18200   0.56800   0.01267  Uiso   1.00
Fe47   Fe    0.12500   0.81800   0.06800   0.01267  Uiso   1.00
Fe48   Fe    0.62500   0.68200   0.93200   0.01267  Uiso   1.00
