data_image0
_cell_length_a       7.9878
_cell_length_b       33.9352
_cell_length_c       39.1992
_cell_angle_alpha    90
_cell_angle_beta     90
_cell_angle_gamma    90

_symmetry_space_group_name_H-M    "P 1"
_symmetry_int_tables_number       1

loop_
  _symmetry_equiv_pos_as_xyz
  'x, y, z'

loop_
  _atom_site_label
  _atom_site_occupancy
  _atom_site_fract_x
  _atom_site_fract_y
  _atom_site_fract_z
  _atom_site_thermal_displace_type
  _atom_site_B_iso_or_equiv
  _atom_site_type_symbol
  Cu1      1.0000 0.20497  0.40618  0.35066  Biso   1.000  Cu
  C1       1.0000 0.79190  0.58100  0.16421  Biso   1.000  C
  C2       1.0000 0.64250  0.51880  0.18090  Biso   1.000  C
  H1       1.0000 0.65900  0.50880  0.15910  Biso   1.000  H
  C3       1.0000 0.55840  0.49620  0.20530  Biso   1.000  C
  H2       1.0000 0.51830  0.47140  0.19960  Biso   1.000  H
  C4       1.0000 0.53410  0.51090  0.23826  Biso   1.000  C
  C5       1.0000 0.59750  0.54820  0.24656  Biso   1.000  C
  H3       1.0000 0.58440  0.55800  0.26860  Biso   1.000  H
  C6       1.0000 0.68020  0.57090  0.22200  Biso   1.000  C
  H4       1.0000 0.72050  0.59580  0.22760  Biso   1.000  H
  C7       1.0000 0.70190  0.55630  0.18950  Biso   1.000  C
  C8       1.0000 0.30760  0.42790  0.28257  Biso   1.000  C
  H5       1.0000 0.26660  0.40300  0.27730  Biso   1.000  H
  C9       1.0000 0.38620  0.44900  0.25740  Biso   1.000  C
  H6       1.0000 0.39950  0.43820  0.23570  Biso   1.000  H
  C10      1.0000 0.44610  0.48680  0.26439  Biso   1.000  C
  C11      1.0000 0.41960  0.50170  0.29750  Biso   1.000  C
  H7       1.0000 0.45440  0.52710  0.30310  Biso   1.000  H
  C12      1.0000 0.34180  0.47850  0.32140  Biso   1.000  C
  H8       1.0000 0.32630  0.48850  0.34320  Biso   1.000  H
  N1       1.0000 0.28690  0.44167  0.31451  Biso   1.000  N
  O1       1.0000 0.82810  0.61582  0.17318  Biso   1.000  O
  O2       1.0000 0.83040  0.56559  0.13569  Biso   1.000  O
  Cu2      1.0000 0.20497  0.90618  0.85066  Biso   1.000  Cu
  C13      1.0000 0.79190  0.08100  0.66421  Biso   1.000  C
  C14      1.0000 0.64250  0.01880  0.68090  Biso   1.000  C
  H9       1.0000 0.65900  0.00880  0.65910  Biso   1.000  H
  C15      1.0000 0.55840  0.99620  0.70530  Biso   1.000  C
  H10      1.0000 0.51830  0.97140  0.69960  Biso   1.000  H
  C16      1.0000 0.53410  0.01090  0.73826  Biso   1.000  C
  C17      1.0000 0.59750  0.04820  0.74656  Biso   1.000  C
  H11      1.0000 0.58440  0.05800  0.76860  Biso   1.000  H
  C18      1.0000 0.68020  0.07090  0.72200  Biso   1.000  C
  H12      1.0000 0.72050  0.09580  0.72760  Biso   1.000  H
  C19      1.0000 0.70190  0.05630  0.68950  Biso   1.000  C
  C20      1.0000 0.30760  0.92790  0.78257  Biso   1.000  C
  H13      1.0000 0.26660  0.90300  0.77730  Biso   1.000  H
  C21      1.0000 0.38620  0.94900  0.75740  Biso   1.000  C
  H14      1.0000 0.39950  0.93820  0.73570  Biso   1.000  H
  C22      1.0000 0.44610  0.98680  0.76439  Biso   1.000  C
  C23      1.0000 0.41960  0.00170  0.79750  Biso   1.000  C
  H15      1.0000 0.45440  0.02710  0.80310  Biso   1.000  H
  C24      1.0000 0.34180  0.97850  0.82140  Biso   1.000  C
  H16      1.0000 0.32630  0.98850  0.84320  Biso   1.000  H
  N2       1.0000 0.28690  0.94167  0.81451  Biso   1.000  N
  O3       1.0000 0.82810  0.11582  0.67318  Biso   1.000  O
  O4       1.0000 0.83040  0.06559  0.63569  Biso   1.000  O
  Cu3      1.0000 0.70497  0.40618  0.85066  Biso   1.000  Cu
  C25      1.0000 0.29190  0.58100  0.66421  Biso   1.000  C
  C26      1.0000 0.14250  0.51880  0.68090  Biso   1.000  C
  H17      1.0000 0.15900  0.50880  0.65910  Biso   1.000  H
  C27      1.0000 0.05840  0.49620  0.70530  Biso   1.000  C
  H18      1.0000 0.01830  0.47140  0.69960  Biso   1.000  H
  C28      1.0000 0.03410  0.51090  0.73826  Biso   1.000  C
  C29      1.0000 0.09750  0.54820  0.74656  Biso   1.000  C
  H19      1.0000 0.08440  0.55800  0.76860  Biso   1.000  H
  C30      1.0000 0.18020  0.57090  0.72200  Biso   1.000  C
  H20      1.0000 0.22050  0.59580  0.72760  Biso   1.000  H
  C31      1.0000 0.20190  0.55630  0.68950  Biso   1.000  C
  C32      1.0000 0.80760  0.42790  0.78257  Biso   1.000  C
  H21      1.0000 0.76660  0.40300  0.77730  Biso   1.000  H
  C33      1.0000 0.88620  0.44900  0.75740  Biso   1.000  C
  H22      1.0000 0.89950  0.43820  0.73570  Biso   1.000  H
  C34      1.0000 0.94610  0.48680  0.76439  Biso   1.000  C
  C35      1.0000 0.91960  0.50170  0.79750  Biso   1.000  C
  H23      1.0000 0.95440  0.52710  0.80310  Biso   1.000  H
  C36      1.0000 0.84180  0.47850  0.82140  Biso   1.000  C
  H24      1.0000 0.82630  0.48850  0.84320  Biso   1.000  H
  N3       1.0000 0.78690  0.44167  0.81451  Biso   1.000  N
  O5       1.0000 0.32810  0.61582  0.67318  Biso   1.000  O
  O6       1.0000 0.33040  0.56559  0.63569  Biso   1.000  O
  Cu4      1.0000 0.70497  0.90618  0.35066  Biso   1.000  Cu
  C37      1.0000 0.29190  0.08100  0.16421  Biso   1.000  C
  C38      1.0000 0.14250  0.01880  0.18090  Biso   1.000  C
  H25      1.0000 0.15900  0.00880  0.15910  Biso   1.000  H
  C39      1.0000 0.05840  0.99620  0.20530  Biso   1.000  C
  H26      1.0000 0.01830  0.97140  0.19960  Biso   1.000  H
  C40      1.0000 0.03410  0.01090  0.23826  Biso   1.000  C
  C41      1.0000 0.09750  0.04820  0.24656  Biso   1.000  C
  H27      1.0000 0.08440  0.05800  0.26860  Biso   1.000  H
  C42      1.0000 0.18020  0.07090  0.22200  Biso   1.000  C
  H28      1.0000 0.22050  0.09580  0.22760  Biso   1.000  H
  C43      1.0000 0.20190  0.05630  0.18950  Biso   1.000  C
  C44      1.0000 0.80760  0.92790  0.28257  Biso   1.000  C
  H29      1.0000 0.76660  0.90300  0.27730  Biso   1.000  H
  C45      1.0000 0.88620  0.94900  0.25740  Biso   1.000  C
  H30      1.0000 0.89950  0.93820  0.23570  Biso   1.000  H
  C46      1.0000 0.94610  0.98680  0.26439  Biso   1.000  C
  C47      1.0000 0.91960  0.00170  0.29750  Biso   1.000  C
  H31      1.0000 0.95440  0.02710  0.30310  Biso   1.000  H
  C48      1.0000 0.84180  0.97850  0.32140  Biso   1.000  C
  H32      1.0000 0.82630  0.98850  0.34320  Biso   1.000  H
  N4       1.0000 0.78690  0.94167  0.31451  Biso   1.000  N
  O7       1.0000 0.32810  0.11582  0.17318  Biso   1.000  O
  O8       1.0000 0.33040  0.06559  0.13569  Biso   1.000  O
  Cu5      1.0000 0.54503  0.34382  0.35066  Biso   1.000  Cu
  C49      1.0000 0.95810  0.16900  0.16421  Biso   1.000  C
  C50      1.0000 0.10750  0.23120  0.18090  Biso   1.000  C
  H33      1.0000 0.09100  0.24120  0.15910  Biso   1.000  H
  C51      1.0000 0.19160  0.25380  0.20530  Biso   1.000  C
  H34      1.0000 0.23170  0.27860  0.19960  Biso   1.000  H
  C52      1.0000 0.21590  0.23910  0.23826  Biso   1.000  C
  C53      1.0000 0.15250  0.20180  0.24656  Biso   1.000  C
  H35      1.0000 0.16560  0.19200  0.26860  Biso   1.000  H
  C54      1.0000 0.06980  0.17910  0.22200  Biso   1.000  C
  H36      1.0000 0.02950  0.15420  0.22760  Biso   1.000  H
  C55      1.0000 0.04810  0.19370  0.18950  Biso   1.000  C
  C56      1.0000 0.44240  0.32210  0.28257  Biso   1.000  C
  H37      1.0000 0.48340  0.34700  0.27730  Biso   1.000  H
  C57      1.0000 0.36380  0.30100  0.25740  Biso   1.000  C
  H38      1.0000 0.35050  0.31180  0.23570  Biso   1.000  H
  C58      1.0000 0.30390  0.26320  0.26439  Biso   1.000  C
  C59      1.0000 0.33040  0.24830  0.29750  Biso   1.000  C
  H39      1.0000 0.29560  0.22290  0.30310  Biso   1.000  H
  C60      1.0000 0.40820  0.27150  0.32140  Biso   1.000  C
  H40      1.0000 0.42370  0.26150  0.34320  Biso   1.000  H
  N5       1.0000 0.46310  0.30833  0.31451  Biso   1.000  N
  O9       1.0000 0.92190  0.13418  0.17318  Biso   1.000  O
  O10      1.0000 0.91960  0.18441  0.13569  Biso   1.000  O
  Cu6      1.0000 0.54503  0.84382  0.85066  Biso   1.000  Cu
  C61      1.0000 0.95810  0.66900  0.66421  Biso   1.000  C
  C62      1.0000 0.10750  0.73120  0.68090  Biso   1.000  C
  H41      1.0000 0.09100  0.74120  0.65910  Biso   1.000  H
  C63      1.0000 0.19160  0.75380  0.70530  Biso   1.000  C
  H42      1.0000 0.23170  0.77860  0.69960  Biso   1.000  H
  C64      1.0000 0.21590  0.73910  0.73826  Biso   1.000  C
  C65      1.0000 0.15250  0.70180  0.74656  Biso   1.000  C
  H43      1.0000 0.16560  0.69200  0.76860  Biso   1.000  H
  C66      1.0000 0.06980  0.67910  0.72200  Biso   1.000  C
  H44      1.0000 0.02950  0.65420  0.72760  Biso   1.000  H
  C67      1.0000 0.04810  0.69370  0.68950  Biso   1.000  C
  C68      1.0000 0.44240  0.82210  0.78257  Biso   1.000  C
  H45      1.0000 0.48340  0.84700  0.77730  Biso   1.000  H
  C69      1.0000 0.36380  0.80100  0.75740  Biso   1.000  C
  H46      1.0000 0.35050  0.81180  0.73570  Biso   1.000  H
  C70      1.0000 0.30390  0.76320  0.76439  Biso   1.000  C
  C71      1.0000 0.33040  0.74830  0.79750  Biso   1.000  C
  H47      1.0000 0.29560  0.72290  0.80310  Biso   1.000  H
  C72      1.0000 0.40820  0.77150  0.82140  Biso   1.000  C
  H48      1.0000 0.42370  0.76150  0.84320  Biso   1.000  H
  N6       1.0000 0.46310  0.80833  0.81451  Biso   1.000  N
  O11      1.0000 0.92190  0.63418  0.67318  Biso   1.000  O
  O12      1.0000 0.91960  0.68441  0.63569  Biso   1.000  O
  Cu7      1.0000 0.04503  0.34382  0.85066  Biso   1.000  Cu
  C73      1.0000 0.45810  0.16900  0.66421  Biso   1.000  C
  C74      1.0000 0.60750  0.23120  0.68090  Biso   1.000  C
  H49      1.0000 0.59100  0.24120  0.65910  Biso   1.000  H
  C75      1.0000 0.69160  0.25380  0.70530  Biso   1.000  C
  H50      1.0000 0.73170  0.27860  0.69960  Biso   1.000  H
  C76      1.0000 0.71590  0.23910  0.73826  Biso   1.000  C
  C77      1.0000 0.65250  0.20180  0.74656  Biso   1.000  C
  H51      1.0000 0.66560  0.19200  0.76860  Biso   1.000  H
  C78      1.0000 0.56980  0.17910  0.72200  Biso   1.000  C
  H52      1.0000 0.52950  0.15420  0.72760  Biso   1.000  H
  C79      1.0000 0.54810  0.19370  0.68950  Biso   1.000  C
  C80      1.0000 0.94240  0.32210  0.78257  Biso   1.000  C
  H53      1.0000 0.98340  0.34700  0.77730  Biso   1.000  H
  C81      1.0000 0.86380  0.30100  0.75740  Biso   1.000  C
  H54      1.0000 0.85050  0.31180  0.73570  Biso   1.000  H
  C82      1.0000 0.80390  0.26320  0.76439  Biso   1.000  C
  C83      1.0000 0.83040  0.24830  0.79750  Biso   1.000  C
  H55      1.0000 0.79560  0.22290  0.80310  Biso   1.000  H
  C84      1.0000 0.90820  0.27150  0.82140  Biso   1.000  C
  H56      1.0000 0.92370  0.26150  0.84320  Biso   1.000  H
  N7       1.0000 0.96310  0.30833  0.81451  Biso   1.000  N
  O13      1.0000 0.42190  0.13418  0.67318  Biso   1.000  O
  O14      1.0000 0.41960  0.18441  0.63569  Biso   1.000  O
  Cu8      1.0000 0.04503  0.84382  0.35066  Biso   1.000  Cu
  C85      1.0000 0.45810  0.66900  0.16421  Biso   1.000  C
  C86      1.0000 0.60750  0.73120  0.18090  Biso   1.000  C
  H57      1.0000 0.59100  0.74120  0.15910  Biso   1.000  H
  C87      1.0000 0.69160  0.75380  0.20530  Biso   1.000  C
  H58      1.0000 0.73170  0.77860  0.19960  Biso   1.000  H
  C88      1.0000 0.71590  0.73910  0.23826  Biso   1.000  C
  C89      1.0000 0.65250  0.70180  0.24656  Biso   1.000  C
  H59      1.0000 0.66560  0.69200  0.26860  Biso   1.000  H
  C90      1.0000 0.56980  0.67910  0.22200  Biso   1.000  C
  H60      1.0000 0.52950  0.65420  0.22760  Biso   1.000  H
  C91      1.0000 0.54810  0.69370  0.18950  Biso   1.000  C
  C92      1.0000 0.94240  0.82210  0.28257  Biso   1.000  C
  H61      1.0000 0.98340  0.84700  0.27730  Biso   1.000  H
  C93      1.0000 0.86380  0.80100  0.25740  Biso   1.000  C
  H62      1.0000 0.85050  0.81180  0.23570  Biso   1.000  H
  C94      1.0000 0.80390  0.76320  0.26439  Biso   1.000  C
  C95      1.0000 0.83040  0.74830  0.29750  Biso   1.000  C
  H63      1.0000 0.79560  0.72290  0.30310  Biso   1.000  H
  C96      1.0000 0.90820  0.77150  0.32140  Biso   1.000  C
  H64      1.0000 0.92370  0.76150  0.34320  Biso   1.000  H
  N8       1.0000 0.96310  0.80833  0.31451  Biso   1.000  N
  O15      1.0000 0.42190  0.63418  0.17318  Biso   1.000  O
  O16      1.0000 0.41960  0.68441  0.13569  Biso   1.000  O
  Cu9      1.0000 0.54503  0.40618  0.39934  Biso   1.000  Cu
  C97      1.0000 0.95810  0.58100  0.58579  Biso   1.000  C
  C98      1.0000 0.10750  0.51880  0.56910  Biso   1.000  C
  H65      1.0000 0.09100  0.50880  0.59090  Biso   1.000  H
  C99      1.0000 0.19160  0.49620  0.54470  Biso   1.000  C
  H66      1.0000 0.23170  0.47140  0.55040  Biso   1.000  H
  C100     1.0000 0.21590  0.51090  0.51174  Biso   1.000  C
  C101     1.0000 0.15250  0.54820  0.50344  Biso   1.000  C
  H67      1.0000 0.16560  0.55800  0.48140  Biso   1.000  H
  C102     1.0000 0.06980  0.57090  0.52800  Biso   1.000  C
  H68      1.0000 0.02950  0.59580  0.52240  Biso   1.000  H
  C103     1.0000 0.04810  0.55630  0.56050  Biso   1.000  C
  C104     1.0000 0.44240  0.42790  0.46743  Biso   1.000  C
  H69      1.0000 0.48340  0.40300  0.47270  Biso   1.000  H
  C105     1.0000 0.36380  0.44900  0.49260  Biso   1.000  C
  H70      1.0000 0.35050  0.43820  0.51430  Biso   1.000  H
  C106     1.0000 0.30390  0.48680  0.48561  Biso   1.000  C
  C107     1.0000 0.33040  0.50170  0.45250  Biso   1.000  C
  H71      1.0000 0.29560  0.52710  0.44690  Biso   1.000  H
  C108     1.0000 0.40820  0.47850  0.42860  Biso   1.000  C
  H72      1.0000 0.42370  0.48850  0.40680  Biso   1.000  H
  N9       1.0000 0.46310  0.44167  0.43549  Biso   1.000  N
  O17      1.0000 0.92190  0.61582  0.57682  Biso   1.000  O
  O18      1.0000 0.91960  0.56559  0.61431  Biso   1.000  O
  Cu10     1.0000 0.54503  0.90618  0.89934  Biso   1.000  Cu
  C109     1.0000 0.95810  0.08100  0.08579  Biso   1.000  C
  C110     1.0000 0.10750  0.01880  0.06910  Biso   1.000  C
  H73      1.0000 0.09100  0.00880  0.09090  Biso   1.000  H
  C111     1.0000 0.19160  0.99620  0.04470  Biso   1.000  C
  H74      1.0000 0.23170  0.97140  0.05040  Biso   1.000  H
  C112     1.0000 0.21590  0.01090  0.01174  Biso   1.000  C
  C113     1.0000 0.15250  0.04820  0.00344  Biso   1.000  C
  H75      1.0000 0.16560  0.05800  0.98140  Biso   1.000  H
  C114     1.0000 0.06980  0.07090  0.02800  Biso   1.000  C
  H76      1.0000 0.02950  0.09580  0.02240  Biso   1.000  H
  C115     1.0000 0.04810  0.05630  0.06050  Biso   1.000  C
  C116     1.0000 0.44240  0.92790  0.96743  Biso   1.000  C
  H77      1.0000 0.48340  0.90300  0.97270  Biso   1.000  H
  C117     1.0000 0.36380  0.94900  0.99260  Biso   1.000  C
  H78      1.0000 0.35050  0.93820  0.01430  Biso   1.000  H
  C118     1.0000 0.30390  0.98680  0.98561  Biso   1.000  C
  C119     1.0000 0.33040  0.00170  0.95250  Biso   1.000  C
  H79      1.0000 0.29560  0.02710  0.94690  Biso   1.000  H
  C120     1.0000 0.40820  0.97850  0.92860  Biso   1.000  C
  H80      1.0000 0.42370  0.98850  0.90680  Biso   1.000  H
  N10      1.0000 0.46310  0.94167  0.93549  Biso   1.000  N
  O19      1.0000 0.92190  0.11582  0.07682  Biso   1.000  O
  O20      1.0000 0.91960  0.06559  0.11431  Biso   1.000  O
  Cu11     1.0000 0.04503  0.40618  0.89934  Biso   1.000  Cu
  C121     1.0000 0.45810  0.58100  0.08579  Biso   1.000  C
  C122     1.0000 0.60750  0.51880  0.06910  Biso   1.000  C
  H81      1.0000 0.59100  0.50880  0.09090  Biso   1.000  H
  C123     1.0000 0.69160  0.49620  0.04470  Biso   1.000  C
  H82      1.0000 0.73170  0.47140  0.05040  Biso   1.000  H
  C124     1.0000 0.71590  0.51090  0.01174  Biso   1.000  C
  C125     1.0000 0.65250  0.54820  0.00344  Biso   1.000  C
  H83      1.0000 0.66560  0.55800  0.98140  Biso   1.000  H
  C126     1.0000 0.56980  0.57090  0.02800  Biso   1.000  C
  H84      1.0000 0.52950  0.59580  0.02240  Biso   1.000  H
  C127     1.0000 0.54810  0.55630  0.06050  Biso   1.000  C
  C128     1.0000 0.94240  0.42790  0.96743  Biso   1.000  C
  H85      1.0000 0.98340  0.40300  0.97270  Biso   1.000  H
  C129     1.0000 0.86380  0.44900  0.99260  Biso   1.000  C
  H86      1.0000 0.85050  0.43820  0.01430  Biso   1.000  H
  C130     1.0000 0.80390  0.48680  0.98561  Biso   1.000  C
  C131     1.0000 0.83040  0.50170  0.95250  Biso   1.000  C
  H87      1.0000 0.79560  0.52710  0.94690  Biso   1.000  H
  C132     1.0000 0.90820  0.47850  0.92860  Biso   1.000  C
  H88      1.0000 0.92370  0.48850  0.90680  Biso   1.000  H
  N11      1.0000 0.96310  0.44167  0.93549  Biso   1.000  N
  O21      1.0000 0.42190  0.61582  0.07682  Biso   1.000  O
  O22      1.0000 0.41960  0.56559  0.11431  Biso   1.000  O
  Cu12     1.0000 0.04503  0.90618  0.39934  Biso   1.000  Cu
  C133     1.0000 0.45810  0.08100  0.58579  Biso   1.000  C
  C134     1.0000 0.60750  0.01880  0.56910  Biso   1.000  C
  H89      1.0000 0.59100  0.00880  0.59090  Biso   1.000  H
  C135     1.0000 0.69160  0.99620  0.54470  Biso   1.000  C
  H90      1.0000 0.73170  0.97140  0.55040  Biso   1.000  H
  C136     1.0000 0.71590  0.01090  0.51174  Biso   1.000  C
  C137     1.0000 0.65250  0.04820  0.50344  Biso   1.000  C
  H91      1.0000 0.66560  0.05800  0.48140  Biso   1.000  H
  C138     1.0000 0.56980  0.07090  0.52800  Biso   1.000  C
  H92      1.0000 0.52950  0.09580  0.52240  Biso   1.000  H
  C139     1.0000 0.54810  0.05630  0.56050  Biso   1.000  C
  C140     1.0000 0.94240  0.92790  0.46743  Biso   1.000  C
  H93      1.0000 0.98340  0.90300  0.47270  Biso   1.000  H
  C141     1.0000 0.86380  0.94900  0.49260  Biso   1.000  C
  H94      1.0000 0.85050  0.93820  0.51430  Biso   1.000  H
  C142     1.0000 0.80390  0.98680  0.48561  Biso   1.000  C
  C143     1.0000 0.83040  0.00170  0.45250  Biso   1.000  C
  H95      1.0000 0.79560  0.02710  0.44690  Biso   1.000  H
  C144     1.0000 0.90820  0.97850  0.42860  Biso   1.000  C
  H96      1.0000 0.92370  0.98850  0.40680  Biso   1.000  H
  N12      1.0000 0.96310  0.94167  0.43549  Biso   1.000  N
  O23      1.0000 0.42190  0.11582  0.57682  Biso   1.000  O
  O24      1.0000 0.41960  0.06559  0.61431  Biso   1.000  O
  Cu13     1.0000 0.20497  0.34382  0.39934  Biso   1.000  Cu
  C145     1.0000 0.79190  0.16900  0.58579  Biso   1.000  C
  C146     1.0000 0.64250  0.23120  0.56910  Biso   1.000  C
  H97      1.0000 0.65900  0.24120  0.59090  Biso   1.000  H
  C147     1.0000 0.55840  0.25380  0.54470  Biso   1.000  C
  H98      1.0000 0.51830  0.27860  0.55040  Biso   1.000  H
  C148     1.0000 0.53410  0.23910  0.51174  Biso   1.000  C
  C149     1.0000 0.59750  0.20180  0.50344  Biso   1.000  C
  H99      1.0000 0.58440  0.19200  0.48140  Biso   1.000  H
  C150     1.0000 0.68020  0.17910  0.52800  Biso   1.000  C
  H100     1.0000 0.72050  0.15420  0.52240  Biso   1.000  H
  C151     1.0000 0.70190  0.19370  0.56050  Biso   1.000  C
  C152     1.0000 0.30760  0.32210  0.46743  Biso   1.000  C
  H101     1.0000 0.26660  0.34700  0.47270  Biso   1.000  H
  C153     1.0000 0.38620  0.30100  0.49260  Biso   1.000  C
  H102     1.0000 0.39950  0.31180  0.51430  Biso   1.000  H
  C154     1.0000 0.44610  0.26320  0.48561  Biso   1.000  C
  C155     1.0000 0.41960  0.24830  0.45250  Biso   1.000  C
  H103     1.0000 0.45440  0.22290  0.44690  Biso   1.000  H
  C156     1.0000 0.34180  0.27150  0.42860  Biso   1.000  C
  H104     1.0000 0.32630  0.26150  0.40680  Biso   1.000  H
  N13      1.0000 0.28690  0.30833  0.43549  Biso   1.000  N
  O25      1.0000 0.82810  0.13418  0.57682  Biso   1.000  O
  O26      1.0000 0.83040  0.18441  0.61431  Biso   1.000  O
  Cu14     1.0000 0.20497  0.84382  0.89934  Biso   1.000  Cu
  C157     1.0000 0.79190  0.66900  0.08579  Biso   1.000  C
  C158     1.0000 0.64250  0.73120  0.06910  Biso   1.000  C
  H105     1.0000 0.65900  0.74120  0.09090  Biso   1.000  H
  C159     1.0000 0.55840  0.75380  0.04470  Biso   1.000  C
  H106     1.0000 0.51830  0.77860  0.05040  Biso   1.000  H
  C160     1.0000 0.53410  0.73910  0.01174  Biso   1.000  C
  C161     1.0000 0.59750  0.70180  0.00344  Biso   1.000  C
  H107     1.0000 0.58440  0.69200  0.98140  Biso   1.000  H
  C162     1.0000 0.68020  0.67910  0.02800  Biso   1.000  C
  H108     1.0000 0.72050  0.65420  0.02240  Biso   1.000  H
  C163     1.0000 0.70190  0.69370  0.06050  Biso   1.000  C
  C164     1.0000 0.30760  0.82210  0.96743  Biso   1.000  C
  H109     1.0000 0.26660  0.84700  0.97270  Biso   1.000  H
  C165     1.0000 0.38620  0.80100  0.99260  Biso   1.000  C
  H110     1.0000 0.39950  0.81180  0.01430  Biso   1.000  H
  C166     1.0000 0.44610  0.76320  0.98561  Biso   1.000  C
  C167     1.0000 0.41960  0.74830  0.95250  Biso   1.000  C
  H111     1.0000 0.45440  0.72290  0.94690  Biso   1.000  H
  C168     1.0000 0.34180  0.77150  0.92860  Biso   1.000  C
  H112     1.0000 0.32630  0.76150  0.90680  Biso   1.000  H
  N14      1.0000 0.28690  0.80833  0.93549  Biso   1.000  N
  O27      1.0000 0.82810  0.63418  0.07682  Biso   1.000  O
  O28      1.0000 0.83040  0.68441  0.11431  Biso   1.000  O
  Cu15     1.0000 0.70497  0.34382  0.89934  Biso   1.000  Cu
  C169     1.0000 0.29190  0.16900  0.08579  Biso   1.000  C
  C170     1.0000 0.14250  0.23120  0.06910  Biso   1.000  C
  H113     1.0000 0.15900  0.24120  0.09090  Biso   1.000  H
  C171     1.0000 0.05840  0.25380  0.04470  Biso   1.000  C
  H114     1.0000 0.01830  0.27860  0.05040  Biso   1.000  H
  C172     1.0000 0.03410  0.23910  0.01174  Biso   1.000  C
  C173     1.0000 0.09750  0.20180  0.00344  Biso   1.000  C
  H115     1.0000 0.08440  0.19200  0.98140  Biso   1.000  H
  C174     1.0000 0.18020  0.17910  0.02800  Biso   1.000  C
  H116     1.0000 0.22050  0.15420  0.02240  Biso   1.000  H
  C175     1.0000 0.20190  0.19370  0.06050  Biso   1.000  C
  C176     1.0000 0.80760  0.32210  0.96743  Biso   1.000  C
  H117     1.0000 0.76660  0.34700  0.97270  Biso   1.000  H
  C177     1.0000 0.88620  0.30100  0.99260  Biso   1.000  C
  H118     1.0000 0.89950  0.31180  0.01430  Biso   1.000  H
  C178     1.0000 0.94610  0.26320  0.98561  Biso   1.000  C
  C179     1.0000 0.91960  0.24830  0.95250  Biso   1.000  C
  H119     1.0000 0.95440  0.22290  0.94690  Biso   1.000  H
  C180     1.0000 0.84180  0.27150  0.92860  Biso   1.000  C
  H120     1.0000 0.82630  0.26150  0.90680  Biso   1.000  H
  N15      1.0000 0.78690  0.30833  0.93549  Biso   1.000  N
  O29      1.0000 0.32810  0.13418  0.07682  Biso   1.000  O
  O30      1.0000 0.33040  0.18441  0.11431  Biso   1.000  O
  Cu16     1.0000 0.70497  0.84382  0.39934  Biso   1.000  Cu
  C181     1.0000 0.29190  0.66900  0.58579  Biso   1.000  C
  C182     1.0000 0.14250  0.73120  0.56910  Biso   1.000  C
  H121     1.0000 0.15900  0.74120  0.59090  Biso   1.000  H
  C183     1.0000 0.05840  0.75380  0.54470  Biso   1.000  C
  H122     1.0000 0.01830  0.77860  0.55040  Biso   1.000  H
  C184     1.0000 0.03410  0.73910  0.51174  Biso   1.000  C
  C185     1.0000 0.09750  0.70180  0.50344  Biso   1.000  C
  H123     1.0000 0.08440  0.69200  0.48140  Biso   1.000  H
  C186     1.0000 0.18020  0.67910  0.52800  Biso   1.000  C
  H124     1.0000 0.22050  0.65420  0.52240  Biso   1.000  H
  C187     1.0000 0.20190  0.69370  0.56050  Biso   1.000  C
  C188     1.0000 0.80760  0.82210  0.46743  Biso   1.000  C
  H125     1.0000 0.76660  0.84700  0.47270  Biso   1.000  H
  C189     1.0000 0.88620  0.80100  0.49260  Biso   1.000  C
  H126     1.0000 0.89950  0.81180  0.51430  Biso   1.000  H
  C190     1.0000 0.94610  0.76320  0.48561  Biso   1.000  C
  C191     1.0000 0.91960  0.74830  0.45250  Biso   1.000  C
  H127     1.0000 0.95440  0.72290  0.44690  Biso   1.000  H
  C192     1.0000 0.84180  0.77150  0.42860  Biso   1.000  C
  H128     1.0000 0.82630  0.76150  0.40680  Biso   1.000  H
  N16      1.0000 0.78690  0.80833  0.43549  Biso   1.000  N
  O31      1.0000 0.32810  0.63418  0.57682  Biso   1.000  O
  O32      1.0000 0.33040  0.68441  0.61431  Biso   1.000  O
  Cu17     1.0000 0.79503  0.59382  0.64934  Biso   1.000  Cu
  C193     1.0000 0.20810  0.41900  0.83579  Biso   1.000  C
  C194     1.0000 0.35750  0.48120  0.81910  Biso   1.000  C
  H129     1.0000 0.34100  0.49120  0.84090  Biso   1.000  H
  C195     1.0000 0.44160  0.50380  0.79470  Biso   1.000  C
  H130     1.0000 0.48170  0.52860  0.80040  Biso   1.000  H
  C196     1.0000 0.46590  0.48910  0.76174  Biso   1.000  C
  C197     1.0000 0.40250  0.45180  0.75344  Biso   1.000  C
  H131     1.0000 0.41560  0.44200  0.73140  Biso   1.000  H
  C198     1.0000 0.31980  0.42910  0.77800  Biso   1.000  C
  H132     1.0000 0.27950  0.40420  0.77240  Biso   1.000  H
  C199     1.0000 0.29810  0.44370  0.81050  Biso   1.000  C
  C200     1.0000 0.69240  0.57210  0.71743  Biso   1.000  C
  H133     1.0000 0.73340  0.59700  0.72270  Biso   1.000  H
  C201     1.0000 0.61380  0.55100  0.74260  Biso   1.000  C
  H134     1.0000 0.60050  0.56180  0.76430  Biso   1.000  H
  C202     1.0000 0.55390  0.51320  0.73561  Biso   1.000  C
  C203     1.0000 0.58040  0.49830  0.70250  Biso   1.000  C
  H135     1.0000 0.54560  0.47290  0.69690  Biso   1.000  H
  C204     1.0000 0.65820  0.52150  0.67860  Biso   1.000  C
  H136     1.0000 0.67370  0.51150  0.65680  Biso   1.000  H
  N17      1.0000 0.71310  0.55833  0.68549  Biso   1.000  N
  O33      1.0000 0.17190  0.38418  0.82682  Biso   1.000  O
  O34      1.0000 0.16960  0.43441  0.86431  Biso   1.000  O
  Cu18     1.0000 0.79503  0.09382  0.14934  Biso   1.000  Cu
  C205     1.0000 0.20810  0.91900  0.33579  Biso   1.000  C
  C206     1.0000 0.35750  0.98120  0.31910  Biso   1.000  C
  H137     1.0000 0.34100  0.99120  0.34090  Biso   1.000  H
  C207     1.0000 0.44160  0.00380  0.29470  Biso   1.000  C
  H138     1.0000 0.48170  0.02860  0.30040  Biso   1.000  H
  C208     1.0000 0.46590  0.98910  0.26174  Biso   1.000  C
  C209     1.0000 0.40250  0.95180  0.25344  Biso   1.000  C
  H139     1.0000 0.41560  0.94200  0.23140  Biso   1.000  H
  C210     1.0000 0.31980  0.92910  0.27800  Biso   1.000  C
  H140     1.0000 0.27950  0.90420  0.27240  Biso   1.000  H
  C211     1.0000 0.29810  0.94370  0.31050  Biso   1.000  C
  C212     1.0000 0.69240  0.07210  0.21743  Biso   1.000  C
  H141     1.0000 0.73340  0.09700  0.22270  Biso   1.000  H
  C213     1.0000 0.61380  0.05100  0.24260  Biso   1.000  C
  H142     1.0000 0.60050  0.06180  0.26430  Biso   1.000  H
  C214     1.0000 0.55390  0.01320  0.23561  Biso   1.000  C
  C215     1.0000 0.58040  0.99830  0.20250  Biso   1.000  C
  H143     1.0000 0.54560  0.97290  0.19690  Biso   1.000  H
  C216     1.0000 0.65820  0.02150  0.17860  Biso   1.000  C
  H144     1.0000 0.67370  0.01150  0.15680  Biso   1.000  H
  N18      1.0000 0.71310  0.05833  0.18549  Biso   1.000  N
  O35      1.0000 0.17190  0.88418  0.32682  Biso   1.000  O
  O36      1.0000 0.16960  0.93441  0.36431  Biso   1.000  O
  Cu19     1.0000 0.29503  0.59382  0.14934  Biso   1.000  Cu
  C217     1.0000 0.70810  0.41900  0.33579  Biso   1.000  C
  C218     1.0000 0.85750  0.48120  0.31910  Biso   1.000  C
  H145     1.0000 0.84100  0.49120  0.34090  Biso   1.000  H
  C219     1.0000 0.94160  0.50380  0.29470  Biso   1.000  C
  H146     1.0000 0.98170  0.52860  0.30040  Biso   1.000  H
  C220     1.0000 0.96590  0.48910  0.26174  Biso   1.000  C
  C221     1.0000 0.90250  0.45180  0.25344  Biso   1.000  C
  H147     1.0000 0.91560  0.44200  0.23140  Biso   1.000  H
  C222     1.0000 0.81980  0.42910  0.27800  Biso   1.000  C
  H148     1.0000 0.77950  0.40420  0.27240  Biso   1.000  H
  C223     1.0000 0.79810  0.44370  0.31050  Biso   1.000  C
  C224     1.0000 0.19240  0.57210  0.21743  Biso   1.000  C
  H149     1.0000 0.23340  0.59700  0.22270  Biso   1.000  H
  C225     1.0000 0.11380  0.55100  0.24260  Biso   1.000  C
  H150     1.0000 0.10050  0.56180  0.26430  Biso   1.000  H
  C226     1.0000 0.05390  0.51320  0.23561  Biso   1.000  C
  C227     1.0000 0.08040  0.49830  0.20250  Biso   1.000  C
  H151     1.0000 0.04560  0.47290  0.19690  Biso   1.000  H
  C228     1.0000 0.15820  0.52150  0.17860  Biso   1.000  C
  H152     1.0000 0.17370  0.51150  0.15680  Biso   1.000  H
  N19      1.0000 0.21310  0.55833  0.18549  Biso   1.000  N
  O37      1.0000 0.67190  0.38418  0.32682  Biso   1.000  O
  O38      1.0000 0.66960  0.43441  0.36431  Biso   1.000  O
  Cu20     1.0000 0.29503  0.09382  0.64934  Biso   1.000  Cu
  C229     1.0000 0.70810  0.91900  0.83579  Biso   1.000  C
  C230     1.0000 0.85750  0.98120  0.81910  Biso   1.000  C
  H153     1.0000 0.84100  0.99120  0.84090  Biso   1.000  H
  C231     1.0000 0.94160  0.00380  0.79470  Biso   1.000  C
  H154     1.0000 0.98170  0.02860  0.80040  Biso   1.000  H
  C232     1.0000 0.96590  0.98910  0.76174  Biso   1.000  C
  C233     1.0000 0.90250  0.95180  0.75344  Biso   1.000  C
  H155     1.0000 0.91560  0.94200  0.73140  Biso   1.000  H
  C234     1.0000 0.81980  0.92910  0.77800  Biso   1.000  C
  H156     1.0000 0.77950  0.90420  0.77240  Biso   1.000  H
  C235     1.0000 0.79810  0.94370  0.81050  Biso   1.000  C
  C236     1.0000 0.19240  0.07210  0.71743  Biso   1.000  C
  H157     1.0000 0.23340  0.09700  0.72270  Biso   1.000  H
  C237     1.0000 0.11380  0.05100  0.74260  Biso   1.000  C
  H158     1.0000 0.10050  0.06180  0.76430  Biso   1.000  H
  C238     1.0000 0.05390  0.01320  0.73561  Biso   1.000  C
  C239     1.0000 0.08040  0.99830  0.70250  Biso   1.000  C
  H159     1.0000 0.04560  0.97290  0.69690  Biso   1.000  H
  C240     1.0000 0.15820  0.02150  0.67860  Biso   1.000  C
  H160     1.0000 0.17370  0.01150  0.65680  Biso   1.000  H
  N20      1.0000 0.21310  0.05833  0.68549  Biso   1.000  N
  O39      1.0000 0.67190  0.88418  0.82682  Biso   1.000  O
  O40      1.0000 0.66960  0.93441  0.86431  Biso   1.000  O
  Cu21     1.0000 0.45497  0.65618  0.64934  Biso   1.000  Cu
  C241     1.0000 0.04190  0.83100  0.83579  Biso   1.000  C
  C242     1.0000 0.89250  0.76880  0.81910  Biso   1.000  C
  H161     1.0000 0.90900  0.75880  0.84090  Biso   1.000  H
  C243     1.0000 0.80840  0.74620  0.79470  Biso   1.000  C
  H162     1.0000 0.76830  0.72140  0.80040  Biso   1.000  H
  C244     1.0000 0.78410  0.76090  0.76174  Biso   1.000  C
  C245     1.0000 0.84750  0.79820  0.75344  Biso   1.000  C
  H163     1.0000 0.83440  0.80800  0.73140  Biso   1.000  H
  C246     1.0000 0.93020  0.82090  0.77800  Biso   1.000  C
  H164     1.0000 0.97050  0.84580  0.77240  Biso   1.000  H
  C247     1.0000 0.95190  0.80630  0.81050  Biso   1.000  C
  C248     1.0000 0.55760  0.67790  0.71743  Biso   1.000  C
  H165     1.0000 0.51660  0.65300  0.72270  Biso   1.000  H
  C249     1.0000 0.63620  0.69900  0.74260  Biso   1.000  C
  H166     1.0000 0.64950  0.68820  0.76430  Biso   1.000  H
  C250     1.0000 0.69610  0.73680  0.73561  Biso   1.000  C
  C251     1.0000 0.66960  0.75170  0.70250  Biso   1.000  C
  H167     1.0000 0.70440  0.77710  0.69690  Biso   1.000  H
  C252     1.0000 0.59180  0.72850  0.67860  Biso   1.000  C
  H168     1.0000 0.57630  0.73850  0.65680  Biso   1.000  H
  N21      1.0000 0.53690  0.69167  0.68549  Biso   1.000  N
  O41      1.0000 0.07810  0.86582  0.82682  Biso   1.000  O
  O42      1.0000 0.08040  0.81559  0.86431  Biso   1.000  O
  Cu22     1.0000 0.45497  0.15618  0.14934  Biso   1.000  Cu
  C253     1.0000 0.04190  0.33100  0.33579  Biso   1.000  C
  C254     1.0000 0.89250  0.26880  0.31910  Biso   1.000  C
  H169     1.0000 0.90900  0.25880  0.34090  Biso   1.000  H
  C255     1.0000 0.80840  0.24620  0.29470  Biso   1.000  C
  H170     1.0000 0.76830  0.22140  0.30040  Biso   1.000  H
  C256     1.0000 0.78410  0.26090  0.26174  Biso   1.000  C
  C257     1.0000 0.84750  0.29820  0.25344  Biso   1.000  C
  H171     1.0000 0.83440  0.30800  0.23140  Biso   1.000  H
  C258     1.0000 0.93020  0.32090  0.27800  Biso   1.000  C
  H172     1.0000 0.97050  0.34580  0.27240  Biso   1.000  H
  C259     1.0000 0.95190  0.30630  0.31050  Biso   1.000  C
  C260     1.0000 0.55760  0.17790  0.21743  Biso   1.000  C
  H173     1.0000 0.51660  0.15300  0.22270  Biso   1.000  H
  C261     1.0000 0.63620  0.19900  0.24260  Biso   1.000  C
  H174     1.0000 0.64950  0.18820  0.26430  Biso   1.000  H
  C262     1.0000 0.69610  0.23680  0.23561  Biso   1.000  C
  C263     1.0000 0.66960  0.25170  0.20250  Biso   1.000  C
  H175     1.0000 0.70440  0.27710  0.19690  Biso   1.000  H
  C264     1.0000 0.59180  0.22850  0.17860  Biso   1.000  C
  H176     1.0000 0.57630  0.23850  0.15680  Biso   1.000  H
  N22      1.0000 0.53690  0.19167  0.18549  Biso   1.000  N
  O43      1.0000 0.07810  0.36582  0.32682  Biso   1.000  O
  O44      1.0000 0.08040  0.31559  0.36431  Biso   1.000  O
  Cu23     1.0000 0.95497  0.65618  0.14934  Biso   1.000  Cu
  C265     1.0000 0.54190  0.83100  0.33579  Biso   1.000  C
  C266     1.0000 0.39250  0.76880  0.31910  Biso   1.000  C
  H177     1.0000 0.40900  0.75880  0.34090  Biso   1.000  H
  C267     1.0000 0.30840  0.74620  0.29470  Biso   1.000  C
  H178     1.0000 0.26830  0.72140  0.30040  Biso   1.000  H
  C268     1.0000 0.28410  0.76090  0.26174  Biso   1.000  C
  C269     1.0000 0.34750  0.79820  0.25344  Biso   1.000  C
  H179     1.0000 0.33440  0.80800  0.23140  Biso   1.000  H
  C270     1.0000 0.43020  0.82090  0.27800  Biso   1.000  C
  H180     1.0000 0.47050  0.84580  0.27240  Biso   1.000  H
  C271     1.0000 0.45190  0.80630  0.31050  Biso   1.000  C
  C272     1.0000 0.05760  0.67790  0.21743  Biso   1.000  C
  H181     1.0000 0.01660  0.65300  0.22270  Biso   1.000  H
  C273     1.0000 0.13620  0.69900  0.24260  Biso   1.000  C
  H182     1.0000 0.14950  0.68820  0.26430  Biso   1.000  H
  C274     1.0000 0.19610  0.73680  0.23561  Biso   1.000  C
  C275     1.0000 0.16960  0.75170  0.20250  Biso   1.000  C
  H183     1.0000 0.20440  0.77710  0.19690  Biso   1.000  H
  C276     1.0000 0.09180  0.72850  0.17860  Biso   1.000  C
  H184     1.0000 0.07630  0.73850  0.15680  Biso   1.000  H
  N23      1.0000 0.03690  0.69167  0.18549  Biso   1.000  N
  O45      1.0000 0.57810  0.86582  0.32682  Biso   1.000  O
  O46      1.0000 0.58040  0.81559  0.36431  Biso   1.000  O
  Cu24     1.0000 0.95497  0.15618  0.64934  Biso   1.000  Cu
  C277     1.0000 0.54190  0.33100  0.83579  Biso   1.000  C
  C278     1.0000 0.39250  0.26880  0.81910  Biso   1.000  C
  H185     1.0000 0.40900  0.25880  0.84090  Biso   1.000  H
  C279     1.0000 0.30840  0.24620  0.79470  Biso   1.000  C
  H186     1.0000 0.26830  0.22140  0.80040  Biso   1.000  H
  C280     1.0000 0.28410  0.26090  0.76174  Biso   1.000  C
  C281     1.0000 0.34750  0.29820  0.75344  Biso   1.000  C
  H187     1.0000 0.33440  0.30800  0.73140  Biso   1.000  H
  C282     1.0000 0.43020  0.32090  0.77800  Biso   1.000  C
  H188     1.0000 0.47050  0.34580  0.77240  Biso   1.000  H
  C283     1.0000 0.45190  0.30630  0.81050  Biso   1.000  C
  C284     1.0000 0.05760  0.17790  0.71743  Biso   1.000  C
  H189     1.0000 0.01660  0.15300  0.72270  Biso   1.000  H
  C285     1.0000 0.13620  0.19900  0.74260  Biso   1.000  C
  H190     1.0000 0.14950  0.18820  0.76430  Biso   1.000  H
  C286     1.0000 0.19610  0.23680  0.73561  Biso   1.000  C
  C287     1.0000 0.16960  0.25170  0.70250  Biso   1.000  C
  H191     1.0000 0.20440  0.27710  0.69690  Biso   1.000  H
  C288     1.0000 0.09180  0.22850  0.67860  Biso   1.000  C
  H192     1.0000 0.07630  0.23850  0.65680  Biso   1.000  H
  N24      1.0000 0.03690  0.19167  0.68549  Biso   1.000  N
  O47      1.0000 0.57810  0.36582  0.82682  Biso   1.000  O
  O48      1.0000 0.58040  0.31559  0.86431  Biso   1.000  O
  Cu25     1.0000 0.45497  0.59382  0.60066  Biso   1.000  Cu
  C289     1.0000 0.04190  0.41900  0.41421  Biso   1.000  C
  C290     1.0000 0.89250  0.48120  0.43090  Biso   1.000  C
  H193     1.0000 0.90900  0.49120  0.40910  Biso   1.000  H
  C291     1.0000 0.80840  0.50380  0.45530  Biso   1.000  C
  H194     1.0000 0.76830  0.52860  0.44960  Biso   1.000  H
  C292     1.0000 0.78410  0.48910  0.48826  Biso   1.000  C
  C293     1.0000 0.84750  0.45180  0.49656  Biso   1.000  C
  H195     1.0000 0.83440  0.44200  0.51860  Biso   1.000  H
  C294     1.0000 0.93020  0.42910  0.47200  Biso   1.000  C
  H196     1.0000 0.97050  0.40420  0.47760  Biso   1.000  H
  C295     1.0000 0.95190  0.44370  0.43950  Biso   1.000  C
  C296     1.0000 0.55760  0.57210  0.53257  Biso   1.000  C
  H197     1.0000 0.51660  0.59700  0.52730  Biso   1.000  H
  C297     1.0000 0.63620  0.55100  0.50740  Biso   1.000  C
  H198     1.0000 0.64950  0.56180  0.48570  Biso   1.000  H
  C298     1.0000 0.69610  0.51320  0.51439  Biso   1.000  C
  C299     1.0000 0.66960  0.49830  0.54750  Biso   1.000  C
  H199     1.0000 0.70440  0.47290  0.55310  Biso   1.000  H
  C300     1.0000 0.59180  0.52150  0.57140  Biso   1.000  C
  H200     1.0000 0.57630  0.51150  0.59320  Biso   1.000  H
  N25      1.0000 0.53690  0.55833  0.56451  Biso   1.000  N
  O49      1.0000 0.07810  0.38418  0.42318  Biso   1.000  O
  O50      1.0000 0.08040  0.43441  0.38569  Biso   1.000  O
  Cu26     1.0000 0.45497  0.09382  0.10066  Biso   1.000  Cu
  C301     1.0000 0.04190  0.91900  0.91421  Biso   1.000  C
  C302     1.0000 0.89250  0.98120  0.93090  Biso   1.000  C
  H201     1.0000 0.90900  0.99120  0.90910  Biso   1.000  H
  C303     1.0000 0.80840  0.00380  0.95530  Biso   1.000  C
  H202     1.0000 0.76830  0.02860  0.94960  Biso   1.000  H
  C304     1.0000 0.78410  0.98910  0.98826  Biso   1.000  C
  C305     1.0000 0.84750  0.95180  0.99656  Biso   1.000  C
  H203     1.0000 0.83440  0.94200  0.01860  Biso   1.000  H
  C306     1.0000 0.93020  0.92910  0.97200  Biso   1.000  C
  H204     1.0000 0.97050  0.90420  0.97760  Biso   1.000  H
  C307     1.0000 0.95190  0.94370  0.93950  Biso   1.000  C
  C308     1.0000 0.55760  0.07210  0.03257  Biso   1.000  C
  H205     1.0000 0.51660  0.09700  0.02730  Biso   1.000  H
  C309     1.0000 0.63620  0.05100  0.00740  Biso   1.000  C
  H206     1.0000 0.64950  0.06180  0.98570  Biso   1.000  H
  C310     1.0000 0.69610  0.01320  0.01439  Biso   1.000  C
  C311     1.0000 0.66960  0.99830  0.04750  Biso   1.000  C
  H207     1.0000 0.70440  0.97290  0.05310  Biso   1.000  H
  C312     1.0000 0.59180  0.02150  0.07140  Biso   1.000  C
  H208     1.0000 0.57630  0.01150  0.09320  Biso   1.000  H
  N26      1.0000 0.53690  0.05833  0.06451  Biso   1.000  N
  O51      1.0000 0.07810  0.88418  0.92318  Biso   1.000  O
  O52      1.0000 0.08040  0.93441  0.88569  Biso   1.000  O
  Cu27     1.0000 0.95497  0.59382  0.10066  Biso   1.000  Cu
  C313     1.0000 0.54190  0.41900  0.91421  Biso   1.000  C
  C314     1.0000 0.39250  0.48120  0.93090  Biso   1.000  C
  H209     1.0000 0.40900  0.49120  0.90910  Biso   1.000  H
  C315     1.0000 0.30840  0.50380  0.95530  Biso   1.000  C
  H210     1.0000 0.26830  0.52860  0.94960  Biso   1.000  H
  C316     1.0000 0.28410  0.48910  0.98826  Biso   1.000  C
  C317     1.0000 0.34750  0.45180  0.99656  Biso   1.000  C
  H211     1.0000 0.33440  0.44200  0.01860  Biso   1.000  H
  C318     1.0000 0.43020  0.42910  0.97200  Biso   1.000  C
  H212     1.0000 0.47050  0.40420  0.97760  Biso   1.000  H
  C319     1.0000 0.45190  0.44370  0.93950  Biso   1.000  C
  C320     1.0000 0.05760  0.57210  0.03257  Biso   1.000  C
  H213     1.0000 0.01660  0.59700  0.02730  Biso   1.000  H
  C321     1.0000 0.13620  0.55100  0.00740  Biso   1.000  C
  H214     1.0000 0.14950  0.56180  0.98570  Biso   1.000  H
  C322     1.0000 0.19610  0.51320  0.01439  Biso   1.000  C
  C323     1.0000 0.16960  0.49830  0.04750  Biso   1.000  C
  H215     1.0000 0.20440  0.47290  0.05310  Biso   1.000  H
  C324     1.0000 0.09180  0.52150  0.07140  Biso   1.000  C
  H216     1.0000 0.07630  0.51150  0.09320  Biso   1.000  H
  N27      1.0000 0.03690  0.55833  0.06451  Biso   1.000  N
  O53      1.0000 0.57810  0.38418  0.92318  Biso   1.000  O
  O54      1.0000 0.58040  0.43441  0.88569  Biso   1.000  O
  Cu28     1.0000 0.95497  0.09382  0.60066  Biso   1.000  Cu
  C325     1.0000 0.54190  0.91900  0.41421  Biso   1.000  C
  C326     1.0000 0.39250  0.98120  0.43090  Biso   1.000  C
  H217     1.0000 0.40900  0.99120  0.40910  Biso   1.000  H
  C327     1.0000 0.30840  0.00380  0.45530  Biso   1.000  C
  H218     1.0000 0.26830  0.02860  0.44960  Biso   1.000  H
  C328     1.0000 0.28410  0.98910  0.48826  Biso   1.000  C
  C329     1.0000 0.34750  0.95180  0.49656  Biso   1.000  C
  H219     1.0000 0.33440  0.94200  0.51860  Biso   1.000  H
  C330     1.0000 0.43020  0.92910  0.47200  Biso   1.000  C
  H220     1.0000 0.47050  0.90420  0.47760  Biso   1.000  H
  C331     1.0000 0.45190  0.94370  0.43950  Biso   1.000  C
  C332     1.0000 0.05760  0.07210  0.53257  Biso   1.000  C
  H221     1.0000 0.01660  0.09700  0.52730  Biso   1.000  H
  C333     1.0000 0.13620  0.05100  0.50740  Biso   1.000  C
  H222     1.0000 0.14950  0.06180  0.48570  Biso   1.000  H
  C334     1.0000 0.19610  0.01320  0.51439  Biso   1.000  C
  C335     1.0000 0.16960  0.99830  0.54750  Biso   1.000  C
  H223     1.0000 0.20440  0.97290  0.55310  Biso   1.000  H
  C336     1.0000 0.09180  0.02150  0.57140  Biso   1.000  C
  H224     1.0000 0.07630  0.01150  0.59320  Biso   1.000  H
  N28      1.0000 0.03690  0.05833  0.56451  Biso   1.000  N
  O55      1.0000 0.57810  0.88418  0.42318  Biso   1.000  O
  O56      1.0000 0.58040  0.93441  0.38569  Biso   1.000  O
  Cu29     1.0000 0.79503  0.65618  0.60066  Biso   1.000  Cu
  C337     1.0000 0.20810  0.83100  0.41421  Biso   1.000  C
  C338     1.0000 0.35750  0.76880  0.43090  Biso   1.000  C
  H225     1.0000 0.34100  0.75880  0.40910  Biso   1.000  H
  C339     1.0000 0.44160  0.74620  0.45530  Biso   1.000  C
  H226     1.0000 0.48170  0.72140  0.44960  Biso   1.000  H
  C340     1.0000 0.46590  0.76090  0.48826  Biso   1.000  C
  C341     1.0000 0.40250  0.79820  0.49656  Biso   1.000  C
  H227     1.0000 0.41560  0.80800  0.51860  Biso   1.000  H
  C342     1.0000 0.31980  0.82090  0.47200  Biso   1.000  C
  H228     1.0000 0.27950  0.84580  0.47760  Biso   1.000  H
  C343     1.0000 0.29810  0.80630  0.43950  Biso   1.000  C
  C344     1.0000 0.69240  0.67790  0.53257  Biso   1.000  C
  H229     1.0000 0.73340  0.65300  0.52730  Biso   1.000  H
  C345     1.0000 0.61380  0.69900  0.50740  Biso   1.000  C
  H230     1.0000 0.60050  0.68820  0.48570  Biso   1.000  H
  C346     1.0000 0.55390  0.73680  0.51439  Biso   1.000  C
  C347     1.0000 0.58040  0.75170  0.54750  Biso   1.000  C
  H231     1.0000 0.54560  0.77710  0.55310  Biso   1.000  H
  C348     1.0000 0.65820  0.72850  0.57140  Biso   1.000  C
  H232     1.0000 0.67370  0.73850  0.59320  Biso   1.000  H
  N29      1.0000 0.71310  0.69167  0.56451  Biso   1.000  N
  O57      1.0000 0.17190  0.86582  0.42318  Biso   1.000  O
  O58      1.0000 0.16960  0.81559  0.38569  Biso   1.000  O
  Cu30     1.0000 0.79503  0.15618  0.10066  Biso   1.000  Cu
  C349     1.0000 0.20810  0.33100  0.91421  Biso   1.000  C
  C350     1.0000 0.35750  0.26880  0.93090  Biso   1.000  C
  H233     1.0000 0.34100  0.25880  0.90910  Biso   1.000  H
  C351     1.0000 0.44160  0.24620  0.95530  Biso   1.000  C
  H234     1.0000 0.48170  0.22140  0.94960  Biso   1.000  H
  C352     1.0000 0.46590  0.26090  0.98826  Biso   1.000  C
  C353     1.0000 0.40250  0.29820  0.99656  Biso   1.000  C
  H235     1.0000 0.41560  0.30800  0.01860  Biso   1.000  H
  C354     1.0000 0.31980  0.32090  0.97200  Biso   1.000  C
  H236     1.0000 0.27950  0.34580  0.97760  Biso   1.000  H
  C355     1.0000 0.29810  0.30630  0.93950  Biso   1.000  C
  C356     1.0000 0.69240  0.17790  0.03257  Biso   1.000  C
  H237     1.0000 0.73340  0.15300  0.02730  Biso   1.000  H
  C357     1.0000 0.61380  0.19900  0.00740  Biso   1.000  C
  H238     1.0000 0.60050  0.18820  0.98570  Biso   1.000  H
  C358     1.0000 0.55390  0.23680  0.01439  Biso   1.000  C
  C359     1.0000 0.58040  0.25170  0.04750  Biso   1.000  C
  H239     1.0000 0.54560  0.27710  0.05310  Biso   1.000  H
  C360     1.0000 0.65820  0.22850  0.07140  Biso   1.000  C
  H240     1.0000 0.67370  0.23850  0.09320  Biso   1.000  H
  N30      1.0000 0.71310  0.19167  0.06451  Biso   1.000  N
  O59      1.0000 0.17190  0.36582  0.92318  Biso   1.000  O
  O60      1.0000 0.16960  0.31559  0.88569  Biso   1.000  O
  Cu31     1.0000 0.29503  0.65618  0.10066  Biso   1.000  Cu
  C361     1.0000 0.70810  0.83100  0.91421  Biso   1.000  C
  C362     1.0000 0.85750  0.76880  0.93090  Biso   1.000  C
  H241     1.0000 0.84100  0.75880  0.90910  Biso   1.000  H
  C363     1.0000 0.94160  0.74620  0.95530  Biso   1.000  C
  H242     1.0000 0.98170  0.72140  0.94960  Biso   1.000  H
  C364     1.0000 0.96590  0.76090  0.98826  Biso   1.000  C
  C365     1.0000 0.90250  0.79820  0.99656  Biso   1.000  C
  H243     1.0000 0.91560  0.80800  0.01860  Biso   1.000  H
  C366     1.0000 0.81980  0.82090  0.97200  Biso   1.000  C
  H244     1.0000 0.77950  0.84580  0.97760  Biso   1.000  H
  C367     1.0000 0.79810  0.80630  0.93950  Biso   1.000  C
  C368     1.0000 0.19240  0.67790  0.03257  Biso   1.000  C
  H245     1.0000 0.23340  0.65300  0.02730  Biso   1.000  H
  C369     1.0000 0.11380  0.69900  0.00740  Biso   1.000  C
  H246     1.0000 0.10050  0.68820  0.98570  Biso   1.000  H
  C370     1.0000 0.05390  0.73680  0.01439  Biso   1.000  C
  C371     1.0000 0.08040  0.75170  0.04750  Biso   1.000  C
  H247     1.0000 0.04560  0.77710  0.05310  Biso   1.000  H
  C372     1.0000 0.15820  0.72850  0.07140  Biso   1.000  C
  H248     1.0000 0.17370  0.73850  0.09320  Biso   1.000  H
  N31      1.0000 0.21310  0.69167  0.06451  Biso   1.000  N
  O61      1.0000 0.67190  0.86582  0.92318  Biso   1.000  O
  O62      1.0000 0.66960  0.81559  0.88569  Biso   1.000  O
  Cu32     1.0000 0.29503  0.15618  0.60066  Biso   1.000  Cu
  C373     1.0000 0.70810  0.33100  0.41421  Biso   1.000  C
  C374     1.0000 0.85750  0.26880  0.43090  Biso   1.000  C
  H249     1.0000 0.84100  0.25880  0.40910  Biso   1.000  H
  C375     1.0000 0.94160  0.24620  0.45530  Biso   1.000  C
  H250     1.0000 0.98170  0.22140  0.44960  Biso   1.000  H
  C376     1.0000 0.96590  0.26090  0.48826  Biso   1.000  C
  C377     1.0000 0.90250  0.29820  0.49656  Biso   1.000  C
  H251     1.0000 0.91560  0.30800  0.51860  Biso   1.000  H
  C378     1.0000 0.81980  0.32090  0.47200  Biso   1.000  C
  H252     1.0000 0.77950  0.34580  0.47760  Biso   1.000  H
  C379     1.0000 0.79810  0.30630  0.43950  Biso   1.000  C
  C380     1.0000 0.19240  0.17790  0.53257  Biso   1.000  C
  H253     1.0000 0.23340  0.15300  0.52730  Biso   1.000  H
  C381     1.0000 0.11380  0.19900  0.50740  Biso   1.000  C
  H254     1.0000 0.10050  0.18820  0.48570  Biso   1.000  H
  C382     1.0000 0.05390  0.23680  0.51439  Biso   1.000  C
  C383     1.0000 0.08040  0.25170  0.54750  Biso   1.000  C
  H255     1.0000 0.04560  0.27710  0.55310  Biso   1.000  H
  C384     1.0000 0.15820  0.22850  0.57140  Biso   1.000  C
  H256     1.0000 0.17370  0.23850  0.59320  Biso   1.000  H
  N32      1.0000 0.21310  0.19167  0.56451  Biso   1.000  N
  O63      1.0000 0.67190  0.36582  0.42318  Biso   1.000  O
  O64      1.0000 0.66960  0.31559  0.38569  Biso   1.000  O
  O65      1.0000 0.37500  0.37500  0.37500  Biso   1.000  O
  O66      1.0000 0.37500  0.87500  0.87500  Biso   1.000  O
  O67      1.0000 0.87500  0.37500  0.87500  Biso   1.000  O
  O68      1.0000 0.87500  0.87500  0.37500  Biso   1.000  O
  O69      1.0000 0.62500  0.62500  0.62500  Biso   1.000  O
  O70      1.0000 0.62500  0.12500  0.12500  Biso   1.000  O
  O71      1.0000 0.12500  0.62500  0.12500  Biso   1.000  O
  O72      1.0000 0.12500  0.12500  0.62500  Biso   1.000  O
