data_XAGDAL_clean
_audit_creation_date              2015-05-15
_audit_creation_method            'Materials Studio'
_symmetry_space_group_name_H-M    'P1'
_symmetry_Int_Tables_number       1
_symmetry_cell_setting            triclinic
loop_
_symmetry_equiv_pos_as_xyz
  x,y,z
_cell_length_a                    20.7130
_cell_length_b                    20.7130
_cell_length_c                    20.7130
_cell_angle_alpha                 90.0000
_cell_angle_beta                  90.0000
_cell_angle_gamma                 90.0000
loop_
_atom_site_label
_atom_site_type_symbol
_atom_site_fract_x
_atom_site_fract_y
_atom_site_fract_z
_atom_site_U_iso_or_equiv
_atom_site_adp_type
_atom_site_occupancy
Zn1    Zn    0.60043   0.85257   0.82660   0.01267  Uiso   1.00
Zn2    Zn    0.44045   0.73624   0.99184   0.01267  Uiso   1.00
Zn3    Zn    0.84851   0.88132   0.96617   0.01267  Uiso   1.00
H4     H     0.61378   0.69139   0.87572   0.01267  Uiso   1.00
H5     H     0.65129   0.69050   0.00181   0.01267  Uiso   1.00
H6     H     0.68746   0.79784   0.00799   0.01267  Uiso   1.00
H7     H     0.76559   0.79757   0.88305   0.01267  Uiso   1.00
C8     C     0.63010   0.73310   0.90770   0.01267  Uiso   1.00
C9     C     0.57080   0.76580   0.93720   0.01267  Uiso   1.00
C10    C     0.67760   0.70840   0.95690   0.01267  Uiso   1.00
C11    C     0.71640   0.65340   0.92590   0.01267  Uiso   1.00
C12    C     0.71710   0.76810   0.97240   0.01267  Uiso   1.00
C13    C     0.78190   0.75480   0.00480   0.01267  Uiso   1.00
C14    C     0.71740   0.80560   0.90840   0.01267  Uiso   1.00
C15    C     0.70660   0.87780   0.91720   0.01267  Uiso   1.00
O16    O     0.66630   0.77870   0.86930   0.01267  Uiso   1.00
O17    O     0.55180   0.81730   0.91320   0.01267  Uiso   1.00
O18    O     0.54290   0.73650   0.98250   0.01267  Uiso   1.00
O19    O     0.69750   0.59860   0.93720   0.01267  Uiso   1.00
O20    O     0.76200   0.66680   0.88820   0.01267  Uiso   1.00
O21    O     0.77890   0.71770   0.05140   0.01267  Uiso   1.00
O22    O     0.83170   0.78290   0.98570   0.01267  Uiso   1.00
O23    O     0.74810   0.90700   0.94990   0.01267  Uiso   1.00
O24    O     0.65730   0.90430   0.89340   0.01267  Uiso   1.00
O25    O     0.53520   0.92350   0.82700   0.01267  Uiso   1.00
O26    O     0.44330   0.64250   0.02320   0.01267  Uiso   1.00
H27    H     0.97492   0.44330   0.64250   0.01267  Uiso   1.00
H28    H     0.02320   0.49158   0.64250   0.01267  Uiso   1.00
H29    H     0.18158   0.36670   0.63330   0.01267  Uiso   1.00
Zn30   Zn    0.82660   0.60043   0.85257   0.01267  Uiso   1.00
Zn31   Zn    0.99184   0.44045   0.73624   0.01267  Uiso   1.00
Zn32   Zn    0.96617   0.84851   0.88132   0.01267  Uiso   1.00
H33    H     0.87572   0.61378   0.69139   0.01267  Uiso   1.00
H34    H     0.00181   0.65129   0.69050   0.01267  Uiso   1.00
H35    H     0.00799   0.68746   0.79784   0.01267  Uiso   1.00
H36    H     0.88305   0.76559   0.79757   0.01267  Uiso   1.00
C37    C     0.90770   0.63010   0.73310   0.01267  Uiso   1.00
C38    C     0.93720   0.57080   0.76580   0.01267  Uiso   1.00
C39    C     0.95690   0.67760   0.70840   0.01267  Uiso   1.00
C40    C     0.92590   0.71640   0.65340   0.01267  Uiso   1.00
C41    C     0.97240   0.71710   0.76810   0.01267  Uiso   1.00
C42    C     0.00480   0.78190   0.75480   0.01267  Uiso   1.00
C43    C     0.90840   0.71740   0.80560   0.01267  Uiso   1.00
C44    C     0.91720   0.70660   0.87780   0.01267  Uiso   1.00
O45    O     0.86930   0.66630   0.77870   0.01267  Uiso   1.00
O46    O     0.91320   0.55180   0.81730   0.01267  Uiso   1.00
O47    O     0.98250   0.54290   0.73650   0.01267  Uiso   1.00
O48    O     0.93720   0.69750   0.59860   0.01267  Uiso   1.00
O49    O     0.88820   0.76200   0.66680   0.01267  Uiso   1.00
O50    O     0.05140   0.77890   0.71770   0.01267  Uiso   1.00
O51    O     0.98570   0.83170   0.78290   0.01267  Uiso   1.00
O52    O     0.94990   0.74810   0.90700   0.01267  Uiso   1.00
O53    O     0.89340   0.65730   0.90430   0.01267  Uiso   1.00
O54    O     0.82700   0.53520   0.92350   0.01267  Uiso   1.00
O55    O     0.02320   0.44330   0.64250   0.01267  Uiso   1.00
H56    H     0.64250   0.97492   0.44330   0.01267  Uiso   1.00
H57    H     0.64250   0.02320   0.49158   0.01267  Uiso   1.00
H58    H     0.63330   0.18158   0.36670   0.01267  Uiso   1.00
Zn59   Zn    0.85257   0.82660   0.60043   0.01267  Uiso   1.00
Zn60   Zn    0.73624   0.99184   0.44045   0.01267  Uiso   1.00
Zn61   Zn    0.88132   0.96617   0.84851   0.01267  Uiso   1.00
H62    H     0.69139   0.87572   0.61378   0.01267  Uiso   1.00
H63    H     0.69050   0.00181   0.65129   0.01267  Uiso   1.00
H64    H     0.79784   0.00799   0.68746   0.01267  Uiso   1.00
H65    H     0.79757   0.88305   0.76559   0.01267  Uiso   1.00
C66    C     0.73310   0.90770   0.63010   0.01267  Uiso   1.00
C67    C     0.76580   0.93720   0.57080   0.01267  Uiso   1.00
C68    C     0.70840   0.95690   0.67760   0.01267  Uiso   1.00
C69    C     0.65340   0.92590   0.71640   0.01267  Uiso   1.00
C70    C     0.76810   0.97240   0.71710   0.01267  Uiso   1.00
C71    C     0.75480   0.00480   0.78190   0.01267  Uiso   1.00
C72    C     0.80560   0.90840   0.71740   0.01267  Uiso   1.00
C73    C     0.87780   0.91720   0.70660   0.01267  Uiso   1.00
O74    O     0.77870   0.86930   0.66630   0.01267  Uiso   1.00
O75    O     0.81730   0.91320   0.55180   0.01267  Uiso   1.00
O76    O     0.73650   0.98250   0.54290   0.01267  Uiso   1.00
O77    O     0.59860   0.93720   0.69750   0.01267  Uiso   1.00
O78    O     0.66680   0.88820   0.76200   0.01267  Uiso   1.00
O79    O     0.71770   0.05140   0.77890   0.01267  Uiso   1.00
O80    O     0.78290   0.98570   0.83170   0.01267  Uiso   1.00
O81    O     0.90700   0.94990   0.74810   0.01267  Uiso   1.00
O82    O     0.90430   0.89340   0.65730   0.01267  Uiso   1.00
O83    O     0.92350   0.82700   0.53520   0.01267  Uiso   1.00
O84    O     0.64250   0.02320   0.44330   0.01267  Uiso   1.00
H85    H     0.44330   0.64250   0.97492   0.01267  Uiso   1.00
H86    H     0.49158   0.64250   0.02320   0.01267  Uiso   1.00
O87    O     0.86670   0.86670   0.86670   0.01267  Uiso   1.00
Zn88   Zn    0.89957   0.14743   0.32660   0.01267  Uiso   1.00
Zn89   Zn    0.05955   0.26376   0.49184   0.01267  Uiso   1.00
Zn90   Zn    0.65149   0.11868   0.46617   0.01267  Uiso   1.00
H91    H     0.88622   0.30861   0.37572   0.01267  Uiso   1.00
H92    H     0.84871   0.30950   0.50181   0.01267  Uiso   1.00
H93    H     0.81254   0.20216   0.50799   0.01267  Uiso   1.00
H94    H     0.73441   0.20243   0.38305   0.01267  Uiso   1.00
C95    C     0.86990   0.26690   0.40770   0.01267  Uiso   1.00
C96    C     0.92920   0.23420   0.43720   0.01267  Uiso   1.00
C97    C     0.82240   0.29160   0.45690   0.01267  Uiso   1.00
C98    C     0.78360   0.34660   0.42590   0.01267  Uiso   1.00
C99    C     0.78290   0.23190   0.47240   0.01267  Uiso   1.00
C100   C     0.71810   0.24520   0.50480   0.01267  Uiso   1.00
C101   C     0.78260   0.19440   0.40840   0.01267  Uiso   1.00
C102   C     0.79340   0.12220   0.41720   0.01267  Uiso   1.00
O103   O     0.83370   0.22130   0.36930   0.01267  Uiso   1.00
O104   O     0.94820   0.18270   0.41320   0.01267  Uiso   1.00
O105   O     0.95710   0.26350   0.48250   0.01267  Uiso   1.00
O106   O     0.80250   0.40140   0.43720   0.01267  Uiso   1.00
O107   O     0.73800   0.33320   0.38820   0.01267  Uiso   1.00
O108   O     0.72110   0.28230   0.55140   0.01267  Uiso   1.00
O109   O     0.66830   0.21710   0.48570   0.01267  Uiso   1.00
O110   O     0.75190   0.09300   0.44990   0.01267  Uiso   1.00
O111   O     0.84270   0.09570   0.39340   0.01267  Uiso   1.00
O112   O     0.96480   0.07650   0.32700   0.01267  Uiso   1.00
O113   O     0.05670   0.35750   0.52320   0.01267  Uiso   1.00
H114   H     0.52508   0.55670   0.14250   0.01267  Uiso   1.00
H115   H     0.47680   0.50842   0.14250   0.01267  Uiso   1.00
H116   H     0.31842   0.63330   0.13330   0.01267  Uiso   1.00
Zn117  Zn    0.67340   0.39957   0.35257   0.01267  Uiso   1.00
Zn118  Zn    0.50816   0.55955   0.23624   0.01267  Uiso   1.00
Zn119  Zn    0.53383   0.15149   0.38132   0.01267  Uiso   1.00
H120   H     0.62428   0.38622   0.19139   0.01267  Uiso   1.00
H121   H     0.49819   0.34871   0.19050   0.01267  Uiso   1.00
H122   H     0.49201   0.31254   0.29784   0.01267  Uiso   1.00
H123   H     0.61695   0.23441   0.29757   0.01267  Uiso   1.00
C124   C     0.59230   0.36990   0.23310   0.01267  Uiso   1.00
C125   C     0.56280   0.42920   0.26580   0.01267  Uiso   1.00
C126   C     0.54310   0.32240   0.20840   0.01267  Uiso   1.00
C127   C     0.57410   0.28360   0.15340   0.01267  Uiso   1.00
C128   C     0.52760   0.28290   0.26810   0.01267  Uiso   1.00
C129   C     0.49520   0.21810   0.25480   0.01267  Uiso   1.00
C130   C     0.59160   0.28260   0.30560   0.01267  Uiso   1.00
C131   C     0.58280   0.29340   0.37780   0.01267  Uiso   1.00
O132   O     0.63070   0.33370   0.27870   0.01267  Uiso   1.00
O133   O     0.58680   0.44820   0.31730   0.01267  Uiso   1.00
O134   O     0.51750   0.45710   0.23650   0.01267  Uiso   1.00
O135   O     0.56280   0.30250   0.09860   0.01267  Uiso   1.00
O136   O     0.61180   0.23800   0.16680   0.01267  Uiso   1.00
O137   O     0.44860   0.22110   0.21770   0.01267  Uiso   1.00
O138   O     0.51430   0.16830   0.28290   0.01267  Uiso   1.00
O139   O     0.55010   0.25190   0.40700   0.01267  Uiso   1.00
O140   O     0.60660   0.34270   0.40430   0.01267  Uiso   1.00
O141   O     0.67300   0.46480   0.42350   0.01267  Uiso   1.00
O142   O     0.47680   0.55670   0.14250   0.01267  Uiso   1.00
H143   H     0.85750   0.02508   0.94330   0.01267  Uiso   1.00
H144   H     0.85750   0.97680   0.99158   0.01267  Uiso   1.00
H145   H     0.86670   0.81842   0.86670   0.01267  Uiso   1.00
Zn146  Zn    0.64743   0.17340   0.10043   0.01267  Uiso   1.00
Zn147  Zn    0.76376   0.00816   0.94045   0.01267  Uiso   1.00
Zn148  Zn    0.61868   0.03383   0.34851   0.01267  Uiso   1.00
H149   H     0.80861   0.12428   0.11378   0.01267  Uiso   1.00
H150   H     0.80950   0.99819   0.15129   0.01267  Uiso   1.00
H151   H     0.70216   0.99201   0.18746   0.01267  Uiso   1.00
H152   H     0.70243   0.11695   0.26559   0.01267  Uiso   1.00
C153   C     0.76690   0.09230   0.13010   0.01267  Uiso   1.00
C154   C     0.73420   0.06280   0.07080   0.01267  Uiso   1.00
C155   C     0.79160   0.04310   0.17760   0.01267  Uiso   1.00
C156   C     0.84660   0.07410   0.21640   0.01267  Uiso   1.00
C157   C     0.73190   0.02760   0.21710   0.01267  Uiso   1.00
C158   C     0.74520   0.99520   0.28190   0.01267  Uiso   1.00
C159   C     0.69440   0.09160   0.21740   0.01267  Uiso   1.00
C160   C     0.62220   0.08280   0.20660   0.01267  Uiso   1.00
O161   O     0.72130   0.13070   0.16630   0.01267  Uiso   1.00
O162   O     0.68270   0.08680   0.05180   0.01267  Uiso   1.00
O163   O     0.76350   0.01750   0.04290   0.01267  Uiso   1.00
O164   O     0.90140   0.06280   0.19750   0.01267  Uiso   1.00
O165   O     0.83320   0.11180   0.26200   0.01267  Uiso   1.00
O166   O     0.78230   0.94860   0.27890   0.01267  Uiso   1.00
O167   O     0.71710   0.01430   0.33170   0.01267  Uiso   1.00
O168   O     0.59300   0.05010   0.24810   0.01267  Uiso   1.00
O169   O     0.59570   0.10660   0.15730   0.01267  Uiso   1.00
O170   O     0.57650   0.17300   0.03520   0.01267  Uiso   1.00
O171   O     0.85750   0.97680   0.94330   0.01267  Uiso   1.00
H172   H     0.05670   0.35750   0.47492   0.01267  Uiso   1.00
H173   H     0.00842   0.35750   0.52320   0.01267  Uiso   1.00
O174   O     0.63330   0.13330   0.36670   0.01267  Uiso   1.00
Zn175  Zn    0.39957   0.35257   0.67340   0.01267  Uiso   1.00
Zn176  Zn    0.55955   0.23624   0.50816   0.01267  Uiso   1.00
Zn177  Zn    0.15149   0.38132   0.53383   0.01267  Uiso   1.00
H178   H     0.38622   0.19139   0.62428   0.01267  Uiso   1.00
H179   H     0.34871   0.19050   0.49819   0.01267  Uiso   1.00
H180   H     0.31254   0.29784   0.49201   0.01267  Uiso   1.00
H181   H     0.23441   0.29757   0.61695   0.01267  Uiso   1.00
C182   C     0.36990   0.23310   0.59230   0.01267  Uiso   1.00
C183   C     0.42920   0.26580   0.56280   0.01267  Uiso   1.00
C184   C     0.32240   0.20840   0.54310   0.01267  Uiso   1.00
C185   C     0.28360   0.15340   0.57410   0.01267  Uiso   1.00
C186   C     0.28290   0.26810   0.52760   0.01267  Uiso   1.00
C187   C     0.21810   0.25480   0.49520   0.01267  Uiso   1.00
C188   C     0.28260   0.30560   0.59160   0.01267  Uiso   1.00
C189   C     0.29340   0.37780   0.58280   0.01267  Uiso   1.00
O190   O     0.33370   0.27870   0.63070   0.01267  Uiso   1.00
O191   O     0.44820   0.31730   0.58680   0.01267  Uiso   1.00
O192   O     0.45710   0.23650   0.51750   0.01267  Uiso   1.00
O193   O     0.30250   0.09860   0.56280   0.01267  Uiso   1.00
O194   O     0.23800   0.16680   0.61180   0.01267  Uiso   1.00
O195   O     0.22110   0.21770   0.44860   0.01267  Uiso   1.00
O196   O     0.16830   0.28290   0.51430   0.01267  Uiso   1.00
O197   O     0.25190   0.40700   0.55010   0.01267  Uiso   1.00
O198   O     0.34270   0.40430   0.60660   0.01267  Uiso   1.00
O199   O     0.46480   0.42350   0.67300   0.01267  Uiso   1.00
O200   O     0.55670   0.14250   0.47680   0.01267  Uiso   1.00
H201   H     0.02508   0.94330   0.85750   0.01267  Uiso   1.00
H202   H     0.97680   0.99158   0.85750   0.01267  Uiso   1.00
H203   H     0.81842   0.86670   0.86670   0.01267  Uiso   1.00
Zn204  Zn    0.17340   0.10043   0.64743   0.01267  Uiso   1.00
Zn205  Zn    0.00816   0.94045   0.76376   0.01267  Uiso   1.00
Zn206  Zn    0.03383   0.34851   0.61868   0.01267  Uiso   1.00
H207   H     0.12428   0.11378   0.80861   0.01267  Uiso   1.00
H208   H     0.99819   0.15129   0.80950   0.01267  Uiso   1.00
H209   H     0.99201   0.18746   0.70216   0.01267  Uiso   1.00
H210   H     0.11695   0.26559   0.70243   0.01267  Uiso   1.00
C211   C     0.09230   0.13010   0.76690   0.01267  Uiso   1.00
C212   C     0.06280   0.07080   0.73420   0.01267  Uiso   1.00
C213   C     0.04310   0.17760   0.79160   0.01267  Uiso   1.00
C214   C     0.07410   0.21640   0.84660   0.01267  Uiso   1.00
C215   C     0.02760   0.21710   0.73190   0.01267  Uiso   1.00
C216   C     0.99520   0.28190   0.74520   0.01267  Uiso   1.00
C217   C     0.09160   0.21740   0.69440   0.01267  Uiso   1.00
C218   C     0.08280   0.20660   0.62220   0.01267  Uiso   1.00
O219   O     0.13070   0.16630   0.72130   0.01267  Uiso   1.00
O220   O     0.08680   0.05180   0.68270   0.01267  Uiso   1.00
O221   O     0.01750   0.04290   0.76350   0.01267  Uiso   1.00
O222   O     0.06280   0.19750   0.90140   0.01267  Uiso   1.00
O223   O     0.11180   0.26200   0.83320   0.01267  Uiso   1.00
O224   O     0.94860   0.27890   0.78230   0.01267  Uiso   1.00
O225   O     0.01430   0.33170   0.71710   0.01267  Uiso   1.00
O226   O     0.05010   0.24810   0.59300   0.01267  Uiso   1.00
O227   O     0.10660   0.15730   0.59570   0.01267  Uiso   1.00
O228   O     0.17300   0.03520   0.57650   0.01267  Uiso   1.00
O229   O     0.97680   0.94330   0.85750   0.01267  Uiso   1.00
H230   H     0.35750   0.47492   0.05670   0.01267  Uiso   1.00
H231   H     0.35750   0.52320   0.00842   0.01267  Uiso   1.00
H232   H     0.36670   0.68158   0.13330   0.01267  Uiso   1.00
Zn233  Zn    0.14743   0.32660   0.89957   0.01267  Uiso   1.00
Zn234  Zn    0.26376   0.49184   0.05955   0.01267  Uiso   1.00
Zn235  Zn    0.11868   0.46617   0.65149   0.01267  Uiso   1.00
H236   H     0.30861   0.37572   0.88622   0.01267  Uiso   1.00
H237   H     0.30950   0.50181   0.84871   0.01267  Uiso   1.00
H238   H     0.20216   0.50799   0.81254   0.01267  Uiso   1.00
H239   H     0.20243   0.38305   0.73441   0.01267  Uiso   1.00
C240   C     0.26690   0.40770   0.86990   0.01267  Uiso   1.00
C241   C     0.23420   0.43720   0.92920   0.01267  Uiso   1.00
C242   C     0.29160   0.45690   0.82240   0.01267  Uiso   1.00
C243   C     0.34660   0.42590   0.78360   0.01267  Uiso   1.00
C244   C     0.23190   0.47240   0.78290   0.01267  Uiso   1.00
C245   C     0.24520   0.50480   0.71810   0.01267  Uiso   1.00
C246   C     0.19440   0.40840   0.78260   0.01267  Uiso   1.00
C247   C     0.12220   0.41720   0.79340   0.01267  Uiso   1.00
O248   O     0.22130   0.36930   0.83370   0.01267  Uiso   1.00
O249   O     0.18270   0.41320   0.94820   0.01267  Uiso   1.00
O250   O     0.26350   0.48250   0.95710   0.01267  Uiso   1.00
O251   O     0.40140   0.43720   0.80250   0.01267  Uiso   1.00
O252   O     0.33320   0.38820   0.73800   0.01267  Uiso   1.00
O253   O     0.28230   0.55140   0.72110   0.01267  Uiso   1.00
O254   O     0.21710   0.48570   0.66830   0.01267  Uiso   1.00
O255   O     0.09300   0.44990   0.75190   0.01267  Uiso   1.00
O256   O     0.09570   0.39340   0.84270   0.01267  Uiso   1.00
O257   O     0.07650   0.32700   0.96480   0.01267  Uiso   1.00
O258   O     0.35750   0.52320   0.05670   0.01267  Uiso   1.00
H259   H     0.55670   0.14250   0.52508   0.01267  Uiso   1.00
H260   H     0.50842   0.14250   0.47680   0.01267  Uiso   1.00
O261   O     0.13330   0.36670   0.63330   0.01267  Uiso   1.00
Zn262  Zn    0.10043   0.64743   0.17340   0.01267  Uiso   1.00
Zn263  Zn    0.94045   0.76376   0.00816   0.01267  Uiso   1.00
Zn264  Zn    0.34851   0.61868   0.03383   0.01267  Uiso   1.00
H265   H     0.11378   0.80861   0.12428   0.01267  Uiso   1.00
H266   H     0.15129   0.80950   0.99819   0.01267  Uiso   1.00
H267   H     0.18746   0.70216   0.99201   0.01267  Uiso   1.00
H268   H     0.26559   0.70243   0.11695   0.01267  Uiso   1.00
C269   C     0.13010   0.76690   0.09230   0.01267  Uiso   1.00
C270   C     0.07080   0.73420   0.06280   0.01267  Uiso   1.00
C271   C     0.17760   0.79160   0.04310   0.01267  Uiso   1.00
C272   C     0.21640   0.84660   0.07410   0.01267  Uiso   1.00
C273   C     0.21710   0.73190   0.02760   0.01267  Uiso   1.00
C274   C     0.28190   0.74520   0.99520   0.01267  Uiso   1.00
C275   C     0.21740   0.69440   0.09160   0.01267  Uiso   1.00
C276   C     0.20660   0.62220   0.08280   0.01267  Uiso   1.00
O277   O     0.16630   0.72130   0.13070   0.01267  Uiso   1.00
O278   O     0.05180   0.68270   0.08680   0.01267  Uiso   1.00
O279   O     0.04290   0.76350   0.01750   0.01267  Uiso   1.00
O280   O     0.19750   0.90140   0.06280   0.01267  Uiso   1.00
O281   O     0.26200   0.83320   0.11180   0.01267  Uiso   1.00
O282   O     0.27890   0.78230   0.94860   0.01267  Uiso   1.00
O283   O     0.33170   0.71710   0.01430   0.01267  Uiso   1.00
O284   O     0.24810   0.59300   0.05010   0.01267  Uiso   1.00
O285   O     0.15730   0.59570   0.10660   0.01267  Uiso   1.00
O286   O     0.03520   0.57650   0.17300   0.01267  Uiso   1.00
O287   O     0.94330   0.85750   0.97680   0.01267  Uiso   1.00
H288   H     0.47492   0.05670   0.35750   0.01267  Uiso   1.00
H289   H     0.52320   0.00842   0.35750   0.01267  Uiso   1.00
H290   H     0.68158   0.13330   0.36670   0.01267  Uiso   1.00
Zn291  Zn    0.32660   0.89957   0.14743   0.01267  Uiso   1.00
Zn292  Zn    0.49184   0.05955   0.26376   0.01267  Uiso   1.00
Zn293  Zn    0.46617   0.65149   0.11868   0.01267  Uiso   1.00
H294   H     0.37572   0.88622   0.30861   0.01267  Uiso   1.00
H295   H     0.50181   0.84871   0.30950   0.01267  Uiso   1.00
H296   H     0.50799   0.81254   0.20216   0.01267  Uiso   1.00
H297   H     0.38305   0.73441   0.20243   0.01267  Uiso   1.00
C298   C     0.40770   0.86990   0.26690   0.01267  Uiso   1.00
C299   C     0.43720   0.92920   0.23420   0.01267  Uiso   1.00
C300   C     0.45690   0.82240   0.29160   0.01267  Uiso   1.00
C301   C     0.42590   0.78360   0.34660   0.01267  Uiso   1.00
C302   C     0.47240   0.78290   0.23190   0.01267  Uiso   1.00
C303   C     0.50480   0.71810   0.24520   0.01267  Uiso   1.00
C304   C     0.40840   0.78260   0.19440   0.01267  Uiso   1.00
C305   C     0.41720   0.79340   0.12220   0.01267  Uiso   1.00
O306   O     0.36930   0.83370   0.22130   0.01267  Uiso   1.00
O307   O     0.41320   0.94820   0.18270   0.01267  Uiso   1.00
O308   O     0.48250   0.95710   0.26350   0.01267  Uiso   1.00
O309   O     0.43720   0.80250   0.40140   0.01267  Uiso   1.00
O310   O     0.38820   0.73800   0.33320   0.01267  Uiso   1.00
O311   O     0.55140   0.72110   0.28230   0.01267  Uiso   1.00
O312   O     0.48570   0.66830   0.21710   0.01267  Uiso   1.00
O313   O     0.44990   0.75190   0.09300   0.01267  Uiso   1.00
O314   O     0.39340   0.84270   0.09570   0.01267  Uiso   1.00
O315   O     0.32700   0.96480   0.07650   0.01267  Uiso   1.00
O316   O     0.52320   0.05670   0.35750   0.01267  Uiso   1.00
H317   H     0.14250   0.52508   0.55670   0.01267  Uiso   1.00
H318   H     0.14250   0.47680   0.50842   0.01267  Uiso   1.00
H319   H     0.13330   0.31842   0.63330   0.01267  Uiso   1.00
Zn320  Zn    0.35257   0.67340   0.39957   0.01267  Uiso   1.00
Zn321  Zn    0.23624   0.50816   0.55955   0.01267  Uiso   1.00
Zn322  Zn    0.38132   0.53383   0.15149   0.01267  Uiso   1.00
H323   H     0.19139   0.62428   0.38622   0.01267  Uiso   1.00
H324   H     0.19050   0.49819   0.34871   0.01267  Uiso   1.00
H325   H     0.29784   0.49201   0.31254   0.01267  Uiso   1.00
H326   H     0.29757   0.61695   0.23441   0.01267  Uiso   1.00
C327   C     0.23310   0.59230   0.36990   0.01267  Uiso   1.00
C328   C     0.26580   0.56280   0.42920   0.01267  Uiso   1.00
C329   C     0.20840   0.54310   0.32240   0.01267  Uiso   1.00
C330   C     0.15340   0.57410   0.28360   0.01267  Uiso   1.00
C331   C     0.26810   0.52760   0.28290   0.01267  Uiso   1.00
C332   C     0.25480   0.49520   0.21810   0.01267  Uiso   1.00
C333   C     0.30560   0.59160   0.28260   0.01267  Uiso   1.00
C334   C     0.37780   0.58280   0.29340   0.01267  Uiso   1.00
O335   O     0.27870   0.63070   0.33370   0.01267  Uiso   1.00
O336   O     0.31730   0.58680   0.44820   0.01267  Uiso   1.00
O337   O     0.23650   0.51750   0.45710   0.01267  Uiso   1.00
O338   O     0.09860   0.56280   0.30250   0.01267  Uiso   1.00
O339   O     0.16680   0.61180   0.23800   0.01267  Uiso   1.00
O340   O     0.21770   0.44860   0.22110   0.01267  Uiso   1.00
O341   O     0.28290   0.51430   0.16830   0.01267  Uiso   1.00
O342   O     0.40700   0.55010   0.25190   0.01267  Uiso   1.00
O343   O     0.40430   0.60660   0.34270   0.01267  Uiso   1.00
O344   O     0.42350   0.67300   0.46480   0.01267  Uiso   1.00
O345   O     0.14250   0.47680   0.55670   0.01267  Uiso   1.00
H346   H     0.94330   0.85750   0.02508   0.01267  Uiso   1.00
H347   H     0.99158   0.85750   0.97680   0.01267  Uiso   1.00
O348   O     0.36670   0.63330   0.13330   0.01267  Uiso   1.00
Zn349  Zn    0.39957   0.14743   0.17340   0.01267  Uiso   1.00
Zn350  Zn    0.55955   0.26376   0.00816   0.01267  Uiso   1.00
Zn351  Zn    0.15149   0.11868   0.03383   0.01267  Uiso   1.00
H352   H     0.38622   0.30861   0.12428   0.01267  Uiso   1.00
H353   H     0.34871   0.30950   0.99819   0.01267  Uiso   1.00
H354   H     0.31254   0.20216   0.99201   0.01267  Uiso   1.00
H355   H     0.23441   0.20243   0.11695   0.01267  Uiso   1.00
C356   C     0.36990   0.26690   0.09230   0.01267  Uiso   1.00
C357   C     0.42920   0.23420   0.06280   0.01267  Uiso   1.00
C358   C     0.32240   0.29160   0.04310   0.01267  Uiso   1.00
C359   C     0.28360   0.34660   0.07410   0.01267  Uiso   1.00
C360   C     0.28290   0.23190   0.02760   0.01267  Uiso   1.00
C361   C     0.21810   0.24520   0.99520   0.01267  Uiso   1.00
C362   C     0.28260   0.19440   0.09160   0.01267  Uiso   1.00
C363   C     0.29340   0.12220   0.08280   0.01267  Uiso   1.00
O364   O     0.33370   0.22130   0.13070   0.01267  Uiso   1.00
O365   O     0.44820   0.18270   0.08680   0.01267  Uiso   1.00
O366   O     0.45710   0.26350   0.01750   0.01267  Uiso   1.00
O367   O     0.30250   0.40140   0.06280   0.01267  Uiso   1.00
O368   O     0.23800   0.33320   0.11180   0.01267  Uiso   1.00
O369   O     0.22110   0.28230   0.94860   0.01267  Uiso   1.00
O370   O     0.16830   0.21710   0.01430   0.01267  Uiso   1.00
O371   O     0.25190   0.09300   0.05010   0.01267  Uiso   1.00
O372   O     0.34270   0.09570   0.10660   0.01267  Uiso   1.00
O373   O     0.46480   0.07650   0.17300   0.01267  Uiso   1.00
O374   O     0.55670   0.35750   0.97680   0.01267  Uiso   1.00
H375   H     0.02508   0.55670   0.35750   0.01267  Uiso   1.00
H376   H     0.97680   0.50842   0.35750   0.01267  Uiso   1.00
H377   H     0.81842   0.63330   0.36670   0.01267  Uiso   1.00
Zn378  Zn    0.17340   0.39957   0.14743   0.01267  Uiso   1.00
Zn379  Zn    0.00816   0.55955   0.26376   0.01267  Uiso   1.00
Zn380  Zn    0.03383   0.15149   0.11868   0.01267  Uiso   1.00
H381   H     0.12428   0.38622   0.30861   0.01267  Uiso   1.00
H382   H     0.99819   0.34871   0.30950   0.01267  Uiso   1.00
H383   H     0.99201   0.31254   0.20216   0.01267  Uiso   1.00
H384   H     0.11695   0.23441   0.20243   0.01267  Uiso   1.00
C385   C     0.09230   0.36990   0.26690   0.01267  Uiso   1.00
C386   C     0.06280   0.42920   0.23420   0.01267  Uiso   1.00
C387   C     0.04310   0.32240   0.29160   0.01267  Uiso   1.00
C388   C     0.07410   0.28360   0.34660   0.01267  Uiso   1.00
C389   C     0.02760   0.28290   0.23190   0.01267  Uiso   1.00
C390   C     0.99520   0.21810   0.24520   0.01267  Uiso   1.00
C391   C     0.09160   0.28260   0.19440   0.01267  Uiso   1.00
C392   C     0.08280   0.29340   0.12220   0.01267  Uiso   1.00
O393   O     0.13070   0.33370   0.22130   0.01267  Uiso   1.00
O394   O     0.08680   0.44820   0.18270   0.01267  Uiso   1.00
O395   O     0.01750   0.45710   0.26350   0.01267  Uiso   1.00
O396   O     0.06280   0.30250   0.40140   0.01267  Uiso   1.00
O397   O     0.11180   0.23800   0.33320   0.01267  Uiso   1.00
O398   O     0.94860   0.22110   0.28230   0.01267  Uiso   1.00
O399   O     0.01430   0.16830   0.21710   0.01267  Uiso   1.00
O400   O     0.05010   0.25190   0.09300   0.01267  Uiso   1.00
O401   O     0.10660   0.34270   0.09570   0.01267  Uiso   1.00
O402   O     0.17300   0.46480   0.07650   0.01267  Uiso   1.00
O403   O     0.97680   0.55670   0.35750   0.01267  Uiso   1.00
H404   H     0.35750   0.02508   0.55670   0.01267  Uiso   1.00
H405   H     0.35750   0.97680   0.50842   0.01267  Uiso   1.00
H406   H     0.36670   0.81842   0.63330   0.01267  Uiso   1.00
Zn407  Zn    0.14743   0.17340   0.39957   0.01267  Uiso   1.00
Zn408  Zn    0.26376   0.00816   0.55955   0.01267  Uiso   1.00
Zn409  Zn    0.11868   0.03383   0.15149   0.01267  Uiso   1.00
H410   H     0.30861   0.12428   0.38622   0.01267  Uiso   1.00
H411   H     0.30950   0.99819   0.34871   0.01267  Uiso   1.00
H412   H     0.20216   0.99201   0.31254   0.01267  Uiso   1.00
H413   H     0.20243   0.11695   0.23441   0.01267  Uiso   1.00
C414   C     0.26690   0.09230   0.36990   0.01267  Uiso   1.00
C415   C     0.23420   0.06280   0.42920   0.01267  Uiso   1.00
C416   C     0.29160   0.04310   0.32240   0.01267  Uiso   1.00
C417   C     0.34660   0.07410   0.28360   0.01267  Uiso   1.00
C418   C     0.23190   0.02760   0.28290   0.01267  Uiso   1.00
C419   C     0.24520   0.99520   0.21810   0.01267  Uiso   1.00
C420   C     0.19440   0.09160   0.28260   0.01267  Uiso   1.00
C421   C     0.12220   0.08280   0.29340   0.01267  Uiso   1.00
O422   O     0.22130   0.13070   0.33370   0.01267  Uiso   1.00
O423   O     0.18270   0.08680   0.44820   0.01267  Uiso   1.00
O424   O     0.26350   0.01750   0.45710   0.01267  Uiso   1.00
O425   O     0.40140   0.06280   0.30250   0.01267  Uiso   1.00
O426   O     0.33320   0.11180   0.23800   0.01267  Uiso   1.00
O427   O     0.28230   0.94860   0.22110   0.01267  Uiso   1.00
O428   O     0.21710   0.01430   0.16830   0.01267  Uiso   1.00
O429   O     0.09300   0.05010   0.25190   0.01267  Uiso   1.00
O430   O     0.09570   0.10660   0.34270   0.01267  Uiso   1.00
O431   O     0.07650   0.17300   0.46480   0.01267  Uiso   1.00
O432   O     0.35750   0.97680   0.55670   0.01267  Uiso   1.00
H433   H     0.55670   0.35750   0.02508   0.01267  Uiso   1.00
H434   H     0.50842   0.35750   0.97680   0.01267  Uiso   1.00
O435   O     0.13330   0.13330   0.13330   0.01267  Uiso   1.00
Zn436  Zn    0.10043   0.85257   0.67340   0.01267  Uiso   1.00
Zn437  Zn    0.94045   0.73624   0.50816   0.01267  Uiso   1.00
Zn438  Zn    0.34851   0.88132   0.53383   0.01267  Uiso   1.00
H439   H     0.11378   0.69139   0.62428   0.01267  Uiso   1.00
H440   H     0.15129   0.69050   0.49819   0.01267  Uiso   1.00
H441   H     0.18746   0.79784   0.49201   0.01267  Uiso   1.00
H442   H     0.26559   0.79757   0.61695   0.01267  Uiso   1.00
C443   C     0.13010   0.73310   0.59230   0.01267  Uiso   1.00
C444   C     0.07080   0.76580   0.56280   0.01267  Uiso   1.00
C445   C     0.17760   0.70840   0.54310   0.01267  Uiso   1.00
C446   C     0.21640   0.65340   0.57410   0.01267  Uiso   1.00
C447   C     0.21710   0.76810   0.52760   0.01267  Uiso   1.00
C448   C     0.28190   0.75480   0.49520   0.01267  Uiso   1.00
C449   C     0.21740   0.80560   0.59160   0.01267  Uiso   1.00
C450   C     0.20660   0.87780   0.58280   0.01267  Uiso   1.00
O451   O     0.16630   0.77870   0.63070   0.01267  Uiso   1.00
O452   O     0.05180   0.81730   0.58680   0.01267  Uiso   1.00
O453   O     0.04290   0.73650   0.51750   0.01267  Uiso   1.00
O454   O     0.19750   0.59860   0.56280   0.01267  Uiso   1.00
O455   O     0.26200   0.66680   0.61180   0.01267  Uiso   1.00
O456   O     0.27890   0.71770   0.44860   0.01267  Uiso   1.00
O457   O     0.33170   0.78290   0.51430   0.01267  Uiso   1.00
O458   O     0.24810   0.90700   0.55010   0.01267  Uiso   1.00
O459   O     0.15730   0.90430   0.60660   0.01267  Uiso   1.00
O460   O     0.03520   0.92350   0.67300   0.01267  Uiso   1.00
O461   O     0.94330   0.64250   0.47680   0.01267  Uiso   1.00
H462   H     0.47492   0.44330   0.85750   0.01267  Uiso   1.00
H463   H     0.52320   0.49158   0.85750   0.01267  Uiso   1.00
H464   H     0.68158   0.36670   0.86670   0.01267  Uiso   1.00
Zn465  Zn    0.32660   0.60043   0.64743   0.01267  Uiso   1.00
Zn466  Zn    0.49184   0.44045   0.76376   0.01267  Uiso   1.00
Zn467  Zn    0.46617   0.84851   0.61868   0.01267  Uiso   1.00
H468   H     0.37572   0.61378   0.80861   0.01267  Uiso   1.00
H469   H     0.50181   0.65129   0.80950   0.01267  Uiso   1.00
H470   H     0.50799   0.68746   0.70216   0.01267  Uiso   1.00
H471   H     0.38305   0.76559   0.70243   0.01267  Uiso   1.00
C472   C     0.40770   0.63010   0.76690   0.01267  Uiso   1.00
C473   C     0.43720   0.57080   0.73420   0.01267  Uiso   1.00
C474   C     0.45690   0.67760   0.79160   0.01267  Uiso   1.00
C475   C     0.42590   0.71640   0.84660   0.01267  Uiso   1.00
C476   C     0.47240   0.71710   0.73190   0.01267  Uiso   1.00
C477   C     0.50480   0.78190   0.74520   0.01267  Uiso   1.00
C478   C     0.40840   0.71740   0.69440   0.01267  Uiso   1.00
C479   C     0.41720   0.70660   0.62220   0.01267  Uiso   1.00
O480   O     0.36930   0.66630   0.72130   0.01267  Uiso   1.00
O481   O     0.41320   0.55180   0.68270   0.01267  Uiso   1.00
O482   O     0.48250   0.54290   0.76350   0.01267  Uiso   1.00
O483   O     0.43720   0.69750   0.90140   0.01267  Uiso   1.00
O484   O     0.38820   0.76200   0.83320   0.01267  Uiso   1.00
O485   O     0.55140   0.77890   0.78230   0.01267  Uiso   1.00
O486   O     0.48570   0.83170   0.71710   0.01267  Uiso   1.00
O487   O     0.44990   0.74810   0.59300   0.01267  Uiso   1.00
O488   O     0.39340   0.65730   0.59570   0.01267  Uiso   1.00
O489   O     0.32700   0.53520   0.57650   0.01267  Uiso   1.00
O490   O     0.52320   0.44330   0.85750   0.01267  Uiso   1.00
H491   H     0.14250   0.97492   0.05670   0.01267  Uiso   1.00
H492   H     0.14250   0.02320   0.00842   0.01267  Uiso   1.00
H493   H     0.13330   0.18158   0.13330   0.01267  Uiso   1.00
Zn494  Zn    0.35257   0.82660   0.89957   0.01267  Uiso   1.00
Zn495  Zn    0.23624   0.99184   0.05955   0.01267  Uiso   1.00
Zn496  Zn    0.38132   0.96617   0.65149   0.01267  Uiso   1.00
H497   H     0.19139   0.87572   0.88622   0.01267  Uiso   1.00
H498   H     0.19050   0.00181   0.84871   0.01267  Uiso   1.00
H499   H     0.29784   0.00799   0.81254   0.01267  Uiso   1.00
H500   H     0.29757   0.88305   0.73441   0.01267  Uiso   1.00
C501   C     0.23310   0.90770   0.86990   0.01267  Uiso   1.00
C502   C     0.26580   0.93720   0.92920   0.01267  Uiso   1.00
C503   C     0.20840   0.95690   0.82240   0.01267  Uiso   1.00
C504   C     0.15340   0.92590   0.78360   0.01267  Uiso   1.00
C505   C     0.26810   0.97240   0.78290   0.01267  Uiso   1.00
C506   C     0.25480   0.00480   0.71810   0.01267  Uiso   1.00
C507   C     0.30560   0.90840   0.78260   0.01267  Uiso   1.00
C508   C     0.37780   0.91720   0.79340   0.01267  Uiso   1.00
O509   O     0.27870   0.86930   0.83370   0.01267  Uiso   1.00
O510   O     0.31730   0.91320   0.94820   0.01267  Uiso   1.00
O511   O     0.23650   0.98250   0.95710   0.01267  Uiso   1.00
O512   O     0.09860   0.93720   0.80250   0.01267  Uiso   1.00
O513   O     0.16680   0.88820   0.73800   0.01267  Uiso   1.00
O514   O     0.21770   0.05140   0.72110   0.01267  Uiso   1.00
O515   O     0.28290   0.98570   0.66830   0.01267  Uiso   1.00
O516   O     0.40700   0.94990   0.75190   0.01267  Uiso   1.00
O517   O     0.40430   0.89340   0.84270   0.01267  Uiso   1.00
O518   O     0.42350   0.82700   0.96480   0.01267  Uiso   1.00
O519   O     0.14250   0.02320   0.05670   0.01267  Uiso   1.00
H520   H     0.94330   0.64250   0.52508   0.01267  Uiso   1.00
H521   H     0.99158   0.64250   0.47680   0.01267  Uiso   1.00
O522   O     0.36670   0.86670   0.63330   0.01267  Uiso   1.00
Zn523  Zn    0.60043   0.64743   0.32660   0.01267  Uiso   1.00
Zn524  Zn    0.44045   0.76376   0.49184   0.01267  Uiso   1.00
Zn525  Zn    0.84851   0.61868   0.46617   0.01267  Uiso   1.00
H526   H     0.61378   0.80861   0.37572   0.01267  Uiso   1.00
H527   H     0.65129   0.80950   0.50181   0.01267  Uiso   1.00
H528   H     0.68746   0.70216   0.50799   0.01267  Uiso   1.00
H529   H     0.76559   0.70243   0.38305   0.01267  Uiso   1.00
C530   C     0.63010   0.76690   0.40770   0.01267  Uiso   1.00
C531   C     0.57080   0.73420   0.43720   0.01267  Uiso   1.00
C532   C     0.67760   0.79160   0.45690   0.01267  Uiso   1.00
C533   C     0.71640   0.84660   0.42590   0.01267  Uiso   1.00
C534   C     0.71710   0.73190   0.47240   0.01267  Uiso   1.00
C535   C     0.78190   0.74520   0.50480   0.01267  Uiso   1.00
C536   C     0.71740   0.69440   0.40840   0.01267  Uiso   1.00
C537   C     0.70660   0.62220   0.41720   0.01267  Uiso   1.00
O538   O     0.66630   0.72130   0.36930   0.01267  Uiso   1.00
O539   O     0.55180   0.68270   0.41320   0.01267  Uiso   1.00
O540   O     0.54290   0.76350   0.48250   0.01267  Uiso   1.00
O541   O     0.69750   0.90140   0.43720   0.01267  Uiso   1.00
O542   O     0.76200   0.83320   0.38820   0.01267  Uiso   1.00
O543   O     0.77890   0.78230   0.55140   0.01267  Uiso   1.00
O544   O     0.83170   0.71710   0.48570   0.01267  Uiso   1.00
O545   O     0.74810   0.59300   0.44990   0.01267  Uiso   1.00
O546   O     0.65730   0.59570   0.39340   0.01267  Uiso   1.00
O547   O     0.53520   0.57650   0.32700   0.01267  Uiso   1.00
O548   O     0.44330   0.85750   0.52320   0.01267  Uiso   1.00
H549   H     0.97492   0.05670   0.14250   0.01267  Uiso   1.00
H550   H     0.02320   0.00842   0.14250   0.01267  Uiso   1.00
H551   H     0.18158   0.13330   0.13330   0.01267  Uiso   1.00
Zn552  Zn    0.82660   0.89957   0.35257   0.01267  Uiso   1.00
Zn553  Zn    0.99184   0.05955   0.23624   0.01267  Uiso   1.00
Zn554  Zn    0.96617   0.65149   0.38132   0.01267  Uiso   1.00
H555   H     0.87572   0.88622   0.19139   0.01267  Uiso   1.00
H556   H     0.00181   0.84871   0.19050   0.01267  Uiso   1.00
H557   H     0.00799   0.81254   0.29784   0.01267  Uiso   1.00
H558   H     0.88305   0.73441   0.29757   0.01267  Uiso   1.00
C559   C     0.90770   0.86990   0.23310   0.01267  Uiso   1.00
C560   C     0.93720   0.92920   0.26580   0.01267  Uiso   1.00
C561   C     0.95690   0.82240   0.20840   0.01267  Uiso   1.00
C562   C     0.92590   0.78360   0.15340   0.01267  Uiso   1.00
C563   C     0.97240   0.78290   0.26810   0.01267  Uiso   1.00
C564   C     0.00480   0.71810   0.25480   0.01267  Uiso   1.00
C565   C     0.90840   0.78260   0.30560   0.01267  Uiso   1.00
C566   C     0.91720   0.79340   0.37780   0.01267  Uiso   1.00
O567   O     0.86930   0.83370   0.27870   0.01267  Uiso   1.00
O568   O     0.91320   0.94820   0.31730   0.01267  Uiso   1.00
O569   O     0.98250   0.95710   0.23650   0.01267  Uiso   1.00
O570   O     0.93720   0.80250   0.09860   0.01267  Uiso   1.00
O571   O     0.88820   0.73800   0.16680   0.01267  Uiso   1.00
O572   O     0.05140   0.72110   0.21770   0.01267  Uiso   1.00
O573   O     0.98570   0.66830   0.28290   0.01267  Uiso   1.00
O574   O     0.94990   0.75190   0.40700   0.01267  Uiso   1.00
O575   O     0.89340   0.84270   0.40430   0.01267  Uiso   1.00
O576   O     0.82700   0.96480   0.42350   0.01267  Uiso   1.00
O577   O     0.02320   0.05670   0.14250   0.01267  Uiso   1.00
H578   H     0.64250   0.52508   0.94330   0.01267  Uiso   1.00
H579   H     0.64250   0.47680   0.99158   0.01267  Uiso   1.00
H580   H     0.63330   0.31842   0.86670   0.01267  Uiso   1.00
Zn581  Zn    0.85257   0.67340   0.10043   0.01267  Uiso   1.00
Zn582  Zn    0.73624   0.50816   0.94045   0.01267  Uiso   1.00
Zn583  Zn    0.88132   0.53383   0.34851   0.01267  Uiso   1.00
H584   H     0.69139   0.62428   0.11378   0.01267  Uiso   1.00
H585   H     0.69050   0.49819   0.15129   0.01267  Uiso   1.00
H586   H     0.79784   0.49201   0.18746   0.01267  Uiso   1.00
H587   H     0.79757   0.61695   0.26559   0.01267  Uiso   1.00
C588   C     0.73310   0.59230   0.13010   0.01267  Uiso   1.00
C589   C     0.76580   0.56280   0.07080   0.01267  Uiso   1.00
C590   C     0.70840   0.54310   0.17760   0.01267  Uiso   1.00
C591   C     0.65340   0.57410   0.21640   0.01267  Uiso   1.00
C592   C     0.76810   0.52760   0.21710   0.01267  Uiso   1.00
C593   C     0.75480   0.49520   0.28190   0.01267  Uiso   1.00
C594   C     0.80560   0.59160   0.21740   0.01267  Uiso   1.00
C595   C     0.87780   0.58280   0.20660   0.01267  Uiso   1.00
O596   O     0.77870   0.63070   0.16630   0.01267  Uiso   1.00
O597   O     0.81730   0.58680   0.05180   0.01267  Uiso   1.00
O598   O     0.73650   0.51750   0.04290   0.01267  Uiso   1.00
O599   O     0.59860   0.56280   0.19750   0.01267  Uiso   1.00
O600   O     0.66680   0.61180   0.26200   0.01267  Uiso   1.00
O601   O     0.71770   0.44860   0.27890   0.01267  Uiso   1.00
O602   O     0.78290   0.51430   0.33170   0.01267  Uiso   1.00
O603   O     0.90700   0.55010   0.24810   0.01267  Uiso   1.00
O604   O     0.90430   0.60660   0.15730   0.01267  Uiso   1.00
O605   O     0.92350   0.67300   0.03520   0.01267  Uiso   1.00
O606   O     0.64250   0.47680   0.94330   0.01267  Uiso   1.00
H607   H     0.44330   0.85750   0.47492   0.01267  Uiso   1.00
H608   H     0.49158   0.85750   0.52320   0.01267  Uiso   1.00
O609   O     0.86670   0.63330   0.36670   0.01267  Uiso   1.00
Zn610  Zn    0.89957   0.35257   0.82660   0.01267  Uiso   1.00
Zn611  Zn    0.05955   0.23624   0.99184   0.01267  Uiso   1.00
Zn612  Zn    0.65149   0.38132   0.96617   0.01267  Uiso   1.00
H613   H     0.88622   0.19139   0.87572   0.01267  Uiso   1.00
H614   H     0.84871   0.19050   0.00181   0.01267  Uiso   1.00
H615   H     0.81254   0.29784   0.00799   0.01267  Uiso   1.00
H616   H     0.73441   0.29757   0.88305   0.01267  Uiso   1.00
C617   C     0.86990   0.23310   0.90770   0.01267  Uiso   1.00
C618   C     0.92920   0.26580   0.93720   0.01267  Uiso   1.00
C619   C     0.82240   0.20840   0.95690   0.01267  Uiso   1.00
C620   C     0.78360   0.15340   0.92590   0.01267  Uiso   1.00
C621   C     0.78290   0.26810   0.97240   0.01267  Uiso   1.00
C622   C     0.71810   0.25480   0.00480   0.01267  Uiso   1.00
C623   C     0.78260   0.30560   0.90840   0.01267  Uiso   1.00
C624   C     0.79340   0.37780   0.91720   0.01267  Uiso   1.00
O625   O     0.83370   0.27870   0.86930   0.01267  Uiso   1.00
O626   O     0.94820   0.31730   0.91320   0.01267  Uiso   1.00
O627   O     0.95710   0.23650   0.98250   0.01267  Uiso   1.00
O628   O     0.80250   0.09860   0.93720   0.01267  Uiso   1.00
O629   O     0.73800   0.16680   0.88820   0.01267  Uiso   1.00
O630   O     0.72110   0.21770   0.05140   0.01267  Uiso   1.00
O631   O     0.66830   0.28290   0.98570   0.01267  Uiso   1.00
O632   O     0.75190   0.40700   0.94990   0.01267  Uiso   1.00
O633   O     0.84270   0.40430   0.89340   0.01267  Uiso   1.00
O634   O     0.96480   0.42350   0.82700   0.01267  Uiso   1.00
O635   O     0.05670   0.14250   0.02320   0.01267  Uiso   1.00
H636   H     0.52508   0.94330   0.64250   0.01267  Uiso   1.00
H637   H     0.47680   0.99158   0.64250   0.01267  Uiso   1.00
H638   H     0.31842   0.86670   0.63330   0.01267  Uiso   1.00
Zn639  Zn    0.67340   0.10043   0.85257   0.01267  Uiso   1.00
Zn640  Zn    0.50816   0.94045   0.73624   0.01267  Uiso   1.00
Zn641  Zn    0.53383   0.34851   0.88132   0.01267  Uiso   1.00
H642   H     0.62428   0.11378   0.69139   0.01267  Uiso   1.00
H643   H     0.49819   0.15129   0.69050   0.01267  Uiso   1.00
H644   H     0.49201   0.18746   0.79784   0.01267  Uiso   1.00
H645   H     0.61695   0.26559   0.79757   0.01267  Uiso   1.00
C646   C     0.59230   0.13010   0.73310   0.01267  Uiso   1.00
C647   C     0.56280   0.07080   0.76580   0.01267  Uiso   1.00
C648   C     0.54310   0.17760   0.70840   0.01267  Uiso   1.00
C649   C     0.57410   0.21640   0.65340   0.01267  Uiso   1.00
C650   C     0.52760   0.21710   0.76810   0.01267  Uiso   1.00
C651   C     0.49520   0.28190   0.75480   0.01267  Uiso   1.00
C652   C     0.59160   0.21740   0.80560   0.01267  Uiso   1.00
C653   C     0.58280   0.20660   0.87780   0.01267  Uiso   1.00
O654   O     0.63070   0.16630   0.77870   0.01267  Uiso   1.00
O655   O     0.58680   0.05180   0.81730   0.01267  Uiso   1.00
O656   O     0.51750   0.04290   0.73650   0.01267  Uiso   1.00
O657   O     0.56280   0.19750   0.59860   0.01267  Uiso   1.00
O658   O     0.61180   0.26200   0.66680   0.01267  Uiso   1.00
O659   O     0.44860   0.27890   0.71770   0.01267  Uiso   1.00
O660   O     0.51430   0.33170   0.78290   0.01267  Uiso   1.00
O661   O     0.55010   0.24810   0.90700   0.01267  Uiso   1.00
O662   O     0.60660   0.15730   0.90430   0.01267  Uiso   1.00
O663   O     0.67300   0.03520   0.92350   0.01267  Uiso   1.00
O664   O     0.47680   0.94330   0.64250   0.01267  Uiso   1.00
H665   H     0.85750   0.47492   0.44330   0.01267  Uiso   1.00
H666   H     0.85750   0.52320   0.49158   0.01267  Uiso   1.00
H667   H     0.86670   0.68158   0.36670   0.01267  Uiso   1.00
Zn668  Zn    0.64743   0.32660   0.60043   0.01267  Uiso   1.00
Zn669  Zn    0.76376   0.49184   0.44045   0.01267  Uiso   1.00
Zn670  Zn    0.61868   0.46617   0.84851   0.01267  Uiso   1.00
H671   H     0.80861   0.37572   0.61378   0.01267  Uiso   1.00
H672   H     0.80950   0.50181   0.65129   0.01267  Uiso   1.00
H673   H     0.70216   0.50799   0.68746   0.01267  Uiso   1.00
H674   H     0.70243   0.38305   0.76559   0.01267  Uiso   1.00
C675   C     0.76690   0.40770   0.63010   0.01267  Uiso   1.00
C676   C     0.73420   0.43720   0.57080   0.01267  Uiso   1.00
C677   C     0.79160   0.45690   0.67760   0.01267  Uiso   1.00
C678   C     0.84660   0.42590   0.71640   0.01267  Uiso   1.00
C679   C     0.73190   0.47240   0.71710   0.01267  Uiso   1.00
C680   C     0.74520   0.50480   0.78190   0.01267  Uiso   1.00
C681   C     0.69440   0.40840   0.71740   0.01267  Uiso   1.00
C682   C     0.62220   0.41720   0.70660   0.01267  Uiso   1.00
O683   O     0.72130   0.36930   0.66630   0.01267  Uiso   1.00
O684   O     0.68270   0.41320   0.55180   0.01267  Uiso   1.00
O685   O     0.76350   0.48250   0.54290   0.01267  Uiso   1.00
O686   O     0.90140   0.43720   0.69750   0.01267  Uiso   1.00
O687   O     0.83320   0.38820   0.76200   0.01267  Uiso   1.00
O688   O     0.78230   0.55140   0.77890   0.01267  Uiso   1.00
O689   O     0.71710   0.48570   0.83170   0.01267  Uiso   1.00
O690   O     0.59300   0.44990   0.74810   0.01267  Uiso   1.00
O691   O     0.59570   0.39340   0.65730   0.01267  Uiso   1.00
O692   O     0.57650   0.32700   0.53520   0.01267  Uiso   1.00
O693   O     0.85750   0.52320   0.44330   0.01267  Uiso   1.00
H694   H     0.05670   0.14250   0.97492   0.01267  Uiso   1.00
H695   H     0.00842   0.14250   0.02320   0.01267  Uiso   1.00
O696   O     0.63330   0.36670   0.86670   0.01267  Uiso   1.00
