data_image0
_cell_length_a       22.286
_cell_length_b       22.725
_cell_length_c       14.056
_cell_angle_alpha    90
_cell_angle_beta     90
_cell_angle_gamma    90

_symmetry_space_group_name_H-M    "P 1"
_symmetry_int_tables_number       1

loop_
  _symmetry_equiv_pos_as_xyz
  'x, y, z'

loop_
  _atom_site_label
  _atom_site_occupancy
  _atom_site_fract_x
  _atom_site_fract_y
  _atom_site_fract_z
  _atom_site_thermal_displace_type
  _atom_site_B_iso_or_equiv
  _atom_site_type_symbol
  Co1      1.0000 0.17447  0.20508  0.96154  Biso   1.000  Co
  O1       1.0000 0.20386  0.28649  0.01352  Biso   1.000  O
  O2       1.0000 0.11924  0.34016  0.01750  Biso   1.000  O
  O3       1.0000 0.32199  0.33483  0.59665  Biso   1.000  O
  O4       1.0000 0.41386  0.32202  0.65786  Biso   1.000  O
  N1       1.0000 0.26574  0.18197  0.93620  Biso   1.000  N
  N2       1.0000 0.35060  0.13318  0.91085  Biso   1.000  N
  N3       1.0000 0.63093  0.80105  0.79349  Biso   1.000  N
  N4       1.0000 0.66831  0.74329  0.68188  Biso   1.000  N
  N5       1.0000 0.14323  0.12366  0.90379  Biso   1.000  N
  N6       1.0000 0.10422  0.06316  0.79712  Biso   1.000  N
  C1       1.0000 0.17463  0.33268  0.03020  Biso   1.000  C
  C2       1.0000 0.20937  0.38382  0.07240  Biso   1.000  C
  C3       1.0000 0.26371  0.40509  0.03430  Biso   1.000  C
  C4       1.0000 0.29404  0.44973  0.08260  Biso   1.000  C
  H1       1.0000 0.33040  0.46350  0.05880  Biso   1.000  H
  C5       1.0000 0.27082  0.47398  0.16570  Biso   1.000  C
  H2       1.0000 0.29160  0.50380  0.19690  Biso   1.000  H
  C6       1.0000 0.21732  0.45400  0.20180  Biso   1.000  C
  H3       1.0000 0.20180  0.47030  0.25720  Biso   1.000  H
  C7       1.0000 0.18624  0.40921  0.15530  Biso   1.000  C
  H4       1.0000 0.14980  0.39610  0.17960  Biso   1.000  H
  C8       1.0000 0.28820  0.38495  0.94050  Biso   1.000  C
  C9       1.0000 0.34883  0.37021  0.92990  Biso   1.000  C
  H5       1.0000 0.37400  0.37070  0.98270  Biso   1.000  H
  C10      1.0000 0.37186  0.35479  0.84120  Biso   1.000  C
  H6       1.0000 0.41220  0.34500  0.83560  Biso   1.000  H
  C11      1.0000 0.33528  0.35377  0.76080  Biso   1.000  C
  C12      1.0000 0.27489  0.36829  0.77140  Biso   1.000  C
  H7       1.0000 0.24970  0.36740  0.71870  Biso   1.000  H
  C13      1.0000 0.25182  0.38401  0.85970  Biso   1.000  C
  H8       1.0000 0.21150  0.39410  0.86500  Biso   1.000  H
  C14      1.0000 0.35892  0.33521  0.66410  Biso   1.000  C
  C15      1.0000 0.29407  0.13147  0.94620  Biso   1.000  C
  H9       1.0000 0.27720  0.09840  0.97440  Biso   1.000  H
  C16      1.0000 0.30611  0.21830  0.89210  Biso   1.000  C
  H10      1.0000 0.29870  0.25720  0.87550  Biso   1.000  H
  C17      1.0000 0.35846  0.18955  0.87610  Biso   1.000  C
  H11      1.0000 0.39280  0.20470  0.84750  Biso   1.000  H
  C18      1.0000 0.39251  0.08578  0.90560  Biso   1.000  C
  C19      1.0000 0.45080  0.09604  0.87570  Biso   1.000  C
  H12      1.0000 0.46280  0.13400  0.86010  Biso   1.000  H
  C20      1.0000 0.49134  0.04984  0.86900  Biso   1.000  C
  H13      1.0000 0.53040  0.05770  0.84970  Biso   1.000  H
  C21      1.0000 0.47549  0.99245  0.89010  Biso   1.000  C
  C22      1.0000 0.41702  0.98307  0.92250  Biso   1.000  C
  H14      1.0000 0.40530  0.94520  0.93920  Biso   1.000  H
  C23      1.0000 0.37581  0.02878  0.93050  Biso   1.000  C
  H15      1.0000 0.33720  0.02130  0.95250  Biso   1.000  H
  C24      1.0000 0.51844  0.94288  0.87570  Biso   1.000  C
  C25      1.0000 0.57374  0.95214  0.83240  Biso   1.000  C
  H16      1.0000 0.58540  0.99040  0.81780  Biso   1.000  H
  C26      1.0000 0.61193  0.90614  0.81050  Biso   1.000  C
  H17      1.0000 0.64880  0.91360  0.78200  Biso   1.000  H
  C27      1.0000 0.59514  0.84916  0.83110  Biso   1.000  C
  C28      1.0000 0.54218  0.83871  0.87820  Biso   1.000  C
  H18      1.0000 0.53160  0.80050  0.89480  Biso   1.000  H
  C29      1.0000 0.50456  0.88506  0.90080  Biso   1.000  C
  H19      1.0000 0.46910  0.87750  0.93360  Biso   1.000  H
  C30      1.0000 0.63224  0.78778  0.69950  Biso   1.000  C
  H20      1.0000 0.61040  0.80770  0.65320  Biso   1.000  H
  C31      1.0000 0.69179  0.72751  0.76970  Biso   1.000  C
  H21      1.0000 0.71930  0.69740  0.77990  Biso   1.000  H
  C32      1.0000 0.66839  0.76291  0.83900  Biso   1.000  C
  H22      1.0000 0.67640  0.76130  0.90390  Biso   1.000  H
  C33      1.0000 0.11382  0.11953  0.82300  Biso   1.000  C
  H23      1.0000 0.10110  0.15180  0.78770  Biso   1.000  H
  C34      1.0000 0.15268  0.06692  0.93220  Biso   1.000  C
  H24      1.0000 0.17220  0.05590  0.98780  Biso   1.000  H
  C35      1.0000 0.12950  0.02927  0.86770  Biso   1.000  C
  H25      1.0000 0.13040  0.98840  0.87030  Biso   1.000  H
  C36      1.0000 0.07416  0.04483  0.71220  Biso   1.000  C
  C37      1.0000 0.06936  0.98594  0.68990  Biso   1.000  C
  H26      1.0000 0.08550  0.95770  0.73040  Biso   1.000  H
  C38      1.0000 0.04039  0.96874  0.60710  Biso   1.000  C
  H27      1.0000 0.03760  0.92880  0.59310  Biso   1.000  H
  C39      1.0000 0.01532  0.00920  0.54420  Biso   1.000  C
  C40      1.0000 0.02065  0.06824  0.56970  Biso   1.000  C
  H28      1.0000 0.00430  0.09670  0.52980  Biso   1.000  H
  C41      1.0000 0.04913  0.08599  0.65120  Biso   1.000  C
  H29      1.0000 0.05170  0.12580  0.66570  Biso   1.000  H
  Co2      1.0000 0.32553  0.29492  0.46154  Biso   1.000  Co
  O5       1.0000 0.29614  0.21351  0.51352  Biso   1.000  O
  O6       1.0000 0.38076  0.15984  0.51750  Biso   1.000  O
  O7       1.0000 0.17801  0.16517  0.09665  Biso   1.000  O
  O8       1.0000 0.08614  0.17798  0.15786  Biso   1.000  O
  N7       1.0000 0.23426  0.31803  0.43620  Biso   1.000  N
  N8       1.0000 0.14940  0.36682  0.41085  Biso   1.000  N
  N9       1.0000 0.86907  0.69895  0.29349  Biso   1.000  N
  N10      1.0000 0.83169  0.75671  0.18188  Biso   1.000  N
  N11      1.0000 0.35677  0.37634  0.40379  Biso   1.000  N
  N12      1.0000 0.39578  0.43684  0.29712  Biso   1.000  N
  C42      1.0000 0.32537  0.16732  0.53020  Biso   1.000  C
  C43      1.0000 0.29063  0.11618  0.57240  Biso   1.000  C
  C44      1.0000 0.23629  0.09491  0.53430  Biso   1.000  C
  C45      1.0000 0.20596  0.05027  0.58260  Biso   1.000  C
  H30      1.0000 0.16960  0.03650  0.55880  Biso   1.000  H
  C46      1.0000 0.22918  0.02602  0.66570  Biso   1.000  C
  H31      1.0000 0.20840  0.99620  0.69690  Biso   1.000  H
  C47      1.0000 0.28268  0.04600  0.70180  Biso   1.000  C
  H32      1.0000 0.29820  0.02970  0.75720  Biso   1.000  H
  C48      1.0000 0.31376  0.09079  0.65530  Biso   1.000  C
  H33      1.0000 0.35020  0.10390  0.67960  Biso   1.000  H
  C49      1.0000 0.21180  0.11505  0.44050  Biso   1.000  C
  C50      1.0000 0.15117  0.12979  0.42990  Biso   1.000  C
  H34      1.0000 0.12600  0.12930  0.48270  Biso   1.000  H
  C51      1.0000 0.12814  0.14521  0.34120  Biso   1.000  C
  H35      1.0000 0.08780  0.15500  0.33560  Biso   1.000  H
  C52      1.0000 0.16472  0.14623  0.26080  Biso   1.000  C
  C53      1.0000 0.22511  0.13171  0.27140  Biso   1.000  C
  H36      1.0000 0.25030  0.13260  0.21870  Biso   1.000  H
  C54      1.0000 0.24818  0.11599  0.35970  Biso   1.000  C
  H37      1.0000 0.28850  0.10590  0.36500  Biso   1.000  H
  C55      1.0000 0.14108  0.16479  0.16410  Biso   1.000  C
  C56      1.0000 0.20593  0.36853  0.44620  Biso   1.000  C
  H38      1.0000 0.22280  0.40160  0.47440  Biso   1.000  H
  C57      1.0000 0.19389  0.28170  0.39210  Biso   1.000  C
  H39      1.0000 0.20130  0.24280  0.37550  Biso   1.000  H
  C58      1.0000 0.14154  0.31045  0.37610  Biso   1.000  C
  H40      1.0000 0.10720  0.29530  0.34750  Biso   1.000  H
  C59      1.0000 0.10749  0.41422  0.40560  Biso   1.000  C
  C60      1.0000 0.04920  0.40396  0.37570  Biso   1.000  C
  H41      1.0000 0.03720  0.36600  0.36010  Biso   1.000  H
  C61      1.0000 0.00866  0.45016  0.36900  Biso   1.000  C
  H42      1.0000 0.96960  0.44230  0.34970  Biso   1.000  H
  C62      1.0000 0.02451  0.50755  0.39010  Biso   1.000  C
  C63      1.0000 0.08298  0.51693  0.42250  Biso   1.000  C
  H43      1.0000 0.09470  0.55480  0.43920  Biso   1.000  H
  C64      1.0000 0.12419  0.47122  0.43050  Biso   1.000  C
  H44      1.0000 0.16280  0.47870  0.45250  Biso   1.000  H
  C65      1.0000 0.98156  0.55712  0.37570  Biso   1.000  C
  C66      1.0000 0.92626  0.54786  0.33240  Biso   1.000  C
  H45      1.0000 0.91460  0.50960  0.31780  Biso   1.000  H
  C67      1.0000 0.88807  0.59386  0.31050  Biso   1.000  C
  H46      1.0000 0.85120  0.58640  0.28200  Biso   1.000  H
  C68      1.0000 0.90486  0.65084  0.33110  Biso   1.000  C
  C69      1.0000 0.95782  0.66129  0.37820  Biso   1.000  C
  H47      1.0000 0.96840  0.69950  0.39480  Biso   1.000  H
  C70      1.0000 0.99544  0.61494  0.40080  Biso   1.000  C
  H48      1.0000 0.03090  0.62250  0.43360  Biso   1.000  H
  C71      1.0000 0.86776  0.71222  0.19950  Biso   1.000  C
  H49      1.0000 0.88960  0.69230  0.15320  Biso   1.000  H
  C72      1.0000 0.80821  0.77249  0.26970  Biso   1.000  C
  H50      1.0000 0.78070  0.80260  0.27990  Biso   1.000  H
  C73      1.0000 0.83161  0.73709  0.33900  Biso   1.000  C
  H51      1.0000 0.82360  0.73870  0.40390  Biso   1.000  H
  C74      1.0000 0.38618  0.38047  0.32300  Biso   1.000  C
  H52      1.0000 0.39890  0.34820  0.28770  Biso   1.000  H
  C75      1.0000 0.34732  0.43308  0.43220  Biso   1.000  C
  H53      1.0000 0.32780  0.44410  0.48780  Biso   1.000  H
  C76      1.0000 0.37050  0.47073  0.36770  Biso   1.000  C
  H54      1.0000 0.36960  0.51160  0.37030  Biso   1.000  H
  C77      1.0000 0.42584  0.45517  0.21220  Biso   1.000  C
  C78      1.0000 0.43064  0.51406  0.18990  Biso   1.000  C
  H55      1.0000 0.41450  0.54230  0.23040  Biso   1.000  H
  C79      1.0000 0.45961  0.53126  0.10710  Biso   1.000  C
  H56      1.0000 0.46240  0.57120  0.09310  Biso   1.000  H
  C80      1.0000 0.48468  0.49080  0.04420  Biso   1.000  C
  C81      1.0000 0.47935  0.43176  0.06970  Biso   1.000  C
  H57      1.0000 0.49570  0.40330  0.02980  Biso   1.000  H
  C82      1.0000 0.45087  0.41401  0.15120  Biso   1.000  C
  H58      1.0000 0.44830  0.37420  0.16570  Biso   1.000  H
  Co3      1.0000 0.82553  0.79492  0.03846  Biso   1.000  Co
  O9       1.0000 0.79614  0.71351  0.98648  Biso   1.000  O
  O10      1.0000 0.88076  0.65984  0.98250  Biso   1.000  O
  O11      1.0000 0.67801  0.66517  0.40335  Biso   1.000  O
  O12      1.0000 0.58614  0.67798  0.34214  Biso   1.000  O
  N13      1.0000 0.73426  0.81803  0.06380  Biso   1.000  N
  N14      1.0000 0.64940  0.86682  0.08915  Biso   1.000  N
  N15      1.0000 0.36907  0.19895  0.20651  Biso   1.000  N
  N16      1.0000 0.33169  0.25671  0.31812  Biso   1.000  N
  N17      1.0000 0.85677  0.87634  0.09621  Biso   1.000  N
  N18      1.0000 0.89578  0.93684  0.20288  Biso   1.000  N
  C83      1.0000 0.82537  0.66732  0.96980  Biso   1.000  C
  C84      1.0000 0.79063  0.61618  0.92760  Biso   1.000  C
  C85      1.0000 0.73629  0.59491  0.96570  Biso   1.000  C
  C86      1.0000 0.70596  0.55027  0.91740  Biso   1.000  C
  H59      1.0000 0.66960  0.53650  0.94120  Biso   1.000  H
  C87      1.0000 0.72918  0.52602  0.83430  Biso   1.000  C
  H60      1.0000 0.70840  0.49620  0.80310  Biso   1.000  H
  C88      1.0000 0.78268  0.54600  0.79820  Biso   1.000  C
  H61      1.0000 0.79820  0.52970  0.74280  Biso   1.000  H
  C89      1.0000 0.81376  0.59079  0.84470  Biso   1.000  C
  H62      1.0000 0.85020  0.60390  0.82040  Biso   1.000  H
  C90      1.0000 0.71180  0.61505  0.05950  Biso   1.000  C
  C91      1.0000 0.65117  0.62979  0.07010  Biso   1.000  C
  H63      1.0000 0.62600  0.62930  0.01730  Biso   1.000  H
  C92      1.0000 0.62814  0.64521  0.15880  Biso   1.000  C
  H64      1.0000 0.58780  0.65500  0.16440  Biso   1.000  H
  C93      1.0000 0.66472  0.64623  0.23920  Biso   1.000  C
  C94      1.0000 0.72511  0.63171  0.22860  Biso   1.000  C
  H65      1.0000 0.75030  0.63260  0.28130  Biso   1.000  H
  C95      1.0000 0.74818  0.61599  0.14030  Biso   1.000  C
  H66      1.0000 0.78850  0.60590  0.13500  Biso   1.000  H
  C96      1.0000 0.64108  0.66479  0.33590  Biso   1.000  C
  C97      1.0000 0.70593  0.86853  0.05380  Biso   1.000  C
  H67      1.0000 0.72280  0.90160  0.02560  Biso   1.000  H
  C98      1.0000 0.69389  0.78170  0.10790  Biso   1.000  C
  H68      1.0000 0.70130  0.74280  0.12450  Biso   1.000  H
  C99      1.0000 0.64154  0.81045  0.12390  Biso   1.000  C
  H69      1.0000 0.60720  0.79530  0.15250  Biso   1.000  H
  C100     1.0000 0.60749  0.91422  0.09440  Biso   1.000  C
  C101     1.0000 0.54920  0.90396  0.12430  Biso   1.000  C
  H70      1.0000 0.53720  0.86600  0.13990  Biso   1.000  H
  C102     1.0000 0.50866  0.95016  0.13100  Biso   1.000  C
  H71      1.0000 0.46960  0.94230  0.15030  Biso   1.000  H
  C103     1.0000 0.52451  0.00755  0.10990  Biso   1.000  C
  C104     1.0000 0.58298  0.01693  0.07750  Biso   1.000  C
  H72      1.0000 0.59470  0.05480  0.06080  Biso   1.000  H
  C105     1.0000 0.62419  0.97122  0.06950  Biso   1.000  C
  H73      1.0000 0.66280  0.97870  0.04750  Biso   1.000  H
  C106     1.0000 0.48156  0.05712  0.12430  Biso   1.000  C
  C107     1.0000 0.42626  0.04786  0.16760  Biso   1.000  C
  H74      1.0000 0.41460  0.00960  0.18220  Biso   1.000  H
  C108     1.0000 0.38807  0.09386  0.18950  Biso   1.000  C
  H75      1.0000 0.35120  0.08640  0.21800  Biso   1.000  H
  C109     1.0000 0.40486  0.15084  0.16890  Biso   1.000  C
  C110     1.0000 0.45782  0.16129  0.12180  Biso   1.000  C
  H76      1.0000 0.46840  0.19950  0.10520  Biso   1.000  H
  C111     1.0000 0.49544  0.11494  0.09920  Biso   1.000  C
  H77      1.0000 0.53090  0.12250  0.06640  Biso   1.000  H
  C112     1.0000 0.36776  0.21222  0.30050  Biso   1.000  C
  H78      1.0000 0.38960  0.19230  0.34680  Biso   1.000  H
  C113     1.0000 0.30821  0.27249  0.23030  Biso   1.000  C
  H79      1.0000 0.28070  0.30260  0.22010  Biso   1.000  H
  C114     1.0000 0.33161  0.23709  0.16100  Biso   1.000  C
  H80      1.0000 0.32360  0.23870  0.09610  Biso   1.000  H
  C115     1.0000 0.88618  0.88047  0.17700  Biso   1.000  C
  H81      1.0000 0.89890  0.84820  0.21230  Biso   1.000  H
  C116     1.0000 0.84732  0.93308  0.06780  Biso   1.000  C
  H82      1.0000 0.82780  0.94410  0.01220  Biso   1.000  H
  C117     1.0000 0.87050  0.97073  0.13230  Biso   1.000  C
  H83      1.0000 0.86960  0.01160  0.12970  Biso   1.000  H
  C118     1.0000 0.92584  0.95517  0.28780  Biso   1.000  C
  C119     1.0000 0.93064  0.01406  0.31010  Biso   1.000  C
  H84      1.0000 0.91450  0.04230  0.26960  Biso   1.000  H
  C120     1.0000 0.95961  0.03126  0.39290  Biso   1.000  C
  H85      1.0000 0.96240  0.07120  0.40690  Biso   1.000  H
  C121     1.0000 0.98468  0.99080  0.45580  Biso   1.000  C
  C122     1.0000 0.97935  0.93176  0.43030  Biso   1.000  C
  H86      1.0000 0.99570  0.90330  0.47020  Biso   1.000  H
  C123     1.0000 0.95087  0.91401  0.34880  Biso   1.000  C
  H87      1.0000 0.94830  0.87420  0.33430  Biso   1.000  H
  Co4      1.0000 0.67447  0.70508  0.53846  Biso   1.000  Co
  O13      1.0000 0.70386  0.78649  0.48648  Biso   1.000  O
  O14      1.0000 0.61924  0.84016  0.48250  Biso   1.000  O
  O15      1.0000 0.82199  0.83483  0.90335  Biso   1.000  O
  O16      1.0000 0.91386  0.82202  0.84214  Biso   1.000  O
  N19      1.0000 0.76574  0.68197  0.56380  Biso   1.000  N
  N20      1.0000 0.85060  0.63318  0.58915  Biso   1.000  N
  N21      1.0000 0.13093  0.30105  0.70651  Biso   1.000  N
  N22      1.0000 0.16831  0.24329  0.81812  Biso   1.000  N
  N23      1.0000 0.64323  0.62366  0.59621  Biso   1.000  N
  N24      1.0000 0.60422  0.56316  0.70288  Biso   1.000  N
  C124     1.0000 0.67463  0.83268  0.46980  Biso   1.000  C
  C125     1.0000 0.70937  0.88382  0.42760  Biso   1.000  C
  C126     1.0000 0.76371  0.90509  0.46570  Biso   1.000  C
  C127     1.0000 0.79404  0.94973  0.41740  Biso   1.000  C
  H88      1.0000 0.83040  0.96350  0.44120  Biso   1.000  H
  C128     1.0000 0.77082  0.97398  0.33430  Biso   1.000  C
  H89      1.0000 0.79160  0.00380  0.30310  Biso   1.000  H
  C129     1.0000 0.71732  0.95400  0.29820  Biso   1.000  C
  H90      1.0000 0.70180  0.97030  0.24280  Biso   1.000  H
  C130     1.0000 0.68624  0.90921  0.34470  Biso   1.000  C
  H91      1.0000 0.64980  0.89610  0.32040  Biso   1.000  H
  C131     1.0000 0.78820  0.88495  0.55950  Biso   1.000  C
  C132     1.0000 0.84883  0.87021  0.57010  Biso   1.000  C
  H92      1.0000 0.87400  0.87070  0.51730  Biso   1.000  H
  C133     1.0000 0.87186  0.85479  0.65880  Biso   1.000  C
  H93      1.0000 0.91220  0.84500  0.66440  Biso   1.000  H
  C134     1.0000 0.83528  0.85377  0.73920  Biso   1.000  C
  C135     1.0000 0.77489  0.86829  0.72860  Biso   1.000  C
  H94      1.0000 0.74970  0.86740  0.78130  Biso   1.000  H
  C136     1.0000 0.75182  0.88401  0.64030  Biso   1.000  C
  H95      1.0000 0.71150  0.89410  0.63500  Biso   1.000  H
  C137     1.0000 0.85892  0.83521  0.83590  Biso   1.000  C
  C138     1.0000 0.79407  0.63147  0.55380  Biso   1.000  C
  H96      1.0000 0.77720  0.59840  0.52560  Biso   1.000  H
  C139     1.0000 0.80611  0.71830  0.60790  Biso   1.000  C
  H97      1.0000 0.79870  0.75720  0.62450  Biso   1.000  H
  C140     1.0000 0.85846  0.68955  0.62390  Biso   1.000  C
  H98      1.0000 0.89280  0.70470  0.65250  Biso   1.000  H
  C141     1.0000 0.89251  0.58578  0.59440  Biso   1.000  C
  C142     1.0000 0.95080  0.59604  0.62430  Biso   1.000  C
  H99      1.0000 0.96280  0.63400  0.63990  Biso   1.000  H
  C143     1.0000 0.99134  0.54984  0.63100  Biso   1.000  C
  H100     1.0000 0.03040  0.55770  0.65030  Biso   1.000  H
  C144     1.0000 0.97549  0.49245  0.60990  Biso   1.000  C
  C145     1.0000 0.91702  0.48307  0.57750  Biso   1.000  C
  H101     1.0000 0.90530  0.44520  0.56080  Biso   1.000  H
  C146     1.0000 0.87581  0.52878  0.56950  Biso   1.000  C
  H102     1.0000 0.83720  0.52130  0.54750  Biso   1.000  H
  C147     1.0000 0.01844  0.44288  0.62430  Biso   1.000  C
  C148     1.0000 0.07374  0.45214  0.66760  Biso   1.000  C
  H103     1.0000 0.08540  0.49040  0.68220  Biso   1.000  H
  C149     1.0000 0.11193  0.40614  0.68950  Biso   1.000  C
  H104     1.0000 0.14880  0.41360  0.71800  Biso   1.000  H
  C150     1.0000 0.09514  0.34916  0.66890  Biso   1.000  C
  C151     1.0000 0.04218  0.33871  0.62180  Biso   1.000  C
  H105     1.0000 0.03160  0.30050  0.60520  Biso   1.000  H
  C152     1.0000 0.00456  0.38506  0.59920  Biso   1.000  C
  H106     1.0000 0.96910  0.37750  0.56640  Biso   1.000  H
  C153     1.0000 0.13224  0.28778  0.80050  Biso   1.000  C
  H107     1.0000 0.11040  0.30770  0.84680  Biso   1.000  H
  C154     1.0000 0.19179  0.22751  0.73030  Biso   1.000  C
  H108     1.0000 0.21930  0.19740  0.72010  Biso   1.000  H
  C155     1.0000 0.16839  0.26291  0.66100  Biso   1.000  C
  H109     1.0000 0.17640  0.26130  0.59610  Biso   1.000  H
  C156     1.0000 0.61382  0.61953  0.67700  Biso   1.000  C
  H110     1.0000 0.60110  0.65180  0.71230  Biso   1.000  H
  C157     1.0000 0.65268  0.56692  0.56780  Biso   1.000  C
  H111     1.0000 0.67220  0.55590  0.51220  Biso   1.000  H
  C158     1.0000 0.62950  0.52927  0.63230  Biso   1.000  C
  H112     1.0000 0.63040  0.48840  0.62970  Biso   1.000  H
  C159     1.0000 0.57416  0.54483  0.78780  Biso   1.000  C
  C160     1.0000 0.56936  0.48594  0.81010  Biso   1.000  C
  H113     1.0000 0.58550  0.45770  0.76960  Biso   1.000  H
  C161     1.0000 0.54039  0.46874  0.89290  Biso   1.000  C
  H114     1.0000 0.53760  0.42880  0.90690  Biso   1.000  H
  C162     1.0000 0.51532  0.50920  0.95580  Biso   1.000  C
  C163     1.0000 0.52065  0.56824  0.93030  Biso   1.000  C
  H115     1.0000 0.50430  0.59670  0.97020  Biso   1.000  H
  C164     1.0000 0.54913  0.58599  0.84880  Biso   1.000  C
  H116     1.0000 0.55170  0.62580  0.83430  Biso   1.000  H
  Co5      1.0000 0.82553  0.20508  0.53846  Biso   1.000  Co
  O17      1.0000 0.79614  0.28649  0.48648  Biso   1.000  O
  O18      1.0000 0.88076  0.34016  0.48250  Biso   1.000  O
  O19      1.0000 0.67801  0.33483  0.90335  Biso   1.000  O
  O20      1.0000 0.58614  0.32202  0.84214  Biso   1.000  O
  N25      1.0000 0.73426  0.18197  0.56380  Biso   1.000  N
  N26      1.0000 0.64940  0.13318  0.58915  Biso   1.000  N
  N27      1.0000 0.36907  0.80105  0.70651  Biso   1.000  N
  N28      1.0000 0.33169  0.74329  0.81812  Biso   1.000  N
  N29      1.0000 0.85677  0.12366  0.59621  Biso   1.000  N
  N30      1.0000 0.89578  0.06316  0.70288  Biso   1.000  N
  C165     1.0000 0.82537  0.33268  0.46980  Biso   1.000  C
  C166     1.0000 0.79063  0.38382  0.42760  Biso   1.000  C
  C167     1.0000 0.73629  0.40509  0.46570  Biso   1.000  C
  C168     1.0000 0.70596  0.44973  0.41740  Biso   1.000  C
  H117     1.0000 0.66960  0.46350  0.44120  Biso   1.000  H
  C169     1.0000 0.72918  0.47398  0.33430  Biso   1.000  C
  H118     1.0000 0.70840  0.50380  0.30310  Biso   1.000  H
  C170     1.0000 0.78268  0.45400  0.29820  Biso   1.000  C
  H119     1.0000 0.79820  0.47030  0.24280  Biso   1.000  H
  C171     1.0000 0.81376  0.40921  0.34470  Biso   1.000  C
  H120     1.0000 0.85020  0.39610  0.32040  Biso   1.000  H
  C172     1.0000 0.71180  0.38495  0.55950  Biso   1.000  C
  C173     1.0000 0.65117  0.37021  0.57010  Biso   1.000  C
  H121     1.0000 0.62600  0.37070  0.51730  Biso   1.000  H
  C174     1.0000 0.62814  0.35479  0.65880  Biso   1.000  C
  H122     1.0000 0.58780  0.34500  0.66440  Biso   1.000  H
  C175     1.0000 0.66472  0.35377  0.73920  Biso   1.000  C
  C176     1.0000 0.72511  0.36829  0.72860  Biso   1.000  C
  H123     1.0000 0.75030  0.36740  0.78130  Biso   1.000  H
  C177     1.0000 0.74818  0.38401  0.64030  Biso   1.000  C
  H124     1.0000 0.78850  0.39410  0.63500  Biso   1.000  H
  C178     1.0000 0.64108  0.33521  0.83590  Biso   1.000  C
  C179     1.0000 0.70593  0.13147  0.55380  Biso   1.000  C
  H125     1.0000 0.72280  0.09840  0.52560  Biso   1.000  H
  C180     1.0000 0.69389  0.21830  0.60790  Biso   1.000  C
  H126     1.0000 0.70130  0.25720  0.62450  Biso   1.000  H
  C181     1.0000 0.64154  0.18955  0.62390  Biso   1.000  C
  H127     1.0000 0.60720  0.20470  0.65250  Biso   1.000  H
  C182     1.0000 0.60749  0.08578  0.59440  Biso   1.000  C
  C183     1.0000 0.54920  0.09604  0.62430  Biso   1.000  C
  H128     1.0000 0.53720  0.13400  0.63990  Biso   1.000  H
  C184     1.0000 0.50866  0.04984  0.63100  Biso   1.000  C
  H129     1.0000 0.46960  0.05770  0.65030  Biso   1.000  H
  C185     1.0000 0.52451  0.99245  0.60990  Biso   1.000  C
  C186     1.0000 0.58298  0.98307  0.57750  Biso   1.000  C
  H130     1.0000 0.59470  0.94520  0.56080  Biso   1.000  H
  C187     1.0000 0.62419  0.02878  0.56950  Biso   1.000  C
  H131     1.0000 0.66280  0.02130  0.54750  Biso   1.000  H
  C188     1.0000 0.48156  0.94288  0.62430  Biso   1.000  C
  C189     1.0000 0.42626  0.95214  0.66760  Biso   1.000  C
  H132     1.0000 0.41460  0.99040  0.68220  Biso   1.000  H
  C190     1.0000 0.38807  0.90614  0.68950  Biso   1.000  C
  H133     1.0000 0.35120  0.91360  0.71800  Biso   1.000  H
  C191     1.0000 0.40486  0.84916  0.66890  Biso   1.000  C
  C192     1.0000 0.45782  0.83871  0.62180  Biso   1.000  C
  H134     1.0000 0.46840  0.80050  0.60520  Biso   1.000  H
  C193     1.0000 0.49544  0.88506  0.59920  Biso   1.000  C
  H135     1.0000 0.53090  0.87750  0.56640  Biso   1.000  H
  C194     1.0000 0.36776  0.78778  0.80050  Biso   1.000  C
  H136     1.0000 0.38960  0.80770  0.84680  Biso   1.000  H
  C195     1.0000 0.30821  0.72751  0.73030  Biso   1.000  C
  H137     1.0000 0.28070  0.69740  0.72010  Biso   1.000  H
  C196     1.0000 0.33161  0.76291  0.66100  Biso   1.000  C
  H138     1.0000 0.32360  0.76130  0.59610  Biso   1.000  H
  C197     1.0000 0.88618  0.11953  0.67700  Biso   1.000  C
  H139     1.0000 0.89890  0.15180  0.71230  Biso   1.000  H
  C198     1.0000 0.84732  0.06692  0.56780  Biso   1.000  C
  H140     1.0000 0.82780  0.05590  0.51220  Biso   1.000  H
  C199     1.0000 0.87050  0.02927  0.63230  Biso   1.000  C
  H141     1.0000 0.86960  0.98840  0.62970  Biso   1.000  H
  C200     1.0000 0.92584  0.04483  0.78780  Biso   1.000  C
  C201     1.0000 0.93064  0.98594  0.81010  Biso   1.000  C
  H142     1.0000 0.91450  0.95770  0.76960  Biso   1.000  H
  C202     1.0000 0.95961  0.96874  0.89290  Biso   1.000  C
  H143     1.0000 0.96240  0.92880  0.90690  Biso   1.000  H
  C203     1.0000 0.98468  0.00920  0.95580  Biso   1.000  C
  C204     1.0000 0.97935  0.06824  0.93030  Biso   1.000  C
  H144     1.0000 0.99570  0.09670  0.97020  Biso   1.000  H
  C205     1.0000 0.95087  0.08599  0.84880  Biso   1.000  C
  H145     1.0000 0.94830  0.12580  0.83430  Biso   1.000  H
  Co6      1.0000 0.67447  0.29492  0.03846  Biso   1.000  Co
  O21      1.0000 0.70386  0.21351  0.98648  Biso   1.000  O
  O22      1.0000 0.61924  0.15984  0.98250  Biso   1.000  O
  O23      1.0000 0.82199  0.16517  0.40335  Biso   1.000  O
  O24      1.0000 0.91386  0.17798  0.34214  Biso   1.000  O
  N31      1.0000 0.76574  0.31803  0.06380  Biso   1.000  N
  N32      1.0000 0.85060  0.36682  0.08915  Biso   1.000  N
  N33      1.0000 0.13093  0.69895  0.20651  Biso   1.000  N
  N34      1.0000 0.16831  0.75671  0.31812  Biso   1.000  N
  N35      1.0000 0.64323  0.37634  0.09621  Biso   1.000  N
  N36      1.0000 0.60422  0.43684  0.20288  Biso   1.000  N
  C206     1.0000 0.67463  0.16732  0.96980  Biso   1.000  C
  C207     1.0000 0.70937  0.11618  0.92760  Biso   1.000  C
  C208     1.0000 0.76371  0.09491  0.96570  Biso   1.000  C
  C209     1.0000 0.79404  0.05027  0.91740  Biso   1.000  C
  H146     1.0000 0.83040  0.03650  0.94120  Biso   1.000  H
  C210     1.0000 0.77082  0.02602  0.83430  Biso   1.000  C
  H147     1.0000 0.79160  0.99620  0.80310  Biso   1.000  H
  C211     1.0000 0.71732  0.04600  0.79820  Biso   1.000  C
  H148     1.0000 0.70180  0.02970  0.74280  Biso   1.000  H
  C212     1.0000 0.68624  0.09079  0.84470  Biso   1.000  C
  H149     1.0000 0.64980  0.10390  0.82040  Biso   1.000  H
  C213     1.0000 0.78820  0.11505  0.05950  Biso   1.000  C
  C214     1.0000 0.84883  0.12979  0.07010  Biso   1.000  C
  H150     1.0000 0.87400  0.12930  0.01730  Biso   1.000  H
  C215     1.0000 0.87186  0.14521  0.15880  Biso   1.000  C
  H151     1.0000 0.91220  0.15500  0.16440  Biso   1.000  H
  C216     1.0000 0.83528  0.14623  0.23920  Biso   1.000  C
  C217     1.0000 0.77489  0.13171  0.22860  Biso   1.000  C
  H152     1.0000 0.74970  0.13260  0.28130  Biso   1.000  H
  C218     1.0000 0.75182  0.11599  0.14030  Biso   1.000  C
  H153     1.0000 0.71150  0.10590  0.13500  Biso   1.000  H
  C219     1.0000 0.85892  0.16479  0.33590  Biso   1.000  C
  C220     1.0000 0.79407  0.36853  0.05380  Biso   1.000  C
  H154     1.0000 0.77720  0.40160  0.02560  Biso   1.000  H
  C221     1.0000 0.80611  0.28170  0.10790  Biso   1.000  C
  H155     1.0000 0.79870  0.24280  0.12450  Biso   1.000  H
  C222     1.0000 0.85846  0.31045  0.12390  Biso   1.000  C
  H156     1.0000 0.89280  0.29530  0.15250  Biso   1.000  H
  C223     1.0000 0.89251  0.41422  0.09440  Biso   1.000  C
  C224     1.0000 0.95080  0.40396  0.12430  Biso   1.000  C
  H157     1.0000 0.96280  0.36600  0.13990  Biso   1.000  H
  C225     1.0000 0.99134  0.45016  0.13100  Biso   1.000  C
  H158     1.0000 0.03040  0.44230  0.15030  Biso   1.000  H
  C226     1.0000 0.97549  0.50755  0.10990  Biso   1.000  C
  C227     1.0000 0.91702  0.51693  0.07750  Biso   1.000  C
  H159     1.0000 0.90530  0.55480  0.06080  Biso   1.000  H
  C228     1.0000 0.87581  0.47122  0.06950  Biso   1.000  C
  H160     1.0000 0.83720  0.47870  0.04750  Biso   1.000  H
  C229     1.0000 0.01844  0.55712  0.12430  Biso   1.000  C
  C230     1.0000 0.07374  0.54786  0.16760  Biso   1.000  C
  H161     1.0000 0.08540  0.50960  0.18220  Biso   1.000  H
  C231     1.0000 0.11193  0.59386  0.18950  Biso   1.000  C
  H162     1.0000 0.14880  0.58640  0.21800  Biso   1.000  H
  C232     1.0000 0.09514  0.65084  0.16890  Biso   1.000  C
  C233     1.0000 0.04218  0.66129  0.12180  Biso   1.000  C
  H163     1.0000 0.03160  0.69950  0.10520  Biso   1.000  H
  C234     1.0000 0.00456  0.61494  0.09920  Biso   1.000  C
  H164     1.0000 0.96910  0.62250  0.06640  Biso   1.000  H
  C235     1.0000 0.13224  0.71222  0.30050  Biso   1.000  C
  H165     1.0000 0.11040  0.69230  0.34680  Biso   1.000  H
  C236     1.0000 0.19179  0.77249  0.23030  Biso   1.000  C
  H166     1.0000 0.21930  0.80260  0.22010  Biso   1.000  H
  C237     1.0000 0.16839  0.73709  0.16100  Biso   1.000  C
  H167     1.0000 0.17640  0.73870  0.09610  Biso   1.000  H
  C238     1.0000 0.61382  0.38047  0.17700  Biso   1.000  C
  H168     1.0000 0.60110  0.34820  0.21230  Biso   1.000  H
  C239     1.0000 0.65268  0.43308  0.06780  Biso   1.000  C
  H169     1.0000 0.67220  0.44410  0.01220  Biso   1.000  H
  C240     1.0000 0.62950  0.47073  0.13230  Biso   1.000  C
  H170     1.0000 0.63040  0.51160  0.12970  Biso   1.000  H
  C241     1.0000 0.57416  0.45517  0.28780  Biso   1.000  C
  C242     1.0000 0.56936  0.51406  0.31010  Biso   1.000  C
  H171     1.0000 0.58550  0.54230  0.26960  Biso   1.000  H
  C243     1.0000 0.54039  0.53126  0.39290  Biso   1.000  C
  H172     1.0000 0.53760  0.57120  0.40690  Biso   1.000  H
  C244     1.0000 0.51532  0.49080  0.45580  Biso   1.000  C
  C245     1.0000 0.52065  0.43176  0.43030  Biso   1.000  C
  H173     1.0000 0.50430  0.40330  0.47020  Biso   1.000  H
  C246     1.0000 0.54913  0.41401  0.34880  Biso   1.000  C
  H174     1.0000 0.55170  0.37420  0.33430  Biso   1.000  H
  Co7      1.0000 0.17447  0.79492  0.46154  Biso   1.000  Co
  O25      1.0000 0.20386  0.71351  0.51352  Biso   1.000  O
  O26      1.0000 0.11924  0.65984  0.51750  Biso   1.000  O
  O27      1.0000 0.32199  0.66517  0.09665  Biso   1.000  O
  O28      1.0000 0.41386  0.67798  0.15786  Biso   1.000  O
  N37      1.0000 0.26574  0.81803  0.43620  Biso   1.000  N
  N38      1.0000 0.35060  0.86682  0.41085  Biso   1.000  N
  N39      1.0000 0.63093  0.19895  0.29349  Biso   1.000  N
  N40      1.0000 0.66831  0.25671  0.18188  Biso   1.000  N
  N41      1.0000 0.14323  0.87634  0.40379  Biso   1.000  N
  N42      1.0000 0.10422  0.93684  0.29712  Biso   1.000  N
  C247     1.0000 0.17463  0.66732  0.53020  Biso   1.000  C
  C248     1.0000 0.20937  0.61618  0.57240  Biso   1.000  C
  C249     1.0000 0.26371  0.59491  0.53430  Biso   1.000  C
  C250     1.0000 0.29404  0.55027  0.58260  Biso   1.000  C
  H175     1.0000 0.33040  0.53650  0.55880  Biso   1.000  H
  C251     1.0000 0.27082  0.52602  0.66570  Biso   1.000  C
  H176     1.0000 0.29160  0.49620  0.69690  Biso   1.000  H
  C252     1.0000 0.21732  0.54600  0.70180  Biso   1.000  C
  H177     1.0000 0.20180  0.52970  0.75720  Biso   1.000  H
  C253     1.0000 0.18624  0.59079  0.65530  Biso   1.000  C
  H178     1.0000 0.14980  0.60390  0.67960  Biso   1.000  H
  C254     1.0000 0.28820  0.61505  0.44050  Biso   1.000  C
  C255     1.0000 0.34883  0.62979  0.42990  Biso   1.000  C
  H179     1.0000 0.37400  0.62930  0.48270  Biso   1.000  H
  C256     1.0000 0.37186  0.64521  0.34120  Biso   1.000  C
  H180     1.0000 0.41220  0.65500  0.33560  Biso   1.000  H
  C257     1.0000 0.33528  0.64623  0.26080  Biso   1.000  C
  C258     1.0000 0.27489  0.63171  0.27140  Biso   1.000  C
  H181     1.0000 0.24970  0.63260  0.21870  Biso   1.000  H
  C259     1.0000 0.25182  0.61599  0.35970  Biso   1.000  C
  H182     1.0000 0.21150  0.60590  0.36500  Biso   1.000  H
  C260     1.0000 0.35892  0.66479  0.16410  Biso   1.000  C
  C261     1.0000 0.29407  0.86853  0.44620  Biso   1.000  C
  H183     1.0000 0.27720  0.90160  0.47440  Biso   1.000  H
  C262     1.0000 0.30611  0.78170  0.39210  Biso   1.000  C
  H184     1.0000 0.29870  0.74280  0.37550  Biso   1.000  H
  C263     1.0000 0.35846  0.81045  0.37610  Biso   1.000  C
  H185     1.0000 0.39280  0.79530  0.34750  Biso   1.000  H
  C264     1.0000 0.39251  0.91422  0.40560  Biso   1.000  C
  C265     1.0000 0.45080  0.90396  0.37570  Biso   1.000  C
  H186     1.0000 0.46280  0.86600  0.36010  Biso   1.000  H
  C266     1.0000 0.49134  0.95016  0.36900  Biso   1.000  C
  H187     1.0000 0.53040  0.94230  0.34970  Biso   1.000  H
  C267     1.0000 0.47549  0.00755  0.39010  Biso   1.000  C
  C268     1.0000 0.41702  0.01693  0.42250  Biso   1.000  C
  H188     1.0000 0.40530  0.05480  0.43920  Biso   1.000  H
  C269     1.0000 0.37581  0.97122  0.43050  Biso   1.000  C
  H189     1.0000 0.33720  0.97870  0.45250  Biso   1.000  H
  C270     1.0000 0.51844  0.05712  0.37570  Biso   1.000  C
  C271     1.0000 0.57374  0.04786  0.33240  Biso   1.000  C
  H190     1.0000 0.58540  0.00960  0.31780  Biso   1.000  H
  C272     1.0000 0.61193  0.09386  0.31050  Biso   1.000  C
  H191     1.0000 0.64880  0.08640  0.28200  Biso   1.000  H
  C273     1.0000 0.59514  0.15084  0.33110  Biso   1.000  C
  C274     1.0000 0.54218  0.16129  0.37820  Biso   1.000  C
  H192     1.0000 0.53160  0.19950  0.39480  Biso   1.000  H
  C275     1.0000 0.50456  0.11494  0.40080  Biso   1.000  C
  H193     1.0000 0.46910  0.12250  0.43360  Biso   1.000  H
  C276     1.0000 0.63224  0.21222  0.19950  Biso   1.000  C
  H194     1.0000 0.61040  0.19230  0.15320  Biso   1.000  H
  C277     1.0000 0.69179  0.27249  0.26970  Biso   1.000  C
  H195     1.0000 0.71930  0.30260  0.27990  Biso   1.000  H
  C278     1.0000 0.66839  0.23709  0.33900  Biso   1.000  C
  H196     1.0000 0.67640  0.23870  0.40390  Biso   1.000  H
  C279     1.0000 0.11382  0.88047  0.32300  Biso   1.000  C
  H197     1.0000 0.10110  0.84820  0.28770  Biso   1.000  H
  C280     1.0000 0.15268  0.93308  0.43220  Biso   1.000  C
  H198     1.0000 0.17220  0.94410  0.48780  Biso   1.000  H
  C281     1.0000 0.12950  0.97073  0.36770  Biso   1.000  C
  H199     1.0000 0.13040  0.01160  0.37030  Biso   1.000  H
  C282     1.0000 0.07416  0.95517  0.21220  Biso   1.000  C
  C283     1.0000 0.06936  0.01406  0.18990  Biso   1.000  C
  H200     1.0000 0.08550  0.04230  0.23040  Biso   1.000  H
  C284     1.0000 0.04039  0.03126  0.10710  Biso   1.000  C
  H201     1.0000 0.03760  0.07120  0.09310  Biso   1.000  H
  C285     1.0000 0.01532  0.99080  0.04420  Biso   1.000  C
  C286     1.0000 0.02065  0.93176  0.06970  Biso   1.000  C
  H202     1.0000 0.00430  0.90330  0.02980  Biso   1.000  H
  C287     1.0000 0.04913  0.91401  0.15120  Biso   1.000  C
  H203     1.0000 0.05170  0.87420  0.16570  Biso   1.000  H
  Co8      1.0000 0.32553  0.70508  0.96154  Biso   1.000  Co
  O29      1.0000 0.29614  0.78649  0.01352  Biso   1.000  O
  O30      1.0000 0.38076  0.84016  0.01750  Biso   1.000  O
  O31      1.0000 0.17801  0.83483  0.59665  Biso   1.000  O
  O32      1.0000 0.08614  0.82202  0.65786  Biso   1.000  O
  N43      1.0000 0.23426  0.68197  0.93620  Biso   1.000  N
  N44      1.0000 0.14940  0.63318  0.91085  Biso   1.000  N
  N45      1.0000 0.86907  0.30105  0.79349  Biso   1.000  N
  N46      1.0000 0.83169  0.24329  0.68188  Biso   1.000  N
  N47      1.0000 0.35677  0.62366  0.90379  Biso   1.000  N
  N48      1.0000 0.39578  0.56316  0.79712  Biso   1.000  N
  C288     1.0000 0.32537  0.83268  0.03020  Biso   1.000  C
  C289     1.0000 0.29063  0.88382  0.07240  Biso   1.000  C
  C290     1.0000 0.23629  0.90509  0.03430  Biso   1.000  C
  C291     1.0000 0.20596  0.94973  0.08260  Biso   1.000  C
  H204     1.0000 0.16960  0.96350  0.05880  Biso   1.000  H
  C292     1.0000 0.22918  0.97398  0.16570  Biso   1.000  C
  H205     1.0000 0.20840  0.00380  0.19690  Biso   1.000  H
  C293     1.0000 0.28268  0.95400  0.20180  Biso   1.000  C
  H206     1.0000 0.29820  0.97030  0.25720  Biso   1.000  H
  C294     1.0000 0.31376  0.90921  0.15530  Biso   1.000  C
  H207     1.0000 0.35020  0.89610  0.17960  Biso   1.000  H
  C295     1.0000 0.21180  0.88495  0.94050  Biso   1.000  C
  C296     1.0000 0.15117  0.87021  0.92990  Biso   1.000  C
  H208     1.0000 0.12600  0.87070  0.98270  Biso   1.000  H
  C297     1.0000 0.12814  0.85479  0.84120  Biso   1.000  C
  H209     1.0000 0.08780  0.84500  0.83560  Biso   1.000  H
  C298     1.0000 0.16472  0.85377  0.76080  Biso   1.000  C
  C299     1.0000 0.22511  0.86829  0.77140  Biso   1.000  C
  H210     1.0000 0.25030  0.86740  0.71870  Biso   1.000  H
  C300     1.0000 0.24818  0.88401  0.85970  Biso   1.000  C
  H211     1.0000 0.28850  0.89410  0.86500  Biso   1.000  H
  C301     1.0000 0.14108  0.83521  0.66410  Biso   1.000  C
  C302     1.0000 0.20593  0.63147  0.94620  Biso   1.000  C
  H212     1.0000 0.22280  0.59840  0.97440  Biso   1.000  H
  C303     1.0000 0.19389  0.71830  0.89210  Biso   1.000  C
  H213     1.0000 0.20130  0.75720  0.87550  Biso   1.000  H
  C304     1.0000 0.14154  0.68955  0.87610  Biso   1.000  C
  H214     1.0000 0.10720  0.70470  0.84750  Biso   1.000  H
  C305     1.0000 0.10749  0.58578  0.90560  Biso   1.000  C
  C306     1.0000 0.04920  0.59604  0.87570  Biso   1.000  C
  H215     1.0000 0.03720  0.63400  0.86010  Biso   1.000  H
  C307     1.0000 0.00866  0.54984  0.86900  Biso   1.000  C
  H216     1.0000 0.96960  0.55770  0.84970  Biso   1.000  H
  C308     1.0000 0.02451  0.49245  0.89010  Biso   1.000  C
  C309     1.0000 0.08298  0.48307  0.92250  Biso   1.000  C
  H217     1.0000 0.09470  0.44520  0.93920  Biso   1.000  H
  C310     1.0000 0.12419  0.52878  0.93050  Biso   1.000  C
  H218     1.0000 0.16280  0.52130  0.95250  Biso   1.000  H
  C311     1.0000 0.98156  0.44288  0.87570  Biso   1.000  C
  C312     1.0000 0.92626  0.45214  0.83240  Biso   1.000  C
  H219     1.0000 0.91460  0.49040  0.81780  Biso   1.000  H
  C313     1.0000 0.88807  0.40614  0.81050  Biso   1.000  C
  H220     1.0000 0.85120  0.41360  0.78200  Biso   1.000  H
  C314     1.0000 0.90486  0.34916  0.83110  Biso   1.000  C
  C315     1.0000 0.95782  0.33871  0.87820  Biso   1.000  C
  H221     1.0000 0.96840  0.30050  0.89480  Biso   1.000  H
  C316     1.0000 0.99544  0.38506  0.90080  Biso   1.000  C
  H222     1.0000 0.03090  0.37750  0.93360  Biso   1.000  H
  C317     1.0000 0.86776  0.28778  0.69950  Biso   1.000  C
  H223     1.0000 0.88960  0.30770  0.65320  Biso   1.000  H
  C318     1.0000 0.80821  0.22751  0.76970  Biso   1.000  C
  H224     1.0000 0.78070  0.19740  0.77990  Biso   1.000  H
  C319     1.0000 0.83161  0.26291  0.83900  Biso   1.000  C
  H225     1.0000 0.82360  0.26130  0.90390  Biso   1.000  H
  C320     1.0000 0.38618  0.61953  0.82300  Biso   1.000  C
  H226     1.0000 0.39890  0.65180  0.78770  Biso   1.000  H
  C321     1.0000 0.34732  0.56692  0.93220  Biso   1.000  C
  H227     1.0000 0.32780  0.55590  0.98780  Biso   1.000  H
  C322     1.0000 0.37050  0.52927  0.86770  Biso   1.000  C
  H228     1.0000 0.36960  0.48840  0.87030  Biso   1.000  H
  C323     1.0000 0.42584  0.54483  0.71220  Biso   1.000  C
  C324     1.0000 0.43064  0.48594  0.68990  Biso   1.000  C
  H229     1.0000 0.41450  0.45770  0.73040  Biso   1.000  H
  C325     1.0000 0.45961  0.46874  0.60710  Biso   1.000  C
  H230     1.0000 0.46240  0.42880  0.59310  Biso   1.000  H
  C326     1.0000 0.48468  0.50920  0.54420  Biso   1.000  C
  C327     1.0000 0.47935  0.56824  0.56970  Biso   1.000  C
  H231     1.0000 0.49570  0.59670  0.52980  Biso   1.000  H
  C328     1.0000 0.45087  0.58599  0.65120  Biso   1.000  C
  H232     1.0000 0.44830  0.62580  0.66570  Biso   1.000  H
