data_image0
_cell_length_a       40.709
_cell_length_b       40.709
_cell_length_c       17.468
_cell_angle_alpha    90
_cell_angle_beta     90
_cell_angle_gamma    90

_symmetry_space_group_name_H-M    "P 1"
_symmetry_int_tables_number       1

loop_
  _symmetry_equiv_pos_as_xyz
  'x, y, z'

loop_
  _atom_site_label
  _atom_site_occupancy
  _atom_site_fract_x
  _atom_site_fract_y
  _atom_site_fract_z
  _atom_site_thermal_displace_type
  _atom_site_B_iso_or_equiv
  _atom_site_type_symbol
  Mn1      1.0000 0.29582  0.82420  0.07856  Biso   1.000  Mn
  O1       1.0000 0.27079  0.84493  0.00360  Biso   1.000  O
  O2       1.0000 0.27751  0.74527  0.93435  Biso   1.000  O
  O3       1.0000 0.32031  0.79578  0.14742  Biso   1.000  O
  N1       1.0000 0.29019  0.78262  0.02640  Biso   1.000  N
  N2       1.0000 0.30590  0.75553  0.06390  Biso   1.000  N
  C1       1.0000 0.25513  0.83265  0.94570  Biso   1.000  C
  C2       1.0000 0.23497  0.85414  0.90100  Biso   1.000  C
  H1       1.0000 0.23130  0.87590  0.91890  Biso   1.000  H
  C3       1.0000 0.22110  0.84490  0.83530  Biso   1.000  C
  H2       1.0000 0.20810  0.86020  0.80780  Biso   1.000  H
  C4       1.0000 0.22520  0.81360  0.80620  Biso   1.000  C
  H3       1.0000 0.21580  0.80760  0.75840  Biso   1.000  H
  C5       1.0000 0.24380  0.79066  0.84970  Biso   1.000  C
  H4       1.0000 0.24630  0.76880  0.83150  Biso   1.000  H
  C6       1.0000 0.25829  0.79985  0.91840  Biso   1.000  C
  C7       1.0000 0.27600  0.77473  0.96110  Biso   1.000  C
  C8       1.0000 0.32021  0.76529  0.12590  Biso   1.000  C
  C9       1.0000 0.33749  0.74004  0.17450  Biso   1.000  C
  H5       1.0000 0.35030  0.72560  0.14000  Biso   1.000  H
  H6       1.0000 0.32060  0.72630  0.19950  Biso   1.000  H
  C10      1.0000 0.36040  0.75268  0.23590  Biso   1.000  C
  H7       1.0000 0.37600  0.76820  0.21320  Biso   1.000  H
  H8       1.0000 0.37240  0.73420  0.25850  Biso   1.000  H
  H9       1.0000 0.34760  0.76380  0.27570  Biso   1.000  H
  Mn2      1.0000 0.28913  0.70912  0.00461  Biso   1.000  Mn
  O4       1.0000 0.33059  0.69969  0.96493  Biso   1.000  O
  O5       1.0000 0.31744  0.63438  0.15214  Biso   1.000  O
  O6       1.0000 0.24693  0.71262  0.05571  Biso   1.000  O
  N3       1.0000 0.29370  0.67417  0.07927  Biso   1.000  N
  N4       1.0000 0.26550  0.66881  0.12450  Biso   1.000  N
  N5       1.0000 0.26291  0.67619  0.91740  Biso   1.000  N
  C11      1.0000 0.35236  0.67703  0.98610  Biso   1.000  C
  C12      1.0000 0.38153  0.67542  0.94350  Biso   1.000  C
  H10      1.0000 0.38500  0.69050  0.90270  Biso   1.000  H
  C13      1.0000 0.40528  0.65222  0.96020  Biso   1.000  C
  H11      1.0000 0.42440  0.65090  0.92910  Biso   1.000  H
  C14      1.0000 0.40175  0.63109  0.02080  Biso   1.000  C
  H12      1.0000 0.41840  0.61550  0.03270  Biso   1.000  H
  C15      1.0000 0.37342  0.63293  0.06430  Biso   1.000  C
  H13      1.0000 0.37080  0.61840  0.10650  Biso   1.000  H
  C16      1.0000 0.34850  0.65562  0.04770  Biso   1.000  C
  C17      1.0000 0.31888  0.65447  0.09580  Biso   1.000  C
  C18      1.0000 0.24278  0.68975  0.10720  Biso   1.000  C
  C19      1.0000 0.20981  0.68707  0.14460  Biso   1.000  C
  H14      1.0000 0.20890  0.66600  0.17280  Biso   1.000  H
  H15      1.0000 0.20780  0.70500  0.18270  Biso   1.000  H
  C20      1.0000 0.18114  0.68870  0.09230  Biso   1.000  C
  H16      1.0000 0.18360  0.70750  0.05770  Biso   1.000  H
  H17      1.0000 0.16100  0.69120  0.12240  Biso   1.000  H
  H18      1.0000 0.17990  0.66840  0.06220  Biso   1.000  H
  C21      1.0000 0.23340  0.68519  0.89400  Biso   1.000  C
  H19      1.0000 0.22530  0.70620  0.90860  Biso   1.000  H
  C22      1.0000 0.21330  0.66500  0.84850  Biso   1.000  C
  H20      1.0000 0.19150  0.67110  0.83560  Biso   1.000  H
  C23      1.0000 0.22730  0.63485  0.82280  Biso   1.000  C
  C24      1.0000 0.25340  0.62587  0.85500  Biso   1.000  C
  H21      1.0000 0.26110  0.60410  0.84740  Biso   1.000  H
  C25      1.0000 0.27140  0.64689  0.90130  Biso   1.000  C
  H22      1.0000 0.29130  0.63890  0.92250  Biso   1.000  H
  C26      1.0000 0.21040  0.61233  0.76440  Biso   1.000  C
  H23      1.0000 0.22750  0.60290  0.73070  Biso   1.000  H
  H24      1.0000 0.20010  0.59390  0.79250  Biso   1.000  H
  Mn3      1.0000 0.22044  0.86339  0.27620  Biso   1.000  Mn
  O7       1.0000 0.24060  0.90105  0.31263  Biso   1.000  O
  O8       1.0000 0.30292  0.86518  0.13573  Biso   1.000  O
  O9       1.0000 0.20526  0.82341  0.22736  Biso   1.000  O
  N6       1.0000 0.25618  0.85604  0.20426  Biso   1.000  N
  N7       1.0000 0.25359  0.82664  0.16230  Biso   1.000  N
  N8       1.0000 0.14199  0.56018  0.55940  Biso   1.000  N
  C27      1.0000 0.26571  0.91776  0.28330  Biso   1.000  C
  C28      1.0000 0.27225  0.94870  0.31460  Biso   1.000  C
  H25      1.0000 0.25890  0.95640  0.35540  Biso   1.000  H
  C29      1.0000 0.29724  0.96817  0.28870  Biso   1.000  C
  H26      1.0000 0.30080  0.98910  0.31110  Biso   1.000  H
  C30      1.0000 0.31769  0.95722  0.22900  Biso   1.000  C
  H27      1.0000 0.33500  0.97070  0.21020  Biso   1.000  H
  C31      1.0000 0.31202  0.92665  0.19870  Biso   1.000  C
  H28      1.0000 0.32620  0.91880  0.15940  Biso   1.000  H
  C32      1.0000 0.28634  0.90662  0.22310  Biso   1.000  C
  C33      1.0000 0.28177  0.87475  0.18600  Biso   1.000  C
  C34      1.0000 0.22625  0.81187  0.17830  Biso   1.000  C
  C35      1.0000 0.21717  0.78092  0.13800  Biso   1.000  C
  H29      1.0000 0.23680  0.77100  0.11390  Biso   1.000  H
  H30      1.0000 0.20790  0.76490  0.17490  Biso   1.000  H
  C36      1.0000 0.18960  0.79010  0.07200  Biso   1.000  C
  H31      1.0000 0.19730  0.80890  0.04190  Biso   1.000  H
  H32      1.0000 0.18650  0.77110  0.03810  Biso   1.000  H
  H33      1.0000 0.16870  0.79560  0.09670  Biso   1.000  H
  C37      1.0000 0.16508  0.58066  0.53640  Biso   1.000  C
  H34      1.0000 0.17120  0.58080  0.48390  Biso   1.000  H
  C38      1.0000 0.18084  0.60207  0.58680  Biso   1.000  C
  H35      1.0000 0.19800  0.61590  0.56900  Biso   1.000  H
  C39      1.0000 0.17130  0.60305  0.66360  Biso   1.000  C
  C40      1.0000 0.14812  0.58135  0.68540  Biso   1.000  C
  H36      1.0000 0.14140  0.58070  0.73740  Biso   1.000  H
  C41      1.0000 0.13428  0.56045  0.63470  Biso   1.000  C
  H37      1.0000 0.11840  0.54520  0.65280  Biso   1.000  H
  C42      1.0000 0.18700  0.62670  0.71930  Biso   1.000  C
  H38      1.0000 0.19720  0.64490  0.69020  Biso   1.000  H
  H39      1.0000 0.16970  0.63620  0.75240  Biso   1.000  H
  Mn4      1.0000 0.79582  0.32420  0.57856  Biso   1.000  Mn
  O10      1.0000 0.77079  0.34493  0.50360  Biso   1.000  O
  O11      1.0000 0.77751  0.24527  0.43435  Biso   1.000  O
  O12      1.0000 0.82031  0.29578  0.64742  Biso   1.000  O
  N9       1.0000 0.79019  0.28262  0.52640  Biso   1.000  N
  N10      1.0000 0.80590  0.25553  0.56390  Biso   1.000  N
  C43      1.0000 0.75513  0.33265  0.44570  Biso   1.000  C
  C44      1.0000 0.73497  0.35414  0.40100  Biso   1.000  C
  H40      1.0000 0.73130  0.37590  0.41890  Biso   1.000  H
  C45      1.0000 0.72110  0.34490  0.33530  Biso   1.000  C
  H41      1.0000 0.70810  0.36020  0.30780  Biso   1.000  H
  C46      1.0000 0.72520  0.31360  0.30620  Biso   1.000  C
  H42      1.0000 0.71580  0.30760  0.25840  Biso   1.000  H
  C47      1.0000 0.74380  0.29066  0.34970  Biso   1.000  C
  H43      1.0000 0.74630  0.26880  0.33150  Biso   1.000  H
  C48      1.0000 0.75829  0.29985  0.41840  Biso   1.000  C
  C49      1.0000 0.77600  0.27473  0.46110  Biso   1.000  C
  C50      1.0000 0.82021  0.26529  0.62590  Biso   1.000  C
  C51      1.0000 0.83749  0.24004  0.67450  Biso   1.000  C
  H44      1.0000 0.85030  0.22560  0.64000  Biso   1.000  H
  H45      1.0000 0.82060  0.22630  0.69950  Biso   1.000  H
  C52      1.0000 0.86040  0.25268  0.73590  Biso   1.000  C
  H46      1.0000 0.87600  0.26820  0.71320  Biso   1.000  H
  H47      1.0000 0.87240  0.23420  0.75850  Biso   1.000  H
  H48      1.0000 0.84760  0.26380  0.77570  Biso   1.000  H
  Mn5      1.0000 0.78913  0.20912  0.50461  Biso   1.000  Mn
  O13      1.0000 0.83059  0.19969  0.46493  Biso   1.000  O
  O14      1.0000 0.81744  0.13438  0.65214  Biso   1.000  O
  O15      1.0000 0.74693  0.21262  0.55571  Biso   1.000  O
  N11      1.0000 0.79370  0.17417  0.57927  Biso   1.000  N
  N12      1.0000 0.76550  0.16881  0.62450  Biso   1.000  N
  N13      1.0000 0.76291  0.17619  0.41740  Biso   1.000  N
  C53      1.0000 0.85236  0.17703  0.48610  Biso   1.000  C
  C54      1.0000 0.88153  0.17542  0.44350  Biso   1.000  C
  H49      1.0000 0.88500  0.19050  0.40270  Biso   1.000  H
  C55      1.0000 0.90528  0.15222  0.46020  Biso   1.000  C
  H50      1.0000 0.92440  0.15090  0.42910  Biso   1.000  H
  C56      1.0000 0.90175  0.13109  0.52080  Biso   1.000  C
  H51      1.0000 0.91840  0.11550  0.53270  Biso   1.000  H
  C57      1.0000 0.87342  0.13293  0.56430  Biso   1.000  C
  H52      1.0000 0.87080  0.11840  0.60650  Biso   1.000  H
  C58      1.0000 0.84850  0.15562  0.54770  Biso   1.000  C
  C59      1.0000 0.81888  0.15447  0.59580  Biso   1.000  C
  C60      1.0000 0.74278  0.18975  0.60720  Biso   1.000  C
  C61      1.0000 0.70981  0.18707  0.64460  Biso   1.000  C
  H53      1.0000 0.70890  0.16600  0.67280  Biso   1.000  H
  H54      1.0000 0.70780  0.20500  0.68270  Biso   1.000  H
  C62      1.0000 0.68114  0.18870  0.59230  Biso   1.000  C
  H55      1.0000 0.68360  0.20750  0.55770  Biso   1.000  H
  H56      1.0000 0.66100  0.19120  0.62240  Biso   1.000  H
  H57      1.0000 0.67990  0.16840  0.56220  Biso   1.000  H
  C63      1.0000 0.73340  0.18519  0.39400  Biso   1.000  C
  H58      1.0000 0.72530  0.20620  0.40860  Biso   1.000  H
  C64      1.0000 0.71330  0.16500  0.34850  Biso   1.000  C
  H59      1.0000 0.69150  0.17110  0.33560  Biso   1.000  H
  C65      1.0000 0.72730  0.13485  0.32280  Biso   1.000  C
  C66      1.0000 0.75340  0.12587  0.35500  Biso   1.000  C
  H60      1.0000 0.76110  0.10410  0.34740  Biso   1.000  H
  C67      1.0000 0.77140  0.14689  0.40130  Biso   1.000  C
  H61      1.0000 0.79130  0.13890  0.42250  Biso   1.000  H
  C68      1.0000 0.71040  0.11233  0.26440  Biso   1.000  C
  H62      1.0000 0.72750  0.10290  0.23070  Biso   1.000  H
  H63      1.0000 0.70010  0.09390  0.29250  Biso   1.000  H
  Mn6      1.0000 0.72044  0.36339  0.77620  Biso   1.000  Mn
  O16      1.0000 0.74060  0.40105  0.81263  Biso   1.000  O
  O17      1.0000 0.80292  0.36518  0.63573  Biso   1.000  O
  O18      1.0000 0.70526  0.32341  0.72736  Biso   1.000  O
  N14      1.0000 0.75618  0.35604  0.70426  Biso   1.000  N
  N15      1.0000 0.75359  0.32664  0.66230  Biso   1.000  N
  N16      1.0000 0.64199  0.06018  0.05940  Biso   1.000  N
  C69      1.0000 0.76571  0.41776  0.78330  Biso   1.000  C
  C70      1.0000 0.77225  0.44870  0.81460  Biso   1.000  C
  H64      1.0000 0.75890  0.45640  0.85540  Biso   1.000  H
  C71      1.0000 0.79724  0.46817  0.78870  Biso   1.000  C
  H65      1.0000 0.80080  0.48910  0.81110  Biso   1.000  H
  C72      1.0000 0.81769  0.45722  0.72900  Biso   1.000  C
  H66      1.0000 0.83500  0.47070  0.71020  Biso   1.000  H
  C73      1.0000 0.81202  0.42665  0.69870  Biso   1.000  C
  H67      1.0000 0.82620  0.41880  0.65940  Biso   1.000  H
  C74      1.0000 0.78634  0.40662  0.72310  Biso   1.000  C
  C75      1.0000 0.78177  0.37475  0.68600  Biso   1.000  C
  C76      1.0000 0.72625  0.31187  0.67830  Biso   1.000  C
  C77      1.0000 0.71717  0.28092  0.63800  Biso   1.000  C
  H68      1.0000 0.73680  0.27100  0.61390  Biso   1.000  H
  H69      1.0000 0.70790  0.26490  0.67490  Biso   1.000  H
  C78      1.0000 0.68960  0.29010  0.57200  Biso   1.000  C
  H70      1.0000 0.69730  0.30890  0.54190  Biso   1.000  H
  H71      1.0000 0.68650  0.27110  0.53810  Biso   1.000  H
  H72      1.0000 0.66870  0.29560  0.59670  Biso   1.000  H
  C79      1.0000 0.66508  0.08066  0.03640  Biso   1.000  C
  H73      1.0000 0.67120  0.08080  0.98390  Biso   1.000  H
  C80      1.0000 0.68084  0.10207  0.08680  Biso   1.000  C
  H74      1.0000 0.69800  0.11590  0.06900  Biso   1.000  H
  C81      1.0000 0.67130  0.10305  0.16360  Biso   1.000  C
  C82      1.0000 0.64812  0.08135  0.18540  Biso   1.000  C
  H75      1.0000 0.64140  0.08070  0.23740  Biso   1.000  H
  C83      1.0000 0.63428  0.06045  0.13470  Biso   1.000  C
  H76      1.0000 0.61840  0.04520  0.15280  Biso   1.000  H
  C84      1.0000 0.68700  0.12670  0.21930  Biso   1.000  C
  H77      1.0000 0.69720  0.14490  0.19020  Biso   1.000  H
  H78      1.0000 0.66970  0.13620  0.25240  Biso   1.000  H
  Mn7      1.0000 0.20418  0.17580  0.57856  Biso   1.000  Mn
  O19      1.0000 0.22921  0.15507  0.50360  Biso   1.000  O
  O20      1.0000 0.22249  0.25473  0.43435  Biso   1.000  O
  O21      1.0000 0.17969  0.20422  0.64742  Biso   1.000  O
  N17      1.0000 0.20981  0.21738  0.52640  Biso   1.000  N
  N18      1.0000 0.19410  0.24447  0.56390  Biso   1.000  N
  C85      1.0000 0.24487  0.16735  0.44570  Biso   1.000  C
  C86      1.0000 0.26503  0.14586  0.40100  Biso   1.000  C
  H79      1.0000 0.26870  0.12410  0.41890  Biso   1.000  H
  C87      1.0000 0.27890  0.15510  0.33530  Biso   1.000  C
  H80      1.0000 0.29190  0.13980  0.30780  Biso   1.000  H
  C88      1.0000 0.27480  0.18640  0.30620  Biso   1.000  C
  H81      1.0000 0.28420  0.19240  0.25840  Biso   1.000  H
  C89      1.0000 0.25620  0.20934  0.34970  Biso   1.000  C
  H82      1.0000 0.25370  0.23120  0.33150  Biso   1.000  H
  C90      1.0000 0.24171  0.20015  0.41840  Biso   1.000  C
  C91      1.0000 0.22400  0.22527  0.46110  Biso   1.000  C
  C92      1.0000 0.17979  0.23471  0.62590  Biso   1.000  C
  C93      1.0000 0.16251  0.25996  0.67450  Biso   1.000  C
  H83      1.0000 0.14970  0.27440  0.64000  Biso   1.000  H
  H84      1.0000 0.17940  0.27370  0.69950  Biso   1.000  H
  C94      1.0000 0.13960  0.24732  0.73590  Biso   1.000  C
  H85      1.0000 0.12400  0.23180  0.71320  Biso   1.000  H
  H86      1.0000 0.12760  0.26580  0.75850  Biso   1.000  H
  H87      1.0000 0.15240  0.23620  0.77570  Biso   1.000  H
  Mn8      1.0000 0.21087  0.29088  0.50461  Biso   1.000  Mn
  O22      1.0000 0.16941  0.30031  0.46493  Biso   1.000  O
  O23      1.0000 0.18256  0.36562  0.65214  Biso   1.000  O
  O24      1.0000 0.25307  0.28738  0.55571  Biso   1.000  O
  N19      1.0000 0.20630  0.32583  0.57927  Biso   1.000  N
  N20      1.0000 0.23450  0.33119  0.62450  Biso   1.000  N
  N21      1.0000 0.23709  0.32381  0.41740  Biso   1.000  N
  C95      1.0000 0.14764  0.32297  0.48610  Biso   1.000  C
  C96      1.0000 0.11847  0.32458  0.44350  Biso   1.000  C
  H88      1.0000 0.11500  0.30950  0.40270  Biso   1.000  H
  C97      1.0000 0.09472  0.34778  0.46020  Biso   1.000  C
  H89      1.0000 0.07560  0.34910  0.42910  Biso   1.000  H
  C98      1.0000 0.09825  0.36891  0.52080  Biso   1.000  C
  H90      1.0000 0.08160  0.38450  0.53270  Biso   1.000  H
  C99      1.0000 0.12658  0.36707  0.56430  Biso   1.000  C
  H91      1.0000 0.12920  0.38160  0.60650  Biso   1.000  H
  C100     1.0000 0.15150  0.34438  0.54770  Biso   1.000  C
  C101     1.0000 0.18112  0.34553  0.59580  Biso   1.000  C
  C102     1.0000 0.25722  0.31025  0.60720  Biso   1.000  C
  C103     1.0000 0.29019  0.31293  0.64460  Biso   1.000  C
  H92      1.0000 0.29110  0.33400  0.67280  Biso   1.000  H
  H93      1.0000 0.29220  0.29500  0.68270  Biso   1.000  H
  C104     1.0000 0.31886  0.31130  0.59230  Biso   1.000  C
  H94      1.0000 0.31640  0.29250  0.55770  Biso   1.000  H
  H95      1.0000 0.33900  0.30880  0.62240  Biso   1.000  H
  H96      1.0000 0.32010  0.33160  0.56220  Biso   1.000  H
  C105     1.0000 0.26660  0.31481  0.39400  Biso   1.000  C
  H97      1.0000 0.27470  0.29380  0.40860  Biso   1.000  H
  C106     1.0000 0.28670  0.33500  0.34850  Biso   1.000  C
  H98      1.0000 0.30850  0.32890  0.33560  Biso   1.000  H
  C107     1.0000 0.27270  0.36515  0.32280  Biso   1.000  C
  C108     1.0000 0.24660  0.37413  0.35500  Biso   1.000  C
  H99      1.0000 0.23890  0.39590  0.34740  Biso   1.000  H
  C109     1.0000 0.22860  0.35311  0.40130  Biso   1.000  C
  H100     1.0000 0.20870  0.36110  0.42250  Biso   1.000  H
  C110     1.0000 0.28960  0.38767  0.26440  Biso   1.000  C
  H101     1.0000 0.27250  0.39710  0.23070  Biso   1.000  H
  H102     1.0000 0.29990  0.40610  0.29250  Biso   1.000  H
  Mn9      1.0000 0.27956  0.13661  0.77620  Biso   1.000  Mn
  O25      1.0000 0.25940  0.09895  0.81263  Biso   1.000  O
  O26      1.0000 0.19708  0.13482  0.63573  Biso   1.000  O
  O27      1.0000 0.29474  0.17659  0.72736  Biso   1.000  O
  N22      1.0000 0.24382  0.14396  0.70426  Biso   1.000  N
  N23      1.0000 0.24641  0.17336  0.66230  Biso   1.000  N
  N24      1.0000 0.35801  0.43982  0.05940  Biso   1.000  N
  C111     1.0000 0.23429  0.08224  0.78330  Biso   1.000  C
  C112     1.0000 0.22775  0.05130  0.81460  Biso   1.000  C
  H103     1.0000 0.24110  0.04360  0.85540  Biso   1.000  H
  C113     1.0000 0.20276  0.03183  0.78870  Biso   1.000  C
  H104     1.0000 0.19920  0.01090  0.81110  Biso   1.000  H
  C114     1.0000 0.18231  0.04278  0.72900  Biso   1.000  C
  H105     1.0000 0.16500  0.02930  0.71020  Biso   1.000  H
  C115     1.0000 0.18798  0.07335  0.69870  Biso   1.000  C
  H106     1.0000 0.17380  0.08120  0.65940  Biso   1.000  H
  C116     1.0000 0.21366  0.09338  0.72310  Biso   1.000  C
  C117     1.0000 0.21823  0.12525  0.68600  Biso   1.000  C
  C118     1.0000 0.27375  0.18813  0.67830  Biso   1.000  C
  C119     1.0000 0.28283  0.21908  0.63800  Biso   1.000  C
  H107     1.0000 0.26320  0.22900  0.61390  Biso   1.000  H
  H108     1.0000 0.29210  0.23510  0.67490  Biso   1.000  H
  C120     1.0000 0.31040  0.20990  0.57200  Biso   1.000  C
  H109     1.0000 0.30270  0.19110  0.54190  Biso   1.000  H
  H110     1.0000 0.31350  0.22890  0.53810  Biso   1.000  H
  H111     1.0000 0.33130  0.20440  0.59670  Biso   1.000  H
  C121     1.0000 0.33492  0.41934  0.03640  Biso   1.000  C
  H112     1.0000 0.32880  0.41920  0.98390  Biso   1.000  H
  C122     1.0000 0.31916  0.39793  0.08680  Biso   1.000  C
  H113     1.0000 0.30200  0.38410  0.06900  Biso   1.000  H
  C123     1.0000 0.32870  0.39695  0.16360  Biso   1.000  C
  C124     1.0000 0.35188  0.41865  0.18540  Biso   1.000  C
  H114     1.0000 0.35860  0.41930  0.23740  Biso   1.000  H
  C125     1.0000 0.36572  0.43955  0.13470  Biso   1.000  C
  H115     1.0000 0.38160  0.45480  0.15280  Biso   1.000  H
  C126     1.0000 0.31300  0.37330  0.21930  Biso   1.000  C
  H116     1.0000 0.30280  0.35510  0.19020  Biso   1.000  H
  H117     1.0000 0.33030  0.36380  0.25240  Biso   1.000  H
  Mn10     1.0000 0.70418  0.67580  0.07856  Biso   1.000  Mn
  O28      1.0000 0.72921  0.65507  0.00360  Biso   1.000  O
  O29      1.0000 0.72249  0.75473  0.93435  Biso   1.000  O
  O30      1.0000 0.67969  0.70422  0.14742  Biso   1.000  O
  N25      1.0000 0.70981  0.71738  0.02640  Biso   1.000  N
  N26      1.0000 0.69410  0.74447  0.06390  Biso   1.000  N
  C127     1.0000 0.74487  0.66735  0.94570  Biso   1.000  C
  C128     1.0000 0.76503  0.64586  0.90100  Biso   1.000  C
  H118     1.0000 0.76870  0.62410  0.91890  Biso   1.000  H
  C129     1.0000 0.77890  0.65510  0.83530  Biso   1.000  C
  H119     1.0000 0.79190  0.63980  0.80780  Biso   1.000  H
  C130     1.0000 0.77480  0.68640  0.80620  Biso   1.000  C
  H120     1.0000 0.78420  0.69240  0.75840  Biso   1.000  H
  C131     1.0000 0.75620  0.70934  0.84970  Biso   1.000  C
  H121     1.0000 0.75370  0.73120  0.83150  Biso   1.000  H
  C132     1.0000 0.74171  0.70015  0.91840  Biso   1.000  C
  C133     1.0000 0.72400  0.72527  0.96110  Biso   1.000  C
  C134     1.0000 0.67979  0.73471  0.12590  Biso   1.000  C
  C135     1.0000 0.66251  0.75996  0.17450  Biso   1.000  C
  H122     1.0000 0.64970  0.77440  0.14000  Biso   1.000  H
  H123     1.0000 0.67940  0.77370  0.19950  Biso   1.000  H
  C136     1.0000 0.63960  0.74732  0.23590  Biso   1.000  C
  H124     1.0000 0.62400  0.73180  0.21320  Biso   1.000  H
  H125     1.0000 0.62760  0.76580  0.25850  Biso   1.000  H
  H126     1.0000 0.65240  0.73620  0.27570  Biso   1.000  H
  Mn11     1.0000 0.71087  0.79088  0.00461  Biso   1.000  Mn
  O31      1.0000 0.66941  0.80031  0.96493  Biso   1.000  O
  O32      1.0000 0.68256  0.86562  0.15214  Biso   1.000  O
  O33      1.0000 0.75307  0.78738  0.05571  Biso   1.000  O
  N27      1.0000 0.70630  0.82583  0.07927  Biso   1.000  N
  N28      1.0000 0.73450  0.83119  0.12450  Biso   1.000  N
  N29      1.0000 0.73709  0.82381  0.91740  Biso   1.000  N
  C137     1.0000 0.64764  0.82297  0.98610  Biso   1.000  C
  C138     1.0000 0.61847  0.82458  0.94350  Biso   1.000  C
  H127     1.0000 0.61500  0.80950  0.90270  Biso   1.000  H
  C139     1.0000 0.59472  0.84778  0.96020  Biso   1.000  C
  H128     1.0000 0.57560  0.84910  0.92910  Biso   1.000  H
  C140     1.0000 0.59825  0.86891  0.02080  Biso   1.000  C
  H129     1.0000 0.58160  0.88450  0.03270  Biso   1.000  H
  C141     1.0000 0.62658  0.86707  0.06430  Biso   1.000  C
  H130     1.0000 0.62920  0.88160  0.10650  Biso   1.000  H
  C142     1.0000 0.65150  0.84438  0.04770  Biso   1.000  C
  C143     1.0000 0.68112  0.84553  0.09580  Biso   1.000  C
  C144     1.0000 0.75722  0.81025  0.10720  Biso   1.000  C
  C145     1.0000 0.79019  0.81293  0.14460  Biso   1.000  C
  H131     1.0000 0.79110  0.83400  0.17280  Biso   1.000  H
  H132     1.0000 0.79220  0.79500  0.18270  Biso   1.000  H
  C146     1.0000 0.81886  0.81130  0.09230  Biso   1.000  C
  H133     1.0000 0.81640  0.79250  0.05770  Biso   1.000  H
  H134     1.0000 0.83900  0.80880  0.12240  Biso   1.000  H
  H135     1.0000 0.82010  0.83160  0.06220  Biso   1.000  H
  C147     1.0000 0.76660  0.81481  0.89400  Biso   1.000  C
  H136     1.0000 0.77470  0.79380  0.90860  Biso   1.000  H
  C148     1.0000 0.78670  0.83500  0.84850  Biso   1.000  C
  H137     1.0000 0.80850  0.82890  0.83560  Biso   1.000  H
  C149     1.0000 0.77270  0.86515  0.82280  Biso   1.000  C
  C150     1.0000 0.74660  0.87413  0.85500  Biso   1.000  C
  H138     1.0000 0.73890  0.89590  0.84740  Biso   1.000  H
  C151     1.0000 0.72860  0.85311  0.90130  Biso   1.000  C
  H139     1.0000 0.70870  0.86110  0.92250  Biso   1.000  H
  C152     1.0000 0.78960  0.88767  0.76440  Biso   1.000  C
  H140     1.0000 0.77250  0.89710  0.73070  Biso   1.000  H
  H141     1.0000 0.79990  0.90610  0.79250  Biso   1.000  H
  Mn12     1.0000 0.77956  0.63661  0.27620  Biso   1.000  Mn
  O34      1.0000 0.75940  0.59895  0.31263  Biso   1.000  O
  O35      1.0000 0.69708  0.63482  0.13573  Biso   1.000  O
  O36      1.0000 0.79474  0.67659  0.22736  Biso   1.000  O
  N30      1.0000 0.74382  0.64396  0.20426  Biso   1.000  N
  N31      1.0000 0.74641  0.67336  0.16230  Biso   1.000  N
  N32      1.0000 0.85801  0.93982  0.55940  Biso   1.000  N
  C153     1.0000 0.73429  0.58224  0.28330  Biso   1.000  C
  C154     1.0000 0.72775  0.55130  0.31460  Biso   1.000  C
  H142     1.0000 0.74110  0.54360  0.35540  Biso   1.000  H
  C155     1.0000 0.70276  0.53183  0.28870  Biso   1.000  C
  H143     1.0000 0.69920  0.51090  0.31110  Biso   1.000  H
  C156     1.0000 0.68231  0.54278  0.22900  Biso   1.000  C
  H144     1.0000 0.66500  0.52930  0.21020  Biso   1.000  H
  C157     1.0000 0.68798  0.57335  0.19870  Biso   1.000  C
  H145     1.0000 0.67380  0.58120  0.15940  Biso   1.000  H
  C158     1.0000 0.71366  0.59338  0.22310  Biso   1.000  C
  C159     1.0000 0.71823  0.62525  0.18600  Biso   1.000  C
  C160     1.0000 0.77375  0.68813  0.17830  Biso   1.000  C
  C161     1.0000 0.78283  0.71908  0.13800  Biso   1.000  C
  H146     1.0000 0.76320  0.72900  0.11390  Biso   1.000  H
  H147     1.0000 0.79210  0.73510  0.17490  Biso   1.000  H
  C162     1.0000 0.81040  0.70990  0.07200  Biso   1.000  C
  H148     1.0000 0.80270  0.69110  0.04190  Biso   1.000  H
  H149     1.0000 0.81350  0.72890  0.03810  Biso   1.000  H
  H150     1.0000 0.83130  0.70440  0.09670  Biso   1.000  H
  C163     1.0000 0.83492  0.91934  0.53640  Biso   1.000  C
  H151     1.0000 0.82880  0.91920  0.48390  Biso   1.000  H
  C164     1.0000 0.81916  0.89793  0.58680  Biso   1.000  C
  H152     1.0000 0.80200  0.88410  0.56900  Biso   1.000  H
  C165     1.0000 0.82870  0.89695  0.66360  Biso   1.000  C
  C166     1.0000 0.85188  0.91865  0.68540  Biso   1.000  C
  H153     1.0000 0.85860  0.91930  0.73740  Biso   1.000  H
  C167     1.0000 0.86572  0.93955  0.63470  Biso   1.000  C
  H154     1.0000 0.88160  0.95480  0.65280  Biso   1.000  H
  C168     1.0000 0.81300  0.87330  0.71930  Biso   1.000  C
  H155     1.0000 0.80280  0.85510  0.69020  Biso   1.000  H
  H156     1.0000 0.83030  0.86380  0.75240  Biso   1.000  H
  Mn13     1.0000 0.92580  0.54582  0.32856  Biso   1.000  Mn
  O37      1.0000 0.90507  0.52079  0.25360  Biso   1.000  O
  O38      1.0000 0.00473  0.52751  0.18435  Biso   1.000  O
  O39      1.0000 0.95422  0.57031  0.39742  Biso   1.000  O
  N33      1.0000 0.96738  0.54019  0.27640  Biso   1.000  N
  N34      1.0000 0.99447  0.55590  0.31390  Biso   1.000  N
  C169     1.0000 0.91735  0.50513  0.19570  Biso   1.000  C
  C170     1.0000 0.89586  0.48497  0.15100  Biso   1.000  C
  H157     1.0000 0.87410  0.48130  0.16890  Biso   1.000  H
  C171     1.0000 0.90510  0.47110  0.08530  Biso   1.000  C
  H158     1.0000 0.88980  0.45810  0.05780  Biso   1.000  H
  C172     1.0000 0.93640  0.47520  0.05620  Biso   1.000  C
  H159     1.0000 0.94240  0.46580  0.00840  Biso   1.000  H
  C173     1.0000 0.95934  0.49380  0.09970  Biso   1.000  C
  H160     1.0000 0.98120  0.49630  0.08150  Biso   1.000  H
  C174     1.0000 0.95015  0.50829  0.16840  Biso   1.000  C
  C175     1.0000 0.97527  0.52600  0.21110  Biso   1.000  C
  C176     1.0000 0.98471  0.57021  0.37590  Biso   1.000  C
  C177     1.0000 0.00996  0.58749  0.42450  Biso   1.000  C
  H161     1.0000 0.02440  0.60030  0.39000  Biso   1.000  H
  H162     1.0000 0.02370  0.57060  0.44950  Biso   1.000  H
  C178     1.0000 0.99732  0.61040  0.48590  Biso   1.000  C
  H163     1.0000 0.98180  0.62600  0.46320  Biso   1.000  H
  H164     1.0000 0.01580  0.62240  0.50850  Biso   1.000  H
  H165     1.0000 0.98620  0.59760  0.52570  Biso   1.000  H
  Mn14     1.0000 0.04088  0.53913  0.25461  Biso   1.000  Mn
  O40      1.0000 0.05031  0.58059  0.21493  Biso   1.000  O
  O41      1.0000 0.11562  0.56744  0.40214  Biso   1.000  O
  O42      1.0000 0.03738  0.49693  0.30571  Biso   1.000  O
  N35      1.0000 0.07583  0.54370  0.32927  Biso   1.000  N
  N36      1.0000 0.08119  0.51550  0.37450  Biso   1.000  N
  N37      1.0000 0.07381  0.51291  0.16740  Biso   1.000  N
  C179     1.0000 0.07297  0.60236  0.23610  Biso   1.000  C
  C180     1.0000 0.07458  0.63153  0.19350  Biso   1.000  C
  H166     1.0000 0.05950  0.63500  0.15270  Biso   1.000  H
  C181     1.0000 0.09778  0.65528  0.21020  Biso   1.000  C
  H167     1.0000 0.09910  0.67440  0.17910  Biso   1.000  H
  C182     1.0000 0.11891  0.65175  0.27080  Biso   1.000  C
  H168     1.0000 0.13450  0.66840  0.28270  Biso   1.000  H
  C183     1.0000 0.11707  0.62342  0.31430  Biso   1.000  C
  H169     1.0000 0.13160  0.62080  0.35650  Biso   1.000  H
  C184     1.0000 0.09438  0.59850  0.29770  Biso   1.000  C
  C185     1.0000 0.09553  0.56888  0.34580  Biso   1.000  C
  C186     1.0000 0.06025  0.49278  0.35720  Biso   1.000  C
  C187     1.0000 0.06293  0.45981  0.39460  Biso   1.000  C
  H170     1.0000 0.08400  0.45890  0.42280  Biso   1.000  H
  H171     1.0000 0.04500  0.45780  0.43270  Biso   1.000  H
  C188     1.0000 0.06130  0.43114  0.34230  Biso   1.000  C
  H172     1.0000 0.04250  0.43360  0.30770  Biso   1.000  H
  H173     1.0000 0.05880  0.41100  0.37240  Biso   1.000  H
  H174     1.0000 0.08160  0.42990  0.31220  Biso   1.000  H
  C189     1.0000 0.06481  0.48340  0.14400  Biso   1.000  C
  H175     1.0000 0.04380  0.47530  0.15860  Biso   1.000  H
  C190     1.0000 0.08500  0.46330  0.09850  Biso   1.000  C
  H176     1.0000 0.07890  0.44150  0.08560  Biso   1.000  H
  C191     1.0000 0.11515  0.47730  0.07280  Biso   1.000  C
  C192     1.0000 0.12413  0.50340  0.10500  Biso   1.000  C
  H177     1.0000 0.14590  0.51110  0.09740  Biso   1.000  H
  C193     1.0000 0.10311  0.52140  0.15130  Biso   1.000  C
  H178     1.0000 0.11110  0.54130  0.17250  Biso   1.000  H
  C194     1.0000 0.13767  0.46040  0.01440  Biso   1.000  C
  H179     1.0000 0.14710  0.47750  0.98070  Biso   1.000  H
  H180     1.0000 0.15610  0.45010  0.04250  Biso   1.000  H
  Mn15     1.0000 0.88661  0.47044  0.52620  Biso   1.000  Mn
  O43      1.0000 0.84895  0.49060  0.56263  Biso   1.000  O
  O44      1.0000 0.88482  0.55292  0.38573  Biso   1.000  O
  O45      1.0000 0.92659  0.45526  0.47736  Biso   1.000  O
  N38      1.0000 0.89396  0.50618  0.45426  Biso   1.000  N
  N39      1.0000 0.92336  0.50359  0.41230  Biso   1.000  N
  N40      1.0000 0.18982  0.39199  0.80940  Biso   1.000  N
  C195     1.0000 0.83224  0.51571  0.53330  Biso   1.000  C
  C196     1.0000 0.80130  0.52225  0.56460  Biso   1.000  C
  H181     1.0000 0.79360  0.50890  0.60540  Biso   1.000  H
  C197     1.0000 0.78183  0.54724  0.53870  Biso   1.000  C
  H182     1.0000 0.76090  0.55080  0.56110  Biso   1.000  H
  C198     1.0000 0.79278  0.56769  0.47900  Biso   1.000  C
  H183     1.0000 0.77930  0.58500  0.46020  Biso   1.000  H
  C199     1.0000 0.82335  0.56202  0.44870  Biso   1.000  C
  H184     1.0000 0.83120  0.57620  0.40940  Biso   1.000  H
  C200     1.0000 0.84338  0.53634  0.47310  Biso   1.000  C
  C201     1.0000 0.87525  0.53177  0.43600  Biso   1.000  C
  C202     1.0000 0.93813  0.47625  0.42830  Biso   1.000  C
  C203     1.0000 0.96908  0.46717  0.38800  Biso   1.000  C
  H185     1.0000 0.97900  0.48680  0.36390  Biso   1.000  H
  H186     1.0000 0.98510  0.45790  0.42490  Biso   1.000  H
  C204     1.0000 0.95990  0.43960  0.32200  Biso   1.000  C
  H187     1.0000 0.94110  0.44730  0.29190  Biso   1.000  H
  H188     1.0000 0.97890  0.43650  0.28810  Biso   1.000  H
  H189     1.0000 0.95440  0.41870  0.34670  Biso   1.000  H
  C205     1.0000 0.16934  0.41508  0.78640  Biso   1.000  C
  H190     1.0000 0.16920  0.42120  0.73390  Biso   1.000  H
  C206     1.0000 0.14793  0.43084  0.83680  Biso   1.000  C
  H191     1.0000 0.13410  0.44800  0.81900  Biso   1.000  H
  C207     1.0000 0.14695  0.42130  0.91360  Biso   1.000  C
  C208     1.0000 0.16865  0.39812  0.93540  Biso   1.000  C
  H192     1.0000 0.16930  0.39140  0.98740  Biso   1.000  H
  C209     1.0000 0.18955  0.38428  0.88470  Biso   1.000  C
  H193     1.0000 0.20480  0.36840  0.90280  Biso   1.000  H
  C210     1.0000 0.12330  0.43700  0.96930  Biso   1.000  C
  H194     1.0000 0.10510  0.44720  0.94020  Biso   1.000  H
  H195     1.0000 0.11380  0.41970  0.00240  Biso   1.000  H
  Mn16     1.0000 0.42580  0.04582  0.82856  Biso   1.000  Mn
  O46      1.0000 0.40507  0.02079  0.75360  Biso   1.000  O
  O47      1.0000 0.50473  0.02751  0.68435  Biso   1.000  O
  O48      1.0000 0.45422  0.07031  0.89742  Biso   1.000  O
  N41      1.0000 0.46738  0.04019  0.77640  Biso   1.000  N
  N42      1.0000 0.49447  0.05590  0.81390  Biso   1.000  N
  C211     1.0000 0.41735  0.00513  0.69570  Biso   1.000  C
  C212     1.0000 0.39586  0.98497  0.65100  Biso   1.000  C
  H196     1.0000 0.37410  0.98130  0.66890  Biso   1.000  H
  C213     1.0000 0.40510  0.97110  0.58530  Biso   1.000  C
  H197     1.0000 0.38980  0.95810  0.55780  Biso   1.000  H
  C214     1.0000 0.43640  0.97520  0.55620  Biso   1.000  C
  H198     1.0000 0.44240  0.96580  0.50840  Biso   1.000  H
  C215     1.0000 0.45934  0.99380  0.59970  Biso   1.000  C
  H199     1.0000 0.48120  0.99630  0.58150  Biso   1.000  H
  C216     1.0000 0.45015  0.00829  0.66840  Biso   1.000  C
  C217     1.0000 0.47527  0.02600  0.71110  Biso   1.000  C
  C218     1.0000 0.48471  0.07021  0.87590  Biso   1.000  C
  C219     1.0000 0.50996  0.08749  0.92450  Biso   1.000  C
  H200     1.0000 0.52440  0.10030  0.89000  Biso   1.000  H
  H201     1.0000 0.52370  0.07060  0.94950  Biso   1.000  H
  C220     1.0000 0.49732  0.11040  0.98590  Biso   1.000  C
  H202     1.0000 0.48180  0.12600  0.96320  Biso   1.000  H
  H203     1.0000 0.51580  0.12240  0.00850  Biso   1.000  H
  H204     1.0000 0.48620  0.09760  0.02570  Biso   1.000  H
  Mn17     1.0000 0.54088  0.03913  0.75461  Biso   1.000  Mn
  O49      1.0000 0.55031  0.08059  0.71493  Biso   1.000  O
  O50      1.0000 0.61562  0.06744  0.90214  Biso   1.000  O
  O51      1.0000 0.53738  0.99693  0.80571  Biso   1.000  O
  N43      1.0000 0.57583  0.04370  0.82927  Biso   1.000  N
  N44      1.0000 0.58119  0.01550  0.87450  Biso   1.000  N
  N45      1.0000 0.57381  0.01291  0.66740  Biso   1.000  N
  C221     1.0000 0.57297  0.10236  0.73610  Biso   1.000  C
  C222     1.0000 0.57458  0.13153  0.69350  Biso   1.000  C
  H205     1.0000 0.55950  0.13500  0.65270  Biso   1.000  H
  C223     1.0000 0.59778  0.15528  0.71020  Biso   1.000  C
  H206     1.0000 0.59910  0.17440  0.67910  Biso   1.000  H
  C224     1.0000 0.61891  0.15175  0.77080  Biso   1.000  C
  H207     1.0000 0.63450  0.16840  0.78270  Biso   1.000  H
  C225     1.0000 0.61707  0.12342  0.81430  Biso   1.000  C
  H208     1.0000 0.63160  0.12080  0.85650  Biso   1.000  H
  C226     1.0000 0.59438  0.09850  0.79770  Biso   1.000  C
  C227     1.0000 0.59553  0.06888  0.84580  Biso   1.000  C
  C228     1.0000 0.56025  0.99278  0.85720  Biso   1.000  C
  C229     1.0000 0.56293  0.95981  0.89460  Biso   1.000  C
  H209     1.0000 0.58400  0.95890  0.92280  Biso   1.000  H
  H210     1.0000 0.54500  0.95780  0.93270  Biso   1.000  H
  C230     1.0000 0.56130  0.93114  0.84230  Biso   1.000  C
  H211     1.0000 0.54250  0.93360  0.80770  Biso   1.000  H
  H212     1.0000 0.55880  0.91100  0.87240  Biso   1.000  H
  H213     1.0000 0.58160  0.92990  0.81220  Biso   1.000  H
  C231     1.0000 0.56481  0.98340  0.64400  Biso   1.000  C
  H214     1.0000 0.54380  0.97530  0.65860  Biso   1.000  H
  C232     1.0000 0.58500  0.96330  0.59850  Biso   1.000  C
  H215     1.0000 0.57890  0.94150  0.58560  Biso   1.000  H
  C233     1.0000 0.61515  0.97730  0.57280  Biso   1.000  C
  C234     1.0000 0.62413  0.00340  0.60500  Biso   1.000  C
  H216     1.0000 0.64590  0.01110  0.59740  Biso   1.000  H
  C235     1.0000 0.60311  0.02140  0.65130  Biso   1.000  C
  H217     1.0000 0.61110  0.04130  0.67250  Biso   1.000  H
  C236     1.0000 0.63767  0.96040  0.51440  Biso   1.000  C
  H218     1.0000 0.64710  0.97750  0.48070  Biso   1.000  H
  H219     1.0000 0.65610  0.95010  0.54250  Biso   1.000  H
  Mn18     1.0000 0.38661  0.97044  0.02620  Biso   1.000  Mn
  O52      1.0000 0.34895  0.99060  0.06263  Biso   1.000  O
  O53      1.0000 0.38482  0.05292  0.88573  Biso   1.000  O
  O54      1.0000 0.42659  0.95526  0.97736  Biso   1.000  O
  N46      1.0000 0.39396  0.00618  0.95426  Biso   1.000  N
  N47      1.0000 0.42336  0.00359  0.91230  Biso   1.000  N
  N48      1.0000 0.68982  0.89199  0.30940  Biso   1.000  N
  C237     1.0000 0.33224  0.01571  0.03330  Biso   1.000  C
  C238     1.0000 0.30130  0.02225  0.06460  Biso   1.000  C
  H220     1.0000 0.29360  0.00890  0.10540  Biso   1.000  H
  C239     1.0000 0.28183  0.04724  0.03870  Biso   1.000  C
  H221     1.0000 0.26090  0.05080  0.06110  Biso   1.000  H
  C240     1.0000 0.29278  0.06769  0.97900  Biso   1.000  C
  H222     1.0000 0.27930  0.08500  0.96020  Biso   1.000  H
  C241     1.0000 0.32335  0.06202  0.94870  Biso   1.000  C
  H223     1.0000 0.33120  0.07620  0.90940  Biso   1.000  H
  C242     1.0000 0.34338  0.03634  0.97310  Biso   1.000  C
  C243     1.0000 0.37525  0.03177  0.93600  Biso   1.000  C
  C244     1.0000 0.43813  0.97625  0.92830  Biso   1.000  C
  C245     1.0000 0.46908  0.96717  0.88800  Biso   1.000  C
  H224     1.0000 0.47900  0.98680  0.86390  Biso   1.000  H
  H225     1.0000 0.48510  0.95790  0.92490  Biso   1.000  H
  C246     1.0000 0.45990  0.93960  0.82200  Biso   1.000  C
  H226     1.0000 0.44110  0.94730  0.79190  Biso   1.000  H
  H227     1.0000 0.47890  0.93650  0.78810  Biso   1.000  H
  H228     1.0000 0.45440  0.91870  0.84670  Biso   1.000  H
  C247     1.0000 0.66934  0.91508  0.28640  Biso   1.000  C
  H229     1.0000 0.66920  0.92120  0.23390  Biso   1.000  H
  C248     1.0000 0.64793  0.93084  0.33680  Biso   1.000  C
  H230     1.0000 0.63410  0.94800  0.31900  Biso   1.000  H
  C249     1.0000 0.64695  0.92130  0.41360  Biso   1.000  C
  C250     1.0000 0.66865  0.89812  0.43540  Biso   1.000  C
  H231     1.0000 0.66930  0.89140  0.48740  Biso   1.000  H
  C251     1.0000 0.68955  0.88428  0.38470  Biso   1.000  C
  H232     1.0000 0.70480  0.86840  0.40280  Biso   1.000  H
  C252     1.0000 0.62330  0.93700  0.46930  Biso   1.000  C
  H233     1.0000 0.60510  0.94720  0.44020  Biso   1.000  H
  H234     1.0000 0.61380  0.91970  0.50240  Biso   1.000  H
  Mn19     1.0000 0.57420  0.45418  0.82856  Biso   1.000  Mn
  O55      1.0000 0.59493  0.47921  0.75360  Biso   1.000  O
  O56      1.0000 0.49527  0.47249  0.68435  Biso   1.000  O
  O57      1.0000 0.54578  0.42969  0.89742  Biso   1.000  O
  N49      1.0000 0.53262  0.45981  0.77640  Biso   1.000  N
  N50      1.0000 0.50553  0.44410  0.81390  Biso   1.000  N
  C253     1.0000 0.58265  0.49487  0.69570  Biso   1.000  C
  C254     1.0000 0.60414  0.51503  0.65100  Biso   1.000  C
  H235     1.0000 0.62590  0.51870  0.66890  Biso   1.000  H
  C255     1.0000 0.59490  0.52890  0.58530  Biso   1.000  C
  H236     1.0000 0.61020  0.54190  0.55780  Biso   1.000  H
  C256     1.0000 0.56360  0.52480  0.55620  Biso   1.000  C
  H237     1.0000 0.55760  0.53420  0.50840  Biso   1.000  H
  C257     1.0000 0.54066  0.50620  0.59970  Biso   1.000  C
  H238     1.0000 0.51880  0.50370  0.58150  Biso   1.000  H
  C258     1.0000 0.54985  0.49171  0.66840  Biso   1.000  C
  C259     1.0000 0.52473  0.47400  0.71110  Biso   1.000  C
  C260     1.0000 0.51529  0.42979  0.87590  Biso   1.000  C
  C261     1.0000 0.49004  0.41251  0.92450  Biso   1.000  C
  H239     1.0000 0.47560  0.39970  0.89000  Biso   1.000  H
  H240     1.0000 0.47630  0.42940  0.94950  Biso   1.000  H
  C262     1.0000 0.50268  0.38960  0.98590  Biso   1.000  C
  H241     1.0000 0.51820  0.37400  0.96320  Biso   1.000  H
  H242     1.0000 0.48420  0.37760  0.00850  Biso   1.000  H
  H243     1.0000 0.51380  0.40240  0.02570  Biso   1.000  H
  Mn20     1.0000 0.45912  0.46087  0.75461  Biso   1.000  Mn
  O58      1.0000 0.44969  0.41941  0.71493  Biso   1.000  O
  O59      1.0000 0.38438  0.43256  0.90214  Biso   1.000  O
  O60      1.0000 0.46262  0.50307  0.80571  Biso   1.000  O
  N51      1.0000 0.42417  0.45630  0.82927  Biso   1.000  N
  N52      1.0000 0.41881  0.48450  0.87450  Biso   1.000  N
  N53      1.0000 0.42619  0.48709  0.66740  Biso   1.000  N
  C263     1.0000 0.42703  0.39764  0.73610  Biso   1.000  C
  C264     1.0000 0.42542  0.36847  0.69350  Biso   1.000  C
  H244     1.0000 0.44050  0.36500  0.65270  Biso   1.000  H
  C265     1.0000 0.40222  0.34472  0.71020  Biso   1.000  C
  H245     1.0000 0.40090  0.32560  0.67910  Biso   1.000  H
  C266     1.0000 0.38109  0.34825  0.77080  Biso   1.000  C
  H246     1.0000 0.36550  0.33160  0.78270  Biso   1.000  H
  C267     1.0000 0.38293  0.37658  0.81430  Biso   1.000  C
  H247     1.0000 0.36840  0.37920  0.85650  Biso   1.000  H
  C268     1.0000 0.40562  0.40150  0.79770  Biso   1.000  C
  C269     1.0000 0.40447  0.43112  0.84580  Biso   1.000  C
  C270     1.0000 0.43975  0.50722  0.85720  Biso   1.000  C
  C271     1.0000 0.43707  0.54019  0.89460  Biso   1.000  C
  H248     1.0000 0.41600  0.54110  0.92280  Biso   1.000  H
  H249     1.0000 0.45500  0.54220  0.93270  Biso   1.000  H
  C272     1.0000 0.43870  0.56886  0.84230  Biso   1.000  C
  H250     1.0000 0.45750  0.56640  0.80770  Biso   1.000  H
  H251     1.0000 0.44120  0.58900  0.87240  Biso   1.000  H
  H252     1.0000 0.41840  0.57010  0.81220  Biso   1.000  H
  C273     1.0000 0.43519  0.51660  0.64400  Biso   1.000  C
  H253     1.0000 0.45620  0.52470  0.65860  Biso   1.000  H
  C274     1.0000 0.41500  0.53670  0.59850  Biso   1.000  C
  H254     1.0000 0.42110  0.55850  0.58560  Biso   1.000  H
  C275     1.0000 0.38485  0.52270  0.57280  Biso   1.000  C
  C276     1.0000 0.37587  0.49660  0.60500  Biso   1.000  C
  H255     1.0000 0.35410  0.48890  0.59740  Biso   1.000  H
  C277     1.0000 0.39689  0.47860  0.65130  Biso   1.000  C
  H256     1.0000 0.38890  0.45870  0.67250  Biso   1.000  H
  C278     1.0000 0.36233  0.53960  0.51440  Biso   1.000  C
  H257     1.0000 0.35290  0.52250  0.48070  Biso   1.000  H
  H258     1.0000 0.34390  0.54990  0.54250  Biso   1.000  H
  Mn21     1.0000 0.61339  0.52956  0.02620  Biso   1.000  Mn
  O61      1.0000 0.65105  0.50940  0.06263  Biso   1.000  O
  O62      1.0000 0.61518  0.44708  0.88573  Biso   1.000  O
  O63      1.0000 0.57341  0.54474  0.97736  Biso   1.000  O
  N54      1.0000 0.60604  0.49382  0.95426  Biso   1.000  N
  N55      1.0000 0.57664  0.49641  0.91230  Biso   1.000  N
  N56      1.0000 0.31018  0.60801  0.30940  Biso   1.000  N
  C279     1.0000 0.66776  0.48429  0.03330  Biso   1.000  C
  C280     1.0000 0.69870  0.47775  0.06460  Biso   1.000  C
  H259     1.0000 0.70640  0.49110  0.10540  Biso   1.000  H
  C281     1.0000 0.71817  0.45276  0.03870  Biso   1.000  C
  H260     1.0000 0.73910  0.44920  0.06110  Biso   1.000  H
  C282     1.0000 0.70722  0.43231  0.97900  Biso   1.000  C
  H261     1.0000 0.72070  0.41500  0.96020  Biso   1.000  H
  C283     1.0000 0.67665  0.43798  0.94870  Biso   1.000  C
  H262     1.0000 0.66880  0.42380  0.90940  Biso   1.000  H
  C284     1.0000 0.65662  0.46366  0.97310  Biso   1.000  C
  C285     1.0000 0.62475  0.46823  0.93600  Biso   1.000  C
  C286     1.0000 0.56187  0.52375  0.92830  Biso   1.000  C
  C287     1.0000 0.53092  0.53283  0.88800  Biso   1.000  C
  H263     1.0000 0.52100  0.51320  0.86390  Biso   1.000  H
  H264     1.0000 0.51490  0.54210  0.92490  Biso   1.000  H
  C288     1.0000 0.54010  0.56040  0.82200  Biso   1.000  C
  H265     1.0000 0.55890  0.55270  0.79190  Biso   1.000  H
  H266     1.0000 0.52110  0.56350  0.78810  Biso   1.000  H
  H267     1.0000 0.54560  0.58130  0.84670  Biso   1.000  H
  C289     1.0000 0.33066  0.58492  0.28640  Biso   1.000  C
  H268     1.0000 0.33080  0.57880  0.23390  Biso   1.000  H
  C290     1.0000 0.35207  0.56916  0.33680  Biso   1.000  C
  H269     1.0000 0.36590  0.55200  0.31900  Biso   1.000  H
  C291     1.0000 0.35305  0.57870  0.41360  Biso   1.000  C
  C292     1.0000 0.33135  0.60188  0.43540  Biso   1.000  C
  H270     1.0000 0.33070  0.60860  0.48740  Biso   1.000  H
  C293     1.0000 0.31045  0.61572  0.38470  Biso   1.000  C
  H271     1.0000 0.29520  0.63160  0.40280  Biso   1.000  H
  C294     1.0000 0.37670  0.56300  0.46930  Biso   1.000  C
  H272     1.0000 0.39490  0.55280  0.44020  Biso   1.000  H
  H273     1.0000 0.38620  0.58030  0.50240  Biso   1.000  H
  Mn22     1.0000 0.07420  0.95418  0.32856  Biso   1.000  Mn
  O64      1.0000 0.09493  0.97921  0.25360  Biso   1.000  O
  O65      1.0000 0.99527  0.97249  0.18435  Biso   1.000  O
  O66      1.0000 0.04578  0.92969  0.39742  Biso   1.000  O
  N57      1.0000 0.03262  0.95981  0.27640  Biso   1.000  N
  N58      1.0000 0.00553  0.94410  0.31390  Biso   1.000  N
  C295     1.0000 0.08265  0.99487  0.19570  Biso   1.000  C
  C296     1.0000 0.10414  0.01503  0.15100  Biso   1.000  C
  H274     1.0000 0.12590  0.01870  0.16890  Biso   1.000  H
  C297     1.0000 0.09490  0.02890  0.08530  Biso   1.000  C
  H275     1.0000 0.11020  0.04190  0.05780  Biso   1.000  H
  C298     1.0000 0.06360  0.02480  0.05620  Biso   1.000  C
  H276     1.0000 0.05760  0.03420  0.00840  Biso   1.000  H
  C299     1.0000 0.04066  0.00620  0.09970  Biso   1.000  C
  H277     1.0000 0.01880  0.00370  0.08150  Biso   1.000  H
  C300     1.0000 0.04985  0.99171  0.16840  Biso   1.000  C
  C301     1.0000 0.02473  0.97400  0.21110  Biso   1.000  C
  C302     1.0000 0.01529  0.92979  0.37590  Biso   1.000  C
  C303     1.0000 0.99004  0.91251  0.42450  Biso   1.000  C
  H278     1.0000 0.97560  0.89970  0.39000  Biso   1.000  H
  H279     1.0000 0.97630  0.92940  0.44950  Biso   1.000  H
  C304     1.0000 0.00268  0.88960  0.48590  Biso   1.000  C
  H280     1.0000 0.01820  0.87400  0.46320  Biso   1.000  H
  H281     1.0000 0.98420  0.87760  0.50850  Biso   1.000  H
  H282     1.0000 0.01380  0.90240  0.52570  Biso   1.000  H
  Mn23     1.0000 0.95912  0.96087  0.25461  Biso   1.000  Mn
  O67      1.0000 0.94969  0.91941  0.21493  Biso   1.000  O
  O68      1.0000 0.88438  0.93256  0.40214  Biso   1.000  O
  O69      1.0000 0.96262  0.00307  0.30571  Biso   1.000  O
  N59      1.0000 0.92417  0.95630  0.32927  Biso   1.000  N
  N60      1.0000 0.91881  0.98450  0.37450  Biso   1.000  N
  N61      1.0000 0.92619  0.98709  0.16740  Biso   1.000  N
  C305     1.0000 0.92703  0.89764  0.23610  Biso   1.000  C
  C306     1.0000 0.92542  0.86847  0.19350  Biso   1.000  C
  H283     1.0000 0.94050  0.86500  0.15270  Biso   1.000  H
  C307     1.0000 0.90222  0.84472  0.21020  Biso   1.000  C
  H284     1.0000 0.90090  0.82560  0.17910  Biso   1.000  H
  C308     1.0000 0.88109  0.84825  0.27080  Biso   1.000  C
  H285     1.0000 0.86550  0.83160  0.28270  Biso   1.000  H
  C309     1.0000 0.88293  0.87658  0.31430  Biso   1.000  C
  H286     1.0000 0.86840  0.87920  0.35650  Biso   1.000  H
  C310     1.0000 0.90562  0.90150  0.29770  Biso   1.000  C
  C311     1.0000 0.90447  0.93112  0.34580  Biso   1.000  C
  C312     1.0000 0.93975  0.00722  0.35720  Biso   1.000  C
  C313     1.0000 0.93707  0.04019  0.39460  Biso   1.000  C
  H287     1.0000 0.91600  0.04110  0.42280  Biso   1.000  H
  H288     1.0000 0.95500  0.04220  0.43270  Biso   1.000  H
  C314     1.0000 0.93870  0.06886  0.34230  Biso   1.000  C
  H289     1.0000 0.95750  0.06640  0.30770  Biso   1.000  H
  H290     1.0000 0.94120  0.08900  0.37240  Biso   1.000  H
  H291     1.0000 0.91840  0.07010  0.31220  Biso   1.000  H
  C315     1.0000 0.93519  0.01660  0.14400  Biso   1.000  C
  H292     1.0000 0.95620  0.02470  0.15860  Biso   1.000  H
  C316     1.0000 0.91500  0.03670  0.09850  Biso   1.000  C
  H293     1.0000 0.92110  0.05850  0.08560  Biso   1.000  H
  C317     1.0000 0.88485  0.02270  0.07280  Biso   1.000  C
  C318     1.0000 0.87587  0.99660  0.10500  Biso   1.000  C
  H294     1.0000 0.85410  0.98890  0.09740  Biso   1.000  H
  C319     1.0000 0.89689  0.97860  0.15130  Biso   1.000  C
  H295     1.0000 0.88890  0.95870  0.17250  Biso   1.000  H
  C320     1.0000 0.86233  0.03960  0.01440  Biso   1.000  C
  H296     1.0000 0.85290  0.02250  0.98070  Biso   1.000  H
  H297     1.0000 0.84390  0.04990  0.04250  Biso   1.000  H
  Mn24     1.0000 0.11339  0.02956  0.52620  Biso   1.000  Mn
  O70      1.0000 0.15105  0.00940  0.56263  Biso   1.000  O
  O71      1.0000 0.11518  0.94708  0.38573  Biso   1.000  O
  O72      1.0000 0.07341  0.04474  0.47736  Biso   1.000  O
  N62      1.0000 0.10604  0.99382  0.45426  Biso   1.000  N
  N63      1.0000 0.07664  0.99641  0.41230  Biso   1.000  N
  N64      1.0000 0.81018  0.10801  0.80940  Biso   1.000  N
  C321     1.0000 0.16776  0.98429  0.53330  Biso   1.000  C
  C322     1.0000 0.19870  0.97775  0.56460  Biso   1.000  C
  H298     1.0000 0.20640  0.99110  0.60540  Biso   1.000  H
  C323     1.0000 0.21817  0.95276  0.53870  Biso   1.000  C
  H299     1.0000 0.23910  0.94920  0.56110  Biso   1.000  H
  C324     1.0000 0.20722  0.93231  0.47900  Biso   1.000  C
  H300     1.0000 0.22070  0.91500  0.46020  Biso   1.000  H
  C325     1.0000 0.17665  0.93798  0.44870  Biso   1.000  C
  H301     1.0000 0.16880  0.92380  0.40940  Biso   1.000  H
  C326     1.0000 0.15662  0.96366  0.47310  Biso   1.000  C
  C327     1.0000 0.12475  0.96823  0.43600  Biso   1.000  C
  C328     1.0000 0.06187  0.02375  0.42830  Biso   1.000  C
  C329     1.0000 0.03092  0.03283  0.38800  Biso   1.000  C
  H302     1.0000 0.02100  0.01320  0.36390  Biso   1.000  H
  H303     1.0000 0.01490  0.04210  0.42490  Biso   1.000  H
  C330     1.0000 0.04010  0.06040  0.32200  Biso   1.000  C
  H304     1.0000 0.05890  0.05270  0.29190  Biso   1.000  H
  H305     1.0000 0.02110  0.06350  0.28810  Biso   1.000  H
  H306     1.0000 0.04560  0.08130  0.34670  Biso   1.000  H
  C331     1.0000 0.83066  0.08492  0.78640  Biso   1.000  C
  H307     1.0000 0.83080  0.07880  0.73390  Biso   1.000  H
  C332     1.0000 0.85207  0.06916  0.83680  Biso   1.000  C
  H308     1.0000 0.86590  0.05200  0.81900  Biso   1.000  H
  C333     1.0000 0.85305  0.07870  0.91360  Biso   1.000  C
  C334     1.0000 0.83135  0.10188  0.93540  Biso   1.000  C
  H309     1.0000 0.83070  0.10860  0.98740  Biso   1.000  H
  C335     1.0000 0.81045  0.11572  0.88470  Biso   1.000  C
  H310     1.0000 0.79520  0.13160  0.90280  Biso   1.000  H
  C336     1.0000 0.87670  0.06300  0.96930  Biso   1.000  C
  H311     1.0000 0.89490  0.05280  0.94020  Biso   1.000  H
  H312     1.0000 0.88620  0.08030  0.00240  Biso   1.000  H
  Mn25     1.0000 0.70418  0.17580  0.92144  Biso   1.000  Mn
  O73      1.0000 0.72921  0.15507  0.99640  Biso   1.000  O
  O74      1.0000 0.72249  0.25473  0.06565  Biso   1.000  O
  O75      1.0000 0.67969  0.20422  0.85258  Biso   1.000  O
  N65      1.0000 0.70981  0.21738  0.97360  Biso   1.000  N
  N66      1.0000 0.69410  0.24447  0.93610  Biso   1.000  N
  C337     1.0000 0.74487  0.16735  0.05430  Biso   1.000  C
  C338     1.0000 0.76503  0.14586  0.09900  Biso   1.000  C
  H313     1.0000 0.76870  0.12410  0.08110  Biso   1.000  H
  C339     1.0000 0.77890  0.15510  0.16470  Biso   1.000  C
  H314     1.0000 0.79190  0.13980  0.19220  Biso   1.000  H
  C340     1.0000 0.77480  0.18640  0.19380  Biso   1.000  C
  H315     1.0000 0.78420  0.19240  0.24160  Biso   1.000  H
  C341     1.0000 0.75620  0.20934  0.15030  Biso   1.000  C
  H316     1.0000 0.75370  0.23120  0.16850  Biso   1.000  H
  C342     1.0000 0.74171  0.20015  0.08160  Biso   1.000  C
  C343     1.0000 0.72400  0.22527  0.03890  Biso   1.000  C
  C344     1.0000 0.67979  0.23471  0.87410  Biso   1.000  C
  C345     1.0000 0.66251  0.25996  0.82550  Biso   1.000  C
  H317     1.0000 0.64970  0.27440  0.86000  Biso   1.000  H
  H318     1.0000 0.67940  0.27370  0.80050  Biso   1.000  H
  C346     1.0000 0.63960  0.24732  0.76410  Biso   1.000  C
  H319     1.0000 0.62400  0.23180  0.78680  Biso   1.000  H
  H320     1.0000 0.62760  0.26580  0.74150  Biso   1.000  H
  H321     1.0000 0.65240  0.23620  0.72430  Biso   1.000  H
  Mn26     1.0000 0.71087  0.29088  0.99539  Biso   1.000  Mn
  O76      1.0000 0.66941  0.30031  0.03507  Biso   1.000  O
  O77      1.0000 0.68256  0.36562  0.84786  Biso   1.000  O
  O78      1.0000 0.75307  0.28738  0.94429  Biso   1.000  O
  N67      1.0000 0.70630  0.32583  0.92073  Biso   1.000  N
  N68      1.0000 0.73450  0.33119  0.87550  Biso   1.000  N
  N69      1.0000 0.73709  0.32381  0.08260  Biso   1.000  N
  C347     1.0000 0.64764  0.32297  0.01390  Biso   1.000  C
  C348     1.0000 0.61847  0.32458  0.05650  Biso   1.000  C
  H322     1.0000 0.61500  0.30950  0.09730  Biso   1.000  H
  C349     1.0000 0.59472  0.34778  0.03980  Biso   1.000  C
  H323     1.0000 0.57560  0.34910  0.07090  Biso   1.000  H
  C350     1.0000 0.59825  0.36891  0.97920  Biso   1.000  C
  H324     1.0000 0.58160  0.38450  0.96730  Biso   1.000  H
  C351     1.0000 0.62658  0.36707  0.93570  Biso   1.000  C
  H325     1.0000 0.62920  0.38160  0.89350  Biso   1.000  H
  C352     1.0000 0.65150  0.34438  0.95230  Biso   1.000  C
  C353     1.0000 0.68112  0.34553  0.90420  Biso   1.000  C
  C354     1.0000 0.75722  0.31025  0.89280  Biso   1.000  C
  C355     1.0000 0.79019  0.31293  0.85540  Biso   1.000  C
  H326     1.0000 0.79110  0.33400  0.82720  Biso   1.000  H
  H327     1.0000 0.79220  0.29500  0.81730  Biso   1.000  H
  C356     1.0000 0.81886  0.31130  0.90770  Biso   1.000  C
  H328     1.0000 0.81640  0.29250  0.94230  Biso   1.000  H
  H329     1.0000 0.83900  0.30880  0.87760  Biso   1.000  H
  H330     1.0000 0.82010  0.33160  0.93780  Biso   1.000  H
  C357     1.0000 0.76660  0.31481  0.10600  Biso   1.000  C
  H331     1.0000 0.77470  0.29380  0.09140  Biso   1.000  H
  C358     1.0000 0.78670  0.33500  0.15150  Biso   1.000  C
  H332     1.0000 0.80850  0.32890  0.16440  Biso   1.000  H
  C359     1.0000 0.77270  0.36515  0.17720  Biso   1.000  C
  C360     1.0000 0.74660  0.37413  0.14500  Biso   1.000  C
  H333     1.0000 0.73890  0.39590  0.15260  Biso   1.000  H
  C361     1.0000 0.72860  0.35311  0.09870  Biso   1.000  C
  H334     1.0000 0.70870  0.36110  0.07750  Biso   1.000  H
  C362     1.0000 0.78960  0.38767  0.23560  Biso   1.000  C
  H335     1.0000 0.77250  0.39710  0.26930  Biso   1.000  H
  H336     1.0000 0.79990  0.40610  0.20750  Biso   1.000  H
  Mn27     1.0000 0.77956  0.13661  0.72380  Biso   1.000  Mn
  O79      1.0000 0.75940  0.09895  0.68737  Biso   1.000  O
  O80      1.0000 0.69708  0.13482  0.86427  Biso   1.000  O
  O81      1.0000 0.79474  0.17659  0.77264  Biso   1.000  O
  N70      1.0000 0.74382  0.14396  0.79574  Biso   1.000  N
  N71      1.0000 0.74641  0.17336  0.83770  Biso   1.000  N
  N72      1.0000 0.85801  0.43982  0.44060  Biso   1.000  N
  C363     1.0000 0.73429  0.08224  0.71670  Biso   1.000  C
  C364     1.0000 0.72775  0.05130  0.68540  Biso   1.000  C
  H337     1.0000 0.74110  0.04360  0.64460  Biso   1.000  H
  C365     1.0000 0.70276  0.03183  0.71130  Biso   1.000  C
  H338     1.0000 0.69920  0.01090  0.68890  Biso   1.000  H
  C366     1.0000 0.68231  0.04278  0.77100  Biso   1.000  C
  H339     1.0000 0.66500  0.02930  0.78980  Biso   1.000  H
  C367     1.0000 0.68798  0.07335  0.80130  Biso   1.000  C
  H340     1.0000 0.67380  0.08120  0.84060  Biso   1.000  H
  C368     1.0000 0.71366  0.09338  0.77690  Biso   1.000  C
  C369     1.0000 0.71823  0.12525  0.81400  Biso   1.000  C
  C370     1.0000 0.77375  0.18813  0.82170  Biso   1.000  C
  C371     1.0000 0.78283  0.21908  0.86200  Biso   1.000  C
  H341     1.0000 0.76320  0.22900  0.88610  Biso   1.000  H
  H342     1.0000 0.79210  0.23510  0.82510  Biso   1.000  H
  C372     1.0000 0.81040  0.20990  0.92800  Biso   1.000  C
  H343     1.0000 0.80270  0.19110  0.95810  Biso   1.000  H
  H344     1.0000 0.81350  0.22890  0.96190  Biso   1.000  H
  H345     1.0000 0.83130  0.20440  0.90330  Biso   1.000  H
  C373     1.0000 0.83492  0.41934  0.46360  Biso   1.000  C
  H346     1.0000 0.82880  0.41920  0.51610  Biso   1.000  H
  C374     1.0000 0.81916  0.39793  0.41320  Biso   1.000  C
  H347     1.0000 0.80200  0.38410  0.43100  Biso   1.000  H
  C375     1.0000 0.82870  0.39695  0.33640  Biso   1.000  C
  C376     1.0000 0.85188  0.41865  0.31460  Biso   1.000  C
  H348     1.0000 0.85860  0.41930  0.26260  Biso   1.000  H
  C377     1.0000 0.86572  0.43955  0.36530  Biso   1.000  C
  H349     1.0000 0.88160  0.45480  0.34720  Biso   1.000  H
  C378     1.0000 0.81300  0.37330  0.28070  Biso   1.000  C
  H350     1.0000 0.80280  0.35510  0.30980  Biso   1.000  H
  H351     1.0000 0.83030  0.36380  0.24760  Biso   1.000  H
  Mn28     1.0000 0.20418  0.67580  0.42144  Biso   1.000  Mn
  O82      1.0000 0.22921  0.65507  0.49640  Biso   1.000  O
  O83      1.0000 0.22249  0.75473  0.56565  Biso   1.000  O
  O84      1.0000 0.17969  0.70422  0.35258  Biso   1.000  O
  N73      1.0000 0.20981  0.71738  0.47360  Biso   1.000  N
  N74      1.0000 0.19410  0.74447  0.43610  Biso   1.000  N
  C379     1.0000 0.24487  0.66735  0.55430  Biso   1.000  C
  C380     1.0000 0.26503  0.64586  0.59900  Biso   1.000  C
  H352     1.0000 0.26870  0.62410  0.58110  Biso   1.000  H
  C381     1.0000 0.27890  0.65510  0.66470  Biso   1.000  C
  H353     1.0000 0.29190  0.63980  0.69220  Biso   1.000  H
  C382     1.0000 0.27480  0.68640  0.69380  Biso   1.000  C
  H354     1.0000 0.28420  0.69240  0.74160  Biso   1.000  H
  C383     1.0000 0.25620  0.70934  0.65030  Biso   1.000  C
  H355     1.0000 0.25370  0.73120  0.66850  Biso   1.000  H
  C384     1.0000 0.24171  0.70015  0.58160  Biso   1.000  C
  C385     1.0000 0.22400  0.72527  0.53890  Biso   1.000  C
  C386     1.0000 0.17979  0.73471  0.37410  Biso   1.000  C
  C387     1.0000 0.16251  0.75996  0.32550  Biso   1.000  C
  H356     1.0000 0.14970  0.77440  0.36000  Biso   1.000  H
  H357     1.0000 0.17940  0.77370  0.30050  Biso   1.000  H
  C388     1.0000 0.13960  0.74732  0.26410  Biso   1.000  C
  H358     1.0000 0.12400  0.73180  0.28680  Biso   1.000  H
  H359     1.0000 0.12760  0.76580  0.24150  Biso   1.000  H
  H360     1.0000 0.15240  0.73620  0.22430  Biso   1.000  H
  Mn29     1.0000 0.21087  0.79088  0.49539  Biso   1.000  Mn
  O85      1.0000 0.16941  0.80031  0.53507  Biso   1.000  O
  O86      1.0000 0.18256  0.86562  0.34786  Biso   1.000  O
  O87      1.0000 0.25307  0.78738  0.44429  Biso   1.000  O
  N75      1.0000 0.20630  0.82583  0.42073  Biso   1.000  N
  N76      1.0000 0.23450  0.83119  0.37550  Biso   1.000  N
  N77      1.0000 0.23709  0.82381  0.58260  Biso   1.000  N
  C389     1.0000 0.14764  0.82297  0.51390  Biso   1.000  C
  C390     1.0000 0.11847  0.82458  0.55650  Biso   1.000  C
  H361     1.0000 0.11500  0.80950  0.59730  Biso   1.000  H
  C391     1.0000 0.09472  0.84778  0.53980  Biso   1.000  C
  H362     1.0000 0.07560  0.84910  0.57090  Biso   1.000  H
  C392     1.0000 0.09825  0.86891  0.47920  Biso   1.000  C
  H363     1.0000 0.08160  0.88450  0.46730  Biso   1.000  H
  C393     1.0000 0.12658  0.86707  0.43570  Biso   1.000  C
  H364     1.0000 0.12920  0.88160  0.39350  Biso   1.000  H
  C394     1.0000 0.15150  0.84438  0.45230  Biso   1.000  C
  C395     1.0000 0.18112  0.84553  0.40420  Biso   1.000  C
  C396     1.0000 0.25722  0.81025  0.39280  Biso   1.000  C
  C397     1.0000 0.29019  0.81293  0.35540  Biso   1.000  C
  H365     1.0000 0.29110  0.83400  0.32720  Biso   1.000  H
  H366     1.0000 0.29220  0.79500  0.31730  Biso   1.000  H
  C398     1.0000 0.31886  0.81130  0.40770  Biso   1.000  C
  H367     1.0000 0.31640  0.79250  0.44230  Biso   1.000  H
  H368     1.0000 0.33900  0.80880  0.37760  Biso   1.000  H
  H369     1.0000 0.32010  0.83160  0.43780  Biso   1.000  H
  C399     1.0000 0.26660  0.81481  0.60600  Biso   1.000  C
  H370     1.0000 0.27470  0.79380  0.59140  Biso   1.000  H
  C400     1.0000 0.28670  0.83500  0.65150  Biso   1.000  C
  H371     1.0000 0.30850  0.82890  0.66440  Biso   1.000  H
  C401     1.0000 0.27270  0.86515  0.67720  Biso   1.000  C
  C402     1.0000 0.24660  0.87413  0.64500  Biso   1.000  C
  H372     1.0000 0.23890  0.89590  0.65260  Biso   1.000  H
  C403     1.0000 0.22860  0.85311  0.59870  Biso   1.000  C
  H373     1.0000 0.20870  0.86110  0.57750  Biso   1.000  H
  C404     1.0000 0.28960  0.88767  0.73560  Biso   1.000  C
  H374     1.0000 0.27250  0.89710  0.76930  Biso   1.000  H
  H375     1.0000 0.29990  0.90610  0.70750  Biso   1.000  H
  Mn30     1.0000 0.27956  0.63661  0.22380  Biso   1.000  Mn
  O88      1.0000 0.25940  0.59895  0.18737  Biso   1.000  O
  O89      1.0000 0.19708  0.63482  0.36427  Biso   1.000  O
  O90      1.0000 0.29474  0.67659  0.27264  Biso   1.000  O
  N78      1.0000 0.24382  0.64396  0.29574  Biso   1.000  N
  N79      1.0000 0.24641  0.67336  0.33770  Biso   1.000  N
  N80      1.0000 0.35801  0.93982  0.94060  Biso   1.000  N
  C405     1.0000 0.23429  0.58224  0.21670  Biso   1.000  C
  C406     1.0000 0.22775  0.55130  0.18540  Biso   1.000  C
  H376     1.0000 0.24110  0.54360  0.14460  Biso   1.000  H
  C407     1.0000 0.20276  0.53183  0.21130  Biso   1.000  C
  H377     1.0000 0.19920  0.51090  0.18890  Biso   1.000  H
  C408     1.0000 0.18231  0.54278  0.27100  Biso   1.000  C
  H378     1.0000 0.16500  0.52930  0.28980  Biso   1.000  H
  C409     1.0000 0.18798  0.57335  0.30130  Biso   1.000  C
  H379     1.0000 0.17380  0.58120  0.34060  Biso   1.000  H
  C410     1.0000 0.21366  0.59338  0.27690  Biso   1.000  C
  C411     1.0000 0.21823  0.62525  0.31400  Biso   1.000  C
  C412     1.0000 0.27375  0.68813  0.32170  Biso   1.000  C
  C413     1.0000 0.28283  0.71908  0.36200  Biso   1.000  C
  H380     1.0000 0.26320  0.72900  0.38610  Biso   1.000  H
  H381     1.0000 0.29210  0.73510  0.32510  Biso   1.000  H
  C414     1.0000 0.31040  0.70990  0.42800  Biso   1.000  C
  H382     1.0000 0.30270  0.69110  0.45810  Biso   1.000  H
  H383     1.0000 0.31350  0.72890  0.46190  Biso   1.000  H
  H384     1.0000 0.33130  0.70440  0.40330  Biso   1.000  H
  C415     1.0000 0.33492  0.91934  0.96360  Biso   1.000  C
  H385     1.0000 0.32880  0.91920  0.01610  Biso   1.000  H
  C416     1.0000 0.31916  0.89793  0.91320  Biso   1.000  C
  H386     1.0000 0.30200  0.88410  0.93100  Biso   1.000  H
  C417     1.0000 0.32870  0.89695  0.83640  Biso   1.000  C
  C418     1.0000 0.35188  0.91865  0.81460  Biso   1.000  C
  H387     1.0000 0.35860  0.91930  0.76260  Biso   1.000  H
  C419     1.0000 0.36572  0.93955  0.86530  Biso   1.000  C
  H388     1.0000 0.38160  0.95480  0.84720  Biso   1.000  H
  C420     1.0000 0.31300  0.87330  0.78070  Biso   1.000  C
  H389     1.0000 0.30280  0.85510  0.80980  Biso   1.000  H
  H390     1.0000 0.33030  0.86380  0.74760  Biso   1.000  H
  Mn31     1.0000 0.79582  0.82420  0.42144  Biso   1.000  Mn
  O91      1.0000 0.77079  0.84493  0.49640  Biso   1.000  O
  O92      1.0000 0.77751  0.74527  0.56565  Biso   1.000  O
  O93      1.0000 0.82031  0.79578  0.35258  Biso   1.000  O
  N81      1.0000 0.79019  0.78262  0.47360  Biso   1.000  N
  N82      1.0000 0.80590  0.75553  0.43610  Biso   1.000  N
  C421     1.0000 0.75513  0.83265  0.55430  Biso   1.000  C
  C422     1.0000 0.73497  0.85414  0.59900  Biso   1.000  C
  H391     1.0000 0.73130  0.87590  0.58110  Biso   1.000  H
  C423     1.0000 0.72110  0.84490  0.66470  Biso   1.000  C
  H392     1.0000 0.70810  0.86020  0.69220  Biso   1.000  H
  C424     1.0000 0.72520  0.81360  0.69380  Biso   1.000  C
  H393     1.0000 0.71580  0.80760  0.74160  Biso   1.000  H
  C425     1.0000 0.74380  0.79066  0.65030  Biso   1.000  C
  H394     1.0000 0.74630  0.76880  0.66850  Biso   1.000  H
  C426     1.0000 0.75829  0.79985  0.58160  Biso   1.000  C
  C427     1.0000 0.77600  0.77473  0.53890  Biso   1.000  C
  C428     1.0000 0.82021  0.76529  0.37410  Biso   1.000  C
  C429     1.0000 0.83749  0.74004  0.32550  Biso   1.000  C
  H395     1.0000 0.85030  0.72560  0.36000  Biso   1.000  H
  H396     1.0000 0.82060  0.72630  0.30050  Biso   1.000  H
  C430     1.0000 0.86040  0.75268  0.26410  Biso   1.000  C
  H397     1.0000 0.87600  0.76820  0.28680  Biso   1.000  H
  H398     1.0000 0.87240  0.73420  0.24150  Biso   1.000  H
  H399     1.0000 0.84760  0.76380  0.22430  Biso   1.000  H
  Mn32     1.0000 0.78913  0.70912  0.49539  Biso   1.000  Mn
  O94      1.0000 0.83059  0.69969  0.53507  Biso   1.000  O
  O95      1.0000 0.81744  0.63438  0.34786  Biso   1.000  O
  O96      1.0000 0.74693  0.71262  0.44429  Biso   1.000  O
  N83      1.0000 0.79370  0.67417  0.42073  Biso   1.000  N
  N84      1.0000 0.76550  0.66881  0.37550  Biso   1.000  N
  N85      1.0000 0.76291  0.67619  0.58260  Biso   1.000  N
  C431     1.0000 0.85236  0.67703  0.51390  Biso   1.000  C
  C432     1.0000 0.88153  0.67542  0.55650  Biso   1.000  C
  H400     1.0000 0.88500  0.69050  0.59730  Biso   1.000  H
  C433     1.0000 0.90528  0.65222  0.53980  Biso   1.000  C
  H401     1.0000 0.92440  0.65090  0.57090  Biso   1.000  H
  C434     1.0000 0.90175  0.63109  0.47920  Biso   1.000  C
  H402     1.0000 0.91840  0.61550  0.46730  Biso   1.000  H
  C435     1.0000 0.87342  0.63293  0.43570  Biso   1.000  C
  H403     1.0000 0.87080  0.61840  0.39350  Biso   1.000  H
  C436     1.0000 0.84850  0.65562  0.45230  Biso   1.000  C
  C437     1.0000 0.81888  0.65447  0.40420  Biso   1.000  C
  C438     1.0000 0.74278  0.68975  0.39280  Biso   1.000  C
  C439     1.0000 0.70981  0.68707  0.35540  Biso   1.000  C
  H404     1.0000 0.70890  0.66600  0.32720  Biso   1.000  H
  H405     1.0000 0.70780  0.70500  0.31730  Biso   1.000  H
  C440     1.0000 0.68114  0.68870  0.40770  Biso   1.000  C
  H406     1.0000 0.68360  0.70750  0.44230  Biso   1.000  H
  H407     1.0000 0.66100  0.69120  0.37760  Biso   1.000  H
  H408     1.0000 0.67990  0.66840  0.43780  Biso   1.000  H
  C441     1.0000 0.73340  0.68519  0.60600  Biso   1.000  C
  H409     1.0000 0.72530  0.70620  0.59140  Biso   1.000  H
  C442     1.0000 0.71330  0.66500  0.65150  Biso   1.000  C
  H410     1.0000 0.69150  0.67110  0.66440  Biso   1.000  H
  C443     1.0000 0.72730  0.63485  0.67720  Biso   1.000  C
  C444     1.0000 0.75340  0.62587  0.64500  Biso   1.000  C
  H411     1.0000 0.76110  0.60410  0.65260  Biso   1.000  H
  C445     1.0000 0.77140  0.64689  0.59870  Biso   1.000  C
  H412     1.0000 0.79130  0.63890  0.57750  Biso   1.000  H
  C446     1.0000 0.71040  0.61233  0.73560  Biso   1.000  C
  H413     1.0000 0.72750  0.60290  0.76930  Biso   1.000  H
  H414     1.0000 0.70010  0.59390  0.70750  Biso   1.000  H
  Mn33     1.0000 0.72044  0.86339  0.22380  Biso   1.000  Mn
  O97      1.0000 0.74060  0.90105  0.18737  Biso   1.000  O
  O98      1.0000 0.80292  0.86518  0.36427  Biso   1.000  O
  O99      1.0000 0.70526  0.82341  0.27264  Biso   1.000  O
  N86      1.0000 0.75618  0.85604  0.29574  Biso   1.000  N
  N87      1.0000 0.75359  0.82664  0.33770  Biso   1.000  N
  N88      1.0000 0.64199  0.56018  0.94060  Biso   1.000  N
  C447     1.0000 0.76571  0.91776  0.21670  Biso   1.000  C
  C448     1.0000 0.77225  0.94870  0.18540  Biso   1.000  C
  H415     1.0000 0.75890  0.95640  0.14460  Biso   1.000  H
  C449     1.0000 0.79724  0.96817  0.21130  Biso   1.000  C
  H416     1.0000 0.80080  0.98910  0.18890  Biso   1.000  H
  C450     1.0000 0.81769  0.95722  0.27100  Biso   1.000  C
  H417     1.0000 0.83500  0.97070  0.28980  Biso   1.000  H
  C451     1.0000 0.81202  0.92665  0.30130  Biso   1.000  C
  H418     1.0000 0.82620  0.91880  0.34060  Biso   1.000  H
  C452     1.0000 0.78634  0.90662  0.27690  Biso   1.000  C
  C453     1.0000 0.78177  0.87475  0.31400  Biso   1.000  C
  C454     1.0000 0.72625  0.81187  0.32170  Biso   1.000  C
  C455     1.0000 0.71717  0.78092  0.36200  Biso   1.000  C
  H419     1.0000 0.73680  0.77100  0.38610  Biso   1.000  H
  H420     1.0000 0.70790  0.76490  0.32510  Biso   1.000  H
  C456     1.0000 0.68960  0.79010  0.42800  Biso   1.000  C
  H421     1.0000 0.69730  0.80890  0.45810  Biso   1.000  H
  H422     1.0000 0.68650  0.77110  0.46190  Biso   1.000  H
  H423     1.0000 0.66870  0.79560  0.40330  Biso   1.000  H
  C457     1.0000 0.66508  0.58066  0.96360  Biso   1.000  C
  H424     1.0000 0.67120  0.58080  0.01610  Biso   1.000  H
  C458     1.0000 0.68084  0.60207  0.91320  Biso   1.000  C
  H425     1.0000 0.69800  0.61590  0.93100  Biso   1.000  H
  C459     1.0000 0.67130  0.60305  0.83640  Biso   1.000  C
  C460     1.0000 0.64812  0.58135  0.81460  Biso   1.000  C
  H426     1.0000 0.64140  0.58070  0.76260  Biso   1.000  H
  C461     1.0000 0.63428  0.56045  0.86530  Biso   1.000  C
  H427     1.0000 0.61840  0.54520  0.84720  Biso   1.000  H
  C462     1.0000 0.68700  0.62670  0.78070  Biso   1.000  C
  H428     1.0000 0.69720  0.64490  0.80980  Biso   1.000  H
  H429     1.0000 0.66970  0.63620  0.74760  Biso   1.000  H
  Mn34     1.0000 0.29582  0.32420  0.92144  Biso   1.000  Mn
  O100     1.0000 0.27079  0.34493  0.99640  Biso   1.000  O
  O101     1.0000 0.27751  0.24527  0.06565  Biso   1.000  O
  O102     1.0000 0.32031  0.29578  0.85258  Biso   1.000  O
  N89      1.0000 0.29019  0.28262  0.97360  Biso   1.000  N
  N90      1.0000 0.30590  0.25553  0.93610  Biso   1.000  N
  C463     1.0000 0.25513  0.33265  0.05430  Biso   1.000  C
  C464     1.0000 0.23497  0.35414  0.09900  Biso   1.000  C
  H430     1.0000 0.23130  0.37590  0.08110  Biso   1.000  H
  C465     1.0000 0.22110  0.34490  0.16470  Biso   1.000  C
  H431     1.0000 0.20810  0.36020  0.19220  Biso   1.000  H
  C466     1.0000 0.22520  0.31360  0.19380  Biso   1.000  C
  H432     1.0000 0.21580  0.30760  0.24160  Biso   1.000  H
  C467     1.0000 0.24380  0.29066  0.15030  Biso   1.000  C
  H433     1.0000 0.24630  0.26880  0.16850  Biso   1.000  H
  C468     1.0000 0.25829  0.29985  0.08160  Biso   1.000  C
  C469     1.0000 0.27600  0.27473  0.03890  Biso   1.000  C
  C470     1.0000 0.32021  0.26529  0.87410  Biso   1.000  C
  C471     1.0000 0.33749  0.24004  0.82550  Biso   1.000  C
  H434     1.0000 0.35030  0.22560  0.86000  Biso   1.000  H
  H435     1.0000 0.32060  0.22630  0.80050  Biso   1.000  H
  C472     1.0000 0.36040  0.25268  0.76410  Biso   1.000  C
  H436     1.0000 0.37600  0.26820  0.78680  Biso   1.000  H
  H437     1.0000 0.37240  0.23420  0.74150  Biso   1.000  H
  H438     1.0000 0.34760  0.26380  0.72430  Biso   1.000  H
  Mn35     1.0000 0.28913  0.20912  0.99539  Biso   1.000  Mn
  O103     1.0000 0.33059  0.19969  0.03507  Biso   1.000  O
  O104     1.0000 0.31744  0.13438  0.84786  Biso   1.000  O
  O105     1.0000 0.24693  0.21262  0.94429  Biso   1.000  O
  N91      1.0000 0.29370  0.17417  0.92073  Biso   1.000  N
  N92      1.0000 0.26550  0.16881  0.87550  Biso   1.000  N
  N93      1.0000 0.26291  0.17619  0.08260  Biso   1.000  N
  C473     1.0000 0.35236  0.17703  0.01390  Biso   1.000  C
  C474     1.0000 0.38153  0.17542  0.05650  Biso   1.000  C
  H439     1.0000 0.38500  0.19050  0.09730  Biso   1.000  H
  C475     1.0000 0.40528  0.15222  0.03980  Biso   1.000  C
  H440     1.0000 0.42440  0.15090  0.07090  Biso   1.000  H
  C476     1.0000 0.40175  0.13109  0.97920  Biso   1.000  C
  H441     1.0000 0.41840  0.11550  0.96730  Biso   1.000  H
  C477     1.0000 0.37342  0.13293  0.93570  Biso   1.000  C
  H442     1.0000 0.37080  0.11840  0.89350  Biso   1.000  H
  C478     1.0000 0.34850  0.15562  0.95230  Biso   1.000  C
  C479     1.0000 0.31888  0.15447  0.90420  Biso   1.000  C
  C480     1.0000 0.24278  0.18975  0.89280  Biso   1.000  C
  C481     1.0000 0.20981  0.18707  0.85540  Biso   1.000  C
  H443     1.0000 0.20890  0.16600  0.82720  Biso   1.000  H
  H444     1.0000 0.20780  0.20500  0.81730  Biso   1.000  H
  C482     1.0000 0.18114  0.18870  0.90770  Biso   1.000  C
  H445     1.0000 0.18360  0.20750  0.94230  Biso   1.000  H
  H446     1.0000 0.16100  0.19120  0.87760  Biso   1.000  H
  H447     1.0000 0.17990  0.16840  0.93780  Biso   1.000  H
  C483     1.0000 0.23340  0.18519  0.10600  Biso   1.000  C
  H448     1.0000 0.22530  0.20620  0.09140  Biso   1.000  H
  C484     1.0000 0.21330  0.16500  0.15150  Biso   1.000  C
  H449     1.0000 0.19150  0.17110  0.16440  Biso   1.000  H
  C485     1.0000 0.22730  0.13485  0.17720  Biso   1.000  C
  C486     1.0000 0.25340  0.12587  0.14500  Biso   1.000  C
  H450     1.0000 0.26110  0.10410  0.15260  Biso   1.000  H
  C487     1.0000 0.27140  0.14689  0.09870  Biso   1.000  C
  H451     1.0000 0.29130  0.13890  0.07750  Biso   1.000  H
  C488     1.0000 0.21040  0.11233  0.23560  Biso   1.000  C
  H452     1.0000 0.22750  0.10290  0.26930  Biso   1.000  H
  H453     1.0000 0.20010  0.09390  0.20750  Biso   1.000  H
  Mn36     1.0000 0.22044  0.36339  0.72380  Biso   1.000  Mn
  O106     1.0000 0.24060  0.40105  0.68737  Biso   1.000  O
  O107     1.0000 0.30292  0.36518  0.86427  Biso   1.000  O
  O108     1.0000 0.20526  0.32341  0.77264  Biso   1.000  O
  N94      1.0000 0.25618  0.35604  0.79574  Biso   1.000  N
  N95      1.0000 0.25359  0.32664  0.83770  Biso   1.000  N
  N96      1.0000 0.14199  0.06018  0.44060  Biso   1.000  N
  C489     1.0000 0.26571  0.41776  0.71670  Biso   1.000  C
  C490     1.0000 0.27225  0.44870  0.68540  Biso   1.000  C
  H454     1.0000 0.25890  0.45640  0.64460  Biso   1.000  H
  C491     1.0000 0.29724  0.46817  0.71130  Biso   1.000  C
  H455     1.0000 0.30080  0.48910  0.68890  Biso   1.000  H
  C492     1.0000 0.31769  0.45722  0.77100  Biso   1.000  C
  H456     1.0000 0.33500  0.47070  0.78980  Biso   1.000  H
  C493     1.0000 0.31202  0.42665  0.80130  Biso   1.000  C
  H457     1.0000 0.32620  0.41880  0.84060  Biso   1.000  H
  C494     1.0000 0.28634  0.40662  0.77690  Biso   1.000  C
  C495     1.0000 0.28177  0.37475  0.81400  Biso   1.000  C
  C496     1.0000 0.22625  0.31187  0.82170  Biso   1.000  C
  C497     1.0000 0.21717  0.28092  0.86200  Biso   1.000  C
  H458     1.0000 0.23680  0.27100  0.88610  Biso   1.000  H
  H459     1.0000 0.20790  0.26490  0.82510  Biso   1.000  H
  C498     1.0000 0.18960  0.29010  0.92800  Biso   1.000  C
  H460     1.0000 0.19730  0.30890  0.95810  Biso   1.000  H
  H461     1.0000 0.18650  0.27110  0.96190  Biso   1.000  H
  H462     1.0000 0.16870  0.29560  0.90330  Biso   1.000  H
  C499     1.0000 0.16508  0.08066  0.46360  Biso   1.000  C
  H463     1.0000 0.17120  0.08080  0.51610  Biso   1.000  H
  C500     1.0000 0.18084  0.10207  0.41320  Biso   1.000  C
  H464     1.0000 0.19800  0.11590  0.43100  Biso   1.000  H
  C501     1.0000 0.17130  0.10305  0.33640  Biso   1.000  C
  C502     1.0000 0.14812  0.08135  0.31460  Biso   1.000  C
  H465     1.0000 0.14140  0.08070  0.26260  Biso   1.000  H
  C503     1.0000 0.13428  0.06045  0.36530  Biso   1.000  C
  H466     1.0000 0.11840  0.04520  0.34720  Biso   1.000  H
  C504     1.0000 0.18700  0.12670  0.28070  Biso   1.000  C
  H467     1.0000 0.19720  0.14490  0.30980  Biso   1.000  H
  H468     1.0000 0.16970  0.13620  0.24760  Biso   1.000  H
  Mn37     1.0000 0.07420  0.45418  0.67144  Biso   1.000  Mn
  O109     1.0000 0.09493  0.47921  0.74640  Biso   1.000  O
  O110     1.0000 0.99527  0.47249  0.81565  Biso   1.000  O
  O111     1.0000 0.04578  0.42969  0.60258  Biso   1.000  O
  N97      1.0000 0.03262  0.45981  0.72360  Biso   1.000  N
  N98      1.0000 0.00553  0.44410  0.68610  Biso   1.000  N
  C505     1.0000 0.08265  0.49487  0.80430  Biso   1.000  C
  C506     1.0000 0.10414  0.51503  0.84900  Biso   1.000  C
  H469     1.0000 0.12590  0.51870  0.83110  Biso   1.000  H
  C507     1.0000 0.09490  0.52890  0.91470  Biso   1.000  C
  H470     1.0000 0.11020  0.54190  0.94220  Biso   1.000  H
  C508     1.0000 0.06360  0.52480  0.94380  Biso   1.000  C
  H471     1.0000 0.05760  0.53420  0.99160  Biso   1.000  H
  C509     1.0000 0.04066  0.50620  0.90030  Biso   1.000  C
  H472     1.0000 0.01880  0.50370  0.91850  Biso   1.000  H
  C510     1.0000 0.04985  0.49171  0.83160  Biso   1.000  C
  C511     1.0000 0.02473  0.47400  0.78890  Biso   1.000  C
  C512     1.0000 0.01529  0.42979  0.62410  Biso   1.000  C
  C513     1.0000 0.99004  0.41251  0.57550  Biso   1.000  C
  H473     1.0000 0.97560  0.39970  0.61000  Biso   1.000  H
  H474     1.0000 0.97630  0.42940  0.55050  Biso   1.000  H
  C514     1.0000 0.00268  0.38960  0.51410  Biso   1.000  C
  H475     1.0000 0.01820  0.37400  0.53680  Biso   1.000  H
  H476     1.0000 0.98420  0.37760  0.49150  Biso   1.000  H
  H477     1.0000 0.01380  0.40240  0.47430  Biso   1.000  H
  Mn38     1.0000 0.95912  0.46087  0.74539  Biso   1.000  Mn
  O112     1.0000 0.94969  0.41941  0.78507  Biso   1.000  O
  O113     1.0000 0.88438  0.43256  0.59786  Biso   1.000  O
  O114     1.0000 0.96262  0.50307  0.69429  Biso   1.000  O
  N99      1.0000 0.92417  0.45630  0.67073  Biso   1.000  N
  N100     1.0000 0.91881  0.48450  0.62550  Biso   1.000  N
  N101     1.0000 0.92619  0.48709  0.83260  Biso   1.000  N
  C515     1.0000 0.92703  0.39764  0.76390  Biso   1.000  C
  C516     1.0000 0.92542  0.36847  0.80650  Biso   1.000  C
  H478     1.0000 0.94050  0.36500  0.84730  Biso   1.000  H
  C517     1.0000 0.90222  0.34472  0.78980  Biso   1.000  C
  H479     1.0000 0.90090  0.32560  0.82090  Biso   1.000  H
  C518     1.0000 0.88109  0.34825  0.72920  Biso   1.000  C
  H480     1.0000 0.86550  0.33160  0.71730  Biso   1.000  H
  C519     1.0000 0.88293  0.37658  0.68570  Biso   1.000  C
  H481     1.0000 0.86840  0.37920  0.64350  Biso   1.000  H
  C520     1.0000 0.90562  0.40150  0.70230  Biso   1.000  C
  C521     1.0000 0.90447  0.43112  0.65420  Biso   1.000  C
  C522     1.0000 0.93975  0.50722  0.64280  Biso   1.000  C
  C523     1.0000 0.93707  0.54019  0.60540  Biso   1.000  C
  H482     1.0000 0.91600  0.54110  0.57720  Biso   1.000  H
  H483     1.0000 0.95500  0.54220  0.56730  Biso   1.000  H
  C524     1.0000 0.93870  0.56886  0.65770  Biso   1.000  C
  H484     1.0000 0.95750  0.56640  0.69230  Biso   1.000  H
  H485     1.0000 0.94120  0.58900  0.62760  Biso   1.000  H
  H486     1.0000 0.91840  0.57010  0.68780  Biso   1.000  H
  C525     1.0000 0.93519  0.51660  0.85600  Biso   1.000  C
  H487     1.0000 0.95620  0.52470  0.84140  Biso   1.000  H
  C526     1.0000 0.91500  0.53670  0.90150  Biso   1.000  C
  H488     1.0000 0.92110  0.55850  0.91440  Biso   1.000  H
  C527     1.0000 0.88485  0.52270  0.92720  Biso   1.000  C
  C528     1.0000 0.87587  0.49660  0.89500  Biso   1.000  C
  H489     1.0000 0.85410  0.48890  0.90260  Biso   1.000  H
  C529     1.0000 0.89689  0.47860  0.84870  Biso   1.000  C
  H490     1.0000 0.88890  0.45870  0.82750  Biso   1.000  H
  C530     1.0000 0.86233  0.53960  0.98560  Biso   1.000  C
  H491     1.0000 0.85290  0.52250  0.01930  Biso   1.000  H
  H492     1.0000 0.84390  0.54990  0.95750  Biso   1.000  H
  Mn39     1.0000 0.11339  0.52956  0.47380  Biso   1.000  Mn
  O115     1.0000 0.15105  0.50940  0.43737  Biso   1.000  O
  O116     1.0000 0.11518  0.44708  0.61427  Biso   1.000  O
  O117     1.0000 0.07341  0.54474  0.52264  Biso   1.000  O
  N102     1.0000 0.10604  0.49382  0.54574  Biso   1.000  N
  N103     1.0000 0.07664  0.49641  0.58770  Biso   1.000  N
  N104     1.0000 0.81018  0.60801  0.19060  Biso   1.000  N
  C531     1.0000 0.16776  0.48429  0.46670  Biso   1.000  C
  C532     1.0000 0.19870  0.47775  0.43540  Biso   1.000  C
  H493     1.0000 0.20640  0.49110  0.39460  Biso   1.000  H
  C533     1.0000 0.21817  0.45276  0.46130  Biso   1.000  C
  H494     1.0000 0.23910  0.44920  0.43890  Biso   1.000  H
  C534     1.0000 0.20722  0.43231  0.52100  Biso   1.000  C
  H495     1.0000 0.22070  0.41500  0.53980  Biso   1.000  H
  C535     1.0000 0.17665  0.43798  0.55130  Biso   1.000  C
  H496     1.0000 0.16880  0.42380  0.59060  Biso   1.000  H
  C536     1.0000 0.15662  0.46366  0.52690  Biso   1.000  C
  C537     1.0000 0.12475  0.46823  0.56400  Biso   1.000  C
  C538     1.0000 0.06187  0.52375  0.57170  Biso   1.000  C
  C539     1.0000 0.03092  0.53283  0.61200  Biso   1.000  C
  H497     1.0000 0.02100  0.51320  0.63610  Biso   1.000  H
  H498     1.0000 0.01490  0.54210  0.57510  Biso   1.000  H
  C540     1.0000 0.04010  0.56040  0.67800  Biso   1.000  C
  H499     1.0000 0.05890  0.55270  0.70810  Biso   1.000  H
  H500     1.0000 0.02110  0.56350  0.71190  Biso   1.000  H
  H501     1.0000 0.04560  0.58130  0.65330  Biso   1.000  H
  C541     1.0000 0.83066  0.58492  0.21360  Biso   1.000  C
  H502     1.0000 0.83080  0.57880  0.26610  Biso   1.000  H
  C542     1.0000 0.85207  0.56916  0.16320  Biso   1.000  C
  H503     1.0000 0.86590  0.55200  0.18100  Biso   1.000  H
  C543     1.0000 0.85305  0.57870  0.08640  Biso   1.000  C
  C544     1.0000 0.83135  0.60188  0.06460  Biso   1.000  C
  H504     1.0000 0.83070  0.60860  0.01260  Biso   1.000  H
  C545     1.0000 0.81045  0.61572  0.11530  Biso   1.000  C
  H505     1.0000 0.79520  0.63160  0.09720  Biso   1.000  H
  C546     1.0000 0.87670  0.56300  0.03070  Biso   1.000  C
  H506     1.0000 0.89490  0.55280  0.05980  Biso   1.000  H
  H507     1.0000 0.88620  0.58030  0.99760  Biso   1.000  H
  Mn40     1.0000 0.57420  0.95418  0.17144  Biso   1.000  Mn
  O118     1.0000 0.59493  0.97921  0.24640  Biso   1.000  O
  O119     1.0000 0.49527  0.97249  0.31565  Biso   1.000  O
  O120     1.0000 0.54578  0.92969  0.10258  Biso   1.000  O
  N105     1.0000 0.53262  0.95981  0.22360  Biso   1.000  N
  N106     1.0000 0.50553  0.94410  0.18610  Biso   1.000  N
  C547     1.0000 0.58265  0.99487  0.30430  Biso   1.000  C
  C548     1.0000 0.60414  0.01503  0.34900  Biso   1.000  C
  H508     1.0000 0.62590  0.01870  0.33110  Biso   1.000  H
  C549     1.0000 0.59490  0.02890  0.41470  Biso   1.000  C
  H509     1.0000 0.61020  0.04190  0.44220  Biso   1.000  H
  C550     1.0000 0.56360  0.02480  0.44380  Biso   1.000  C
  H510     1.0000 0.55760  0.03420  0.49160  Biso   1.000  H
  C551     1.0000 0.54066  0.00620  0.40030  Biso   1.000  C
  H511     1.0000 0.51880  0.00370  0.41850  Biso   1.000  H
  C552     1.0000 0.54985  0.99171  0.33160  Biso   1.000  C
  C553     1.0000 0.52473  0.97400  0.28890  Biso   1.000  C
  C554     1.0000 0.51529  0.92979  0.12410  Biso   1.000  C
  C555     1.0000 0.49004  0.91251  0.07550  Biso   1.000  C
  H512     1.0000 0.47560  0.89970  0.11000  Biso   1.000  H
  H513     1.0000 0.47630  0.92940  0.05050  Biso   1.000  H
  C556     1.0000 0.50268  0.88960  0.01410  Biso   1.000  C
  H514     1.0000 0.51820  0.87400  0.03680  Biso   1.000  H
  H515     1.0000 0.48420  0.87760  0.99150  Biso   1.000  H
  H516     1.0000 0.51380  0.90240  0.97430  Biso   1.000  H
  Mn41     1.0000 0.45912  0.96087  0.24539  Biso   1.000  Mn
  O121     1.0000 0.44969  0.91941  0.28507  Biso   1.000  O
  O122     1.0000 0.38438  0.93256  0.09786  Biso   1.000  O
  O123     1.0000 0.46262  0.00307  0.19429  Biso   1.000  O
  N107     1.0000 0.42417  0.95630  0.17073  Biso   1.000  N
  N108     1.0000 0.41881  0.98450  0.12550  Biso   1.000  N
  N109     1.0000 0.42619  0.98709  0.33260  Biso   1.000  N
  C557     1.0000 0.42703  0.89764  0.26390  Biso   1.000  C
  C558     1.0000 0.42542  0.86847  0.30650  Biso   1.000  C
  H517     1.0000 0.44050  0.86500  0.34730  Biso   1.000  H
  C559     1.0000 0.40222  0.84472  0.28980  Biso   1.000  C
  H518     1.0000 0.40090  0.82560  0.32090  Biso   1.000  H
  C560     1.0000 0.38109  0.84825  0.22920  Biso   1.000  C
  H519     1.0000 0.36550  0.83160  0.21730  Biso   1.000  H
  C561     1.0000 0.38293  0.87658  0.18570  Biso   1.000  C
  H520     1.0000 0.36840  0.87920  0.14350  Biso   1.000  H
  C562     1.0000 0.40562  0.90150  0.20230  Biso   1.000  C
  C563     1.0000 0.40447  0.93112  0.15420  Biso   1.000  C
  C564     1.0000 0.43975  0.00722  0.14280  Biso   1.000  C
  C565     1.0000 0.43707  0.04019  0.10540  Biso   1.000  C
  H521     1.0000 0.41600  0.04110  0.07720  Biso   1.000  H
  H522     1.0000 0.45500  0.04220  0.06730  Biso   1.000  H
  C566     1.0000 0.43870  0.06886  0.15770  Biso   1.000  C
  H523     1.0000 0.45750  0.06640  0.19230  Biso   1.000  H
  H524     1.0000 0.44120  0.08900  0.12760  Biso   1.000  H
  H525     1.0000 0.41840  0.07010  0.18780  Biso   1.000  H
  C567     1.0000 0.43519  0.01660  0.35600  Biso   1.000  C
  H526     1.0000 0.45620  0.02470  0.34140  Biso   1.000  H
  C568     1.0000 0.41500  0.03670  0.40150  Biso   1.000  C
  H527     1.0000 0.42110  0.05850  0.41440  Biso   1.000  H
  C569     1.0000 0.38485  0.02270  0.42720  Biso   1.000  C
  C570     1.0000 0.37587  0.99660  0.39500  Biso   1.000  C
  H528     1.0000 0.35410  0.98890  0.40260  Biso   1.000  H
  C571     1.0000 0.39689  0.97860  0.34870  Biso   1.000  C
  H529     1.0000 0.38890  0.95870  0.32750  Biso   1.000  H
  C572     1.0000 0.36233  0.03960  0.48560  Biso   1.000  C
  H530     1.0000 0.35290  0.02250  0.51930  Biso   1.000  H
  H531     1.0000 0.34390  0.04990  0.45750  Biso   1.000  H
  Mn42     1.0000 0.61339  0.02956  0.97380  Biso   1.000  Mn
  O124     1.0000 0.65105  0.00940  0.93737  Biso   1.000  O
  O125     1.0000 0.61518  0.94708  0.11427  Biso   1.000  O
  O126     1.0000 0.57341  0.04474  0.02264  Biso   1.000  O
  N110     1.0000 0.60604  0.99382  0.04574  Biso   1.000  N
  N111     1.0000 0.57664  0.99641  0.08770  Biso   1.000  N
  N112     1.0000 0.31018  0.10801  0.69060  Biso   1.000  N
  C573     1.0000 0.66776  0.98429  0.96670  Biso   1.000  C
  C574     1.0000 0.69870  0.97775  0.93540  Biso   1.000  C
  H532     1.0000 0.70640  0.99110  0.89460  Biso   1.000  H
  C575     1.0000 0.71817  0.95276  0.96130  Biso   1.000  C
  H533     1.0000 0.73910  0.94920  0.93890  Biso   1.000  H
  C576     1.0000 0.70722  0.93231  0.02100  Biso   1.000  C
  H534     1.0000 0.72070  0.91500  0.03980  Biso   1.000  H
  C577     1.0000 0.67665  0.93798  0.05130  Biso   1.000  C
  H535     1.0000 0.66880  0.92380  0.09060  Biso   1.000  H
  C578     1.0000 0.65662  0.96366  0.02690  Biso   1.000  C
  C579     1.0000 0.62475  0.96823  0.06400  Biso   1.000  C
  C580     1.0000 0.56187  0.02375  0.07170  Biso   1.000  C
  C581     1.0000 0.53092  0.03283  0.11200  Biso   1.000  C
  H536     1.0000 0.52100  0.01320  0.13610  Biso   1.000  H
  H537     1.0000 0.51490  0.04210  0.07510  Biso   1.000  H
  C582     1.0000 0.54010  0.06040  0.17800  Biso   1.000  C
  H538     1.0000 0.55890  0.05270  0.20810  Biso   1.000  H
  H539     1.0000 0.52110  0.06350  0.21190  Biso   1.000  H
  H540     1.0000 0.54560  0.08130  0.15330  Biso   1.000  H
  C583     1.0000 0.33066  0.08492  0.71360  Biso   1.000  C
  H541     1.0000 0.33080  0.07880  0.76610  Biso   1.000  H
  C584     1.0000 0.35207  0.06916  0.66320  Biso   1.000  C
  H542     1.0000 0.36590  0.05200  0.68100  Biso   1.000  H
  C585     1.0000 0.35305  0.07870  0.58640  Biso   1.000  C
  C586     1.0000 0.33135  0.10188  0.56460  Biso   1.000  C
  H543     1.0000 0.33070  0.10860  0.51260  Biso   1.000  H
  C587     1.0000 0.31045  0.11572  0.61530  Biso   1.000  C
  H544     1.0000 0.29520  0.13160  0.59720  Biso   1.000  H
  C588     1.0000 0.37670  0.06300  0.53070  Biso   1.000  C
  H545     1.0000 0.39490  0.05280  0.55980  Biso   1.000  H
  H546     1.0000 0.38620  0.08030  0.49760  Biso   1.000  H
  Mn43     1.0000 0.42580  0.54582  0.17144  Biso   1.000  Mn
  O127     1.0000 0.40507  0.52079  0.24640  Biso   1.000  O
  O128     1.0000 0.50473  0.52751  0.31565  Biso   1.000  O
  O129     1.0000 0.45422  0.57031  0.10258  Biso   1.000  O
  N113     1.0000 0.46738  0.54019  0.22360  Biso   1.000  N
  N114     1.0000 0.49447  0.55590  0.18610  Biso   1.000  N
  C589     1.0000 0.41735  0.50513  0.30430  Biso   1.000  C
  C590     1.0000 0.39586  0.48497  0.34900  Biso   1.000  C
  H547     1.0000 0.37410  0.48130  0.33110  Biso   1.000  H
  C591     1.0000 0.40510  0.47110  0.41470  Biso   1.000  C
  H548     1.0000 0.38980  0.45810  0.44220  Biso   1.000  H
  C592     1.0000 0.43640  0.47520  0.44380  Biso   1.000  C
  H549     1.0000 0.44240  0.46580  0.49160  Biso   1.000  H
  C593     1.0000 0.45934  0.49380  0.40030  Biso   1.000  C
  H550     1.0000 0.48120  0.49630  0.41850  Biso   1.000  H
  C594     1.0000 0.45015  0.50829  0.33160  Biso   1.000  C
  C595     1.0000 0.47527  0.52600  0.28890  Biso   1.000  C
  C596     1.0000 0.48471  0.57021  0.12410  Biso   1.000  C
  C597     1.0000 0.50996  0.58749  0.07550  Biso   1.000  C
  H551     1.0000 0.52440  0.60030  0.11000  Biso   1.000  H
  H552     1.0000 0.52370  0.57060  0.05050  Biso   1.000  H
  C598     1.0000 0.49732  0.61040  0.01410  Biso   1.000  C
  H553     1.0000 0.48180  0.62600  0.03680  Biso   1.000  H
  H554     1.0000 0.51580  0.62240  0.99150  Biso   1.000  H
  H555     1.0000 0.48620  0.59760  0.97430  Biso   1.000  H
  Mn44     1.0000 0.54088  0.53913  0.24539  Biso   1.000  Mn
  O130     1.0000 0.55031  0.58059  0.28507  Biso   1.000  O
  O131     1.0000 0.61562  0.56744  0.09786  Biso   1.000  O
  O132     1.0000 0.53738  0.49693  0.19429  Biso   1.000  O
  N115     1.0000 0.57583  0.54370  0.17073  Biso   1.000  N
  N116     1.0000 0.58119  0.51550  0.12550  Biso   1.000  N
  N117     1.0000 0.57381  0.51291  0.33260  Biso   1.000  N
  C599     1.0000 0.57297  0.60236  0.26390  Biso   1.000  C
  C600     1.0000 0.57458  0.63153  0.30650  Biso   1.000  C
  H556     1.0000 0.55950  0.63500  0.34730  Biso   1.000  H
  C601     1.0000 0.59778  0.65528  0.28980  Biso   1.000  C
  H557     1.0000 0.59910  0.67440  0.32090  Biso   1.000  H
  C602     1.0000 0.61891  0.65175  0.22920  Biso   1.000  C
  H558     1.0000 0.63450  0.66840  0.21730  Biso   1.000  H
  C603     1.0000 0.61707  0.62342  0.18570  Biso   1.000  C
  H559     1.0000 0.63160  0.62080  0.14350  Biso   1.000  H
  C604     1.0000 0.59438  0.59850  0.20230  Biso   1.000  C
  C605     1.0000 0.59553  0.56888  0.15420  Biso   1.000  C
  C606     1.0000 0.56025  0.49278  0.14280  Biso   1.000  C
  C607     1.0000 0.56293  0.45981  0.10540  Biso   1.000  C
  H560     1.0000 0.58400  0.45890  0.07720  Biso   1.000  H
  H561     1.0000 0.54500  0.45780  0.06730  Biso   1.000  H
  C608     1.0000 0.56130  0.43114  0.15770  Biso   1.000  C
  H562     1.0000 0.54250  0.43360  0.19230  Biso   1.000  H
  H563     1.0000 0.55880  0.41100  0.12760  Biso   1.000  H
  H564     1.0000 0.58160  0.42990  0.18780  Biso   1.000  H
  C609     1.0000 0.56481  0.48340  0.35600  Biso   1.000  C
  H565     1.0000 0.54380  0.47530  0.34140  Biso   1.000  H
  C610     1.0000 0.58500  0.46330  0.40150  Biso   1.000  C
  H566     1.0000 0.57890  0.44150  0.41440  Biso   1.000  H
  C611     1.0000 0.61515  0.47730  0.42720  Biso   1.000  C
  C612     1.0000 0.62413  0.50340  0.39500  Biso   1.000  C
  H567     1.0000 0.64590  0.51110  0.40260  Biso   1.000  H
  C613     1.0000 0.60311  0.52140  0.34870  Biso   1.000  C
  H568     1.0000 0.61110  0.54130  0.32750  Biso   1.000  H
  C614     1.0000 0.63767  0.46040  0.48560  Biso   1.000  C
  H569     1.0000 0.64710  0.47750  0.51930  Biso   1.000  H
  H570     1.0000 0.65610  0.45010  0.45750  Biso   1.000  H
  Mn45     1.0000 0.38661  0.47044  0.97380  Biso   1.000  Mn
  O133     1.0000 0.34895  0.49060  0.93737  Biso   1.000  O
  O134     1.0000 0.38482  0.55292  0.11427  Biso   1.000  O
  O135     1.0000 0.42659  0.45526  0.02264  Biso   1.000  O
  N118     1.0000 0.39396  0.50618  0.04574  Biso   1.000  N
  N119     1.0000 0.42336  0.50359  0.08770  Biso   1.000  N
  N120     1.0000 0.68982  0.39199  0.69060  Biso   1.000  N
  C615     1.0000 0.33224  0.51571  0.96670  Biso   1.000  C
  C616     1.0000 0.30130  0.52225  0.93540  Biso   1.000  C
  H571     1.0000 0.29360  0.50890  0.89460  Biso   1.000  H
  C617     1.0000 0.28183  0.54724  0.96130  Biso   1.000  C
  H572     1.0000 0.26090  0.55080  0.93890  Biso   1.000  H
  C618     1.0000 0.29278  0.56769  0.02100  Biso   1.000  C
  H573     1.0000 0.27930  0.58500  0.03980  Biso   1.000  H
  C619     1.0000 0.32335  0.56202  0.05130  Biso   1.000  C
  H574     1.0000 0.33120  0.57620  0.09060  Biso   1.000  H
  C620     1.0000 0.34338  0.53634  0.02690  Biso   1.000  C
  C621     1.0000 0.37525  0.53177  0.06400  Biso   1.000  C
  C622     1.0000 0.43813  0.47625  0.07170  Biso   1.000  C
  C623     1.0000 0.46908  0.46717  0.11200  Biso   1.000  C
  H575     1.0000 0.47900  0.48680  0.13610  Biso   1.000  H
  H576     1.0000 0.48510  0.45790  0.07510  Biso   1.000  H
  C624     1.0000 0.45990  0.43960  0.17800  Biso   1.000  C
  H577     1.0000 0.44110  0.44730  0.20810  Biso   1.000  H
  H578     1.0000 0.47890  0.43650  0.21190  Biso   1.000  H
  H579     1.0000 0.45440  0.41870  0.15330  Biso   1.000  H
  C625     1.0000 0.66934  0.41508  0.71360  Biso   1.000  C
  H580     1.0000 0.66920  0.42120  0.76610  Biso   1.000  H
  C626     1.0000 0.64793  0.43084  0.66320  Biso   1.000  C
  H581     1.0000 0.63410  0.44800  0.68100  Biso   1.000  H
  C627     1.0000 0.64695  0.42130  0.58640  Biso   1.000  C
  C628     1.0000 0.66865  0.39812  0.56460  Biso   1.000  C
  H582     1.0000 0.66930  0.39140  0.51260  Biso   1.000  H
  C629     1.0000 0.68955  0.38428  0.61530  Biso   1.000  C
  H583     1.0000 0.70480  0.36840  0.59720  Biso   1.000  H
  C630     1.0000 0.62330  0.43700  0.53070  Biso   1.000  C
  H584     1.0000 0.60510  0.44720  0.55980  Biso   1.000  H
  H585     1.0000 0.61380  0.41970  0.49760  Biso   1.000  H
  Mn46     1.0000 0.92580  0.04582  0.67144  Biso   1.000  Mn
  O136     1.0000 0.90507  0.02079  0.74640  Biso   1.000  O
  O137     1.0000 0.00473  0.02751  0.81565  Biso   1.000  O
  O138     1.0000 0.95422  0.07031  0.60258  Biso   1.000  O
  N121     1.0000 0.96738  0.04019  0.72360  Biso   1.000  N
  N122     1.0000 0.99447  0.05590  0.68610  Biso   1.000  N
  C631     1.0000 0.91735  0.00513  0.80430  Biso   1.000  C
  C632     1.0000 0.89586  0.98497  0.84900  Biso   1.000  C
  H586     1.0000 0.87410  0.98130  0.83110  Biso   1.000  H
  C633     1.0000 0.90510  0.97110  0.91470  Biso   1.000  C
  H587     1.0000 0.88980  0.95810  0.94220  Biso   1.000  H
  C634     1.0000 0.93640  0.97520  0.94380  Biso   1.000  C
  H588     1.0000 0.94240  0.96580  0.99160  Biso   1.000  H
  C635     1.0000 0.95934  0.99380  0.90030  Biso   1.000  C
  H589     1.0000 0.98120  0.99630  0.91850  Biso   1.000  H
  C636     1.0000 0.95015  0.00829  0.83160  Biso   1.000  C
  C637     1.0000 0.97527  0.02600  0.78890  Biso   1.000  C
  C638     1.0000 0.98471  0.07021  0.62410  Biso   1.000  C
  C639     1.0000 0.00996  0.08749  0.57550  Biso   1.000  C
  H590     1.0000 0.02440  0.10030  0.61000  Biso   1.000  H
  H591     1.0000 0.02370  0.07060  0.55050  Biso   1.000  H
  C640     1.0000 0.99732  0.11040  0.51410  Biso   1.000  C
  H592     1.0000 0.98180  0.12600  0.53680  Biso   1.000  H
  H593     1.0000 0.01580  0.12240  0.49150  Biso   1.000  H
  H594     1.0000 0.98620  0.09760  0.47430  Biso   1.000  H
  Mn47     1.0000 0.04088  0.03913  0.74539  Biso   1.000  Mn
  O139     1.0000 0.05031  0.08059  0.78507  Biso   1.000  O
  O140     1.0000 0.11562  0.06744  0.59786  Biso   1.000  O
  O141     1.0000 0.03738  0.99693  0.69429  Biso   1.000  O
  N123     1.0000 0.07583  0.04370  0.67073  Biso   1.000  N
  N124     1.0000 0.08119  0.01550  0.62550  Biso   1.000  N
  N125     1.0000 0.07381  0.01291  0.83260  Biso   1.000  N
  C641     1.0000 0.07297  0.10236  0.76390  Biso   1.000  C
  C642     1.0000 0.07458  0.13153  0.80650  Biso   1.000  C
  H595     1.0000 0.05950  0.13500  0.84730  Biso   1.000  H
  C643     1.0000 0.09778  0.15528  0.78980  Biso   1.000  C
  H596     1.0000 0.09910  0.17440  0.82090  Biso   1.000  H
  C644     1.0000 0.11891  0.15175  0.72920  Biso   1.000  C
  H597     1.0000 0.13450  0.16840  0.71730  Biso   1.000  H
  C645     1.0000 0.11707  0.12342  0.68570  Biso   1.000  C
  H598     1.0000 0.13160  0.12080  0.64350  Biso   1.000  H
  C646     1.0000 0.09438  0.09850  0.70230  Biso   1.000  C
  C647     1.0000 0.09553  0.06888  0.65420  Biso   1.000  C
  C648     1.0000 0.06025  0.99278  0.64280  Biso   1.000  C
  C649     1.0000 0.06293  0.95981  0.60540  Biso   1.000  C
  H599     1.0000 0.08400  0.95890  0.57720  Biso   1.000  H
  H600     1.0000 0.04500  0.95780  0.56730  Biso   1.000  H
  C650     1.0000 0.06130  0.93114  0.65770  Biso   1.000  C
  H601     1.0000 0.04250  0.93360  0.69230  Biso   1.000  H
  H602     1.0000 0.05880  0.91100  0.62760  Biso   1.000  H
  H603     1.0000 0.08160  0.92990  0.68780  Biso   1.000  H
  C651     1.0000 0.06481  0.98340  0.85600  Biso   1.000  C
  H604     1.0000 0.04380  0.97530  0.84140  Biso   1.000  H
  C652     1.0000 0.08500  0.96330  0.90150  Biso   1.000  C
  H605     1.0000 0.07890  0.94150  0.91440  Biso   1.000  H
  C653     1.0000 0.11515  0.97730  0.92720  Biso   1.000  C
  C654     1.0000 0.12413  0.00340  0.89500  Biso   1.000  C
  H606     1.0000 0.14590  0.01110  0.90260  Biso   1.000  H
  C655     1.0000 0.10311  0.02140  0.84870  Biso   1.000  C
  H607     1.0000 0.11110  0.04130  0.82750  Biso   1.000  H
  C656     1.0000 0.13767  0.96040  0.98560  Biso   1.000  C
  H608     1.0000 0.14710  0.97750  0.01930  Biso   1.000  H
  H609     1.0000 0.15610  0.95010  0.95750  Biso   1.000  H
  Mn48     1.0000 0.88661  0.97044  0.47380  Biso   1.000  Mn
  O142     1.0000 0.84895  0.99060  0.43737  Biso   1.000  O
  O143     1.0000 0.88482  0.05292  0.61427  Biso   1.000  O
  O144     1.0000 0.92659  0.95526  0.52264  Biso   1.000  O
  N126     1.0000 0.89396  0.00618  0.54574  Biso   1.000  N
  N127     1.0000 0.92336  0.00359  0.58770  Biso   1.000  N
  N128     1.0000 0.18982  0.89199  0.19060  Biso   1.000  N
  C657     1.0000 0.83224  0.01571  0.46670  Biso   1.000  C
  C658     1.0000 0.80130  0.02225  0.43540  Biso   1.000  C
  H610     1.0000 0.79360  0.00890  0.39460  Biso   1.000  H
  C659     1.0000 0.78183  0.04724  0.46130  Biso   1.000  C
  H611     1.0000 0.76090  0.05080  0.43890  Biso   1.000  H
  C660     1.0000 0.79278  0.06769  0.52100  Biso   1.000  C
  H612     1.0000 0.77930  0.08500  0.53980  Biso   1.000  H
  C661     1.0000 0.82335  0.06202  0.55130  Biso   1.000  C
  H613     1.0000 0.83120  0.07620  0.59060  Biso   1.000  H
  C662     1.0000 0.84338  0.03634  0.52690  Biso   1.000  C
  C663     1.0000 0.87525  0.03177  0.56400  Biso   1.000  C
  C664     1.0000 0.93813  0.97625  0.57170  Biso   1.000  C
  C665     1.0000 0.96908  0.96717  0.61200  Biso   1.000  C
  H614     1.0000 0.97900  0.98680  0.63610  Biso   1.000  H
  H615     1.0000 0.98510  0.95790  0.57510  Biso   1.000  H
  C666     1.0000 0.95990  0.93960  0.67800  Biso   1.000  C
  H616     1.0000 0.94110  0.94730  0.70810  Biso   1.000  H
  H617     1.0000 0.97890  0.93650  0.71190  Biso   1.000  H
  H618     1.0000 0.95440  0.91870  0.65330  Biso   1.000  H
  C667     1.0000 0.16934  0.91508  0.21360  Biso   1.000  C
  H619     1.0000 0.16920  0.92120  0.26610  Biso   1.000  H
  C668     1.0000 0.14793  0.93084  0.16320  Biso   1.000  C
  H620     1.0000 0.13410  0.94800  0.18100  Biso   1.000  H
  C669     1.0000 0.14695  0.92130  0.08640  Biso   1.000  C
  C670     1.0000 0.16865  0.89812  0.06460  Biso   1.000  C
  H621     1.0000 0.16930  0.89140  0.01260  Biso   1.000  H
  C671     1.0000 0.18955  0.88428  0.11530  Biso   1.000  C
  H622     1.0000 0.20480  0.86840  0.09720  Biso   1.000  H
  C672     1.0000 0.12330  0.93700  0.03070  Biso   1.000  C
  H623     1.0000 0.10510  0.94720  0.05980  Biso   1.000  H
  H624     1.0000 0.11380  0.91970  0.99760  Biso   1.000  H
