data_image0
_cell_length_a       39.916
_cell_length_b       39.916
_cell_length_c       18.033
_cell_angle_alpha    90
_cell_angle_beta     90
_cell_angle_gamma    90

_symmetry_space_group_name_H-M    "P 1"
_symmetry_int_tables_number       1

loop_
  _symmetry_equiv_pos_as_xyz
  'x, y, z'

loop_
  _atom_site_label
  _atom_site_occupancy
  _atom_site_fract_x
  _atom_site_fract_y
  _atom_site_fract_z
  _atom_site_thermal_displace_type
  _atom_site_B_iso_or_equiv
  _atom_site_type_symbol
  Mn1      1.0000 0.07400  0.04248  0.16839  Biso   1.000  Mn
  O1       1.0000 0.09674  0.01346  0.23150  Biso   1.000  O
  O2       1.0000 0.99743  0.02002  0.31512  Biso   1.000  O
  O3       1.0000 0.04381  0.06994  0.10984  Biso   1.000  O
  N1       1.0000 0.03260  0.03447  0.22091  Biso   1.000  N
  N2       1.0000 0.00395  0.05085  0.19056  Biso   1.000  N
  C1       1.0000 0.08600  0.99897  0.29290  Biso   1.000  C
  C2       1.0000 0.11017  0.97940  0.33100  Biso   1.000  C
  H1       1.0000 0.13150  0.97520  0.30950  Biso   1.000  H
  C3       1.0000 0.10207  0.96660  0.40050  Biso   1.000  C
  H2       1.0000 0.11810  0.95340  0.42640  Biso   1.000  H
  C4       1.0000 0.07091  0.97260  0.43270  Biso   1.000  C
  H3       1.0000 0.06650  0.96560  0.48210  Biso   1.000  H
  C5       1.0000 0.04691  0.98860  0.39230  Biso   1.000  C
  H4       1.0000 0.02480  0.99010  0.41170  Biso   1.000  H
  C6       1.0000 0.05391  0.00293  0.32320  Biso   1.000  C
  C7       1.0000 0.02649  0.01975  0.28500  Biso   1.000  C
  C8       1.0000 0.01299  0.06851  0.13348  Biso   1.000  C
  C9       1.0000 0.98718  0.08906  0.09360  Biso   1.000  C
  H5       1.0000 0.97780  0.07600  0.05250  Biso   1.000  H
  H6       1.0000 0.99760  0.10950  0.07420  Biso   1.000  H
  H7       1.0000 0.96920  0.09510  0.12810  Biso   1.000  H
  Mn2      1.0000 0.95849  0.03259  0.25308  Biso   1.000  Mn
  O4       1.0000 0.95001  0.07445  0.29441  Biso   1.000  O
  O5       1.0000 0.88537  0.06636  0.10837  Biso   1.000  O
  O6       1.0000 0.96052  0.98995  0.20217  Biso   1.000  O
  N3       1.0000 0.92254  0.03879  0.18194  Biso   1.000  N
  N4       1.0000 0.91711  0.01132  0.13487  Biso   1.000  N
  N5       1.0000 0.92662  0.00700  0.34050  Biso   1.000  N
  C10      1.0000 0.92732  0.09765  0.27640  Biso   1.000  C
  C11      1.0000 0.92529  0.12566  0.32220  Biso   1.000  C
  H8       1.0000 0.93970  0.12740  0.36380  Biso   1.000  H
  C12      1.0000 0.90236  0.15111  0.30770  Biso   1.000  C
  H9       1.0000 0.90110  0.16990  0.33990  Biso   1.000  H
  C13      1.0000 0.88139  0.14917  0.24680  Biso   1.000  C
  H10      1.0000 0.86620  0.16680  0.23620  Biso   1.000  H
  C14      1.0000 0.88285  0.12138  0.20170  Biso   1.000  C
  H11      1.0000 0.86820  0.11980  0.16040  Biso   1.000  H
  C15      1.0000 0.90559  0.09521  0.21550  Biso   1.000  C
  C16      1.0000 0.90436  0.06563  0.16595  Biso   1.000  C
  C17      1.0000 0.93773  0.98711  0.15110  Biso   1.000  C
  C18      1.0000 0.93497  0.95490  0.11050  Biso   1.000  C
  H12      1.0000 0.95000  0.95520  0.06760  Biso   1.000  H
  H13      1.0000 0.91180  0.95180  0.09360  Biso   1.000  H
  H14      1.0000 0.94120  0.93640  0.14350  Biso   1.000  H
  C19      1.0000 0.93828  0.97770  0.37110  Biso   1.000  C
  H15      1.0000 0.95990  0.96970  0.35830  Biso   1.000  H
  C20      1.0000 0.91860  0.95960  0.42070  Biso   1.000  C
  H16      1.0000 0.92670  0.93930  0.44160  Biso   1.000  H
  C21      1.0000 0.89622  0.01220  0.35220  Biso   1.000  C
  H17      1.0000 0.88620  0.03030  0.32630  Biso   1.000  H
  C22      1.0000 0.87583  0.99400  0.39960  Biso   1.000  C
  H18      1.0000 0.85260  0.99910  0.40130  Biso   1.000  H
  C23      1.0000 0.88661  0.97160  0.43950  Biso   1.000  C
  C24      1.0000 0.86440  0.95450  0.49570  Biso   1.000  C
  H19      1.0000 0.84920  0.97150  0.51720  Biso   1.000  H
  H20      1.0000 0.85030  0.93800  0.46920  Biso   1.000  H
  Mn3      1.0000 0.11226  0.97175  0.96403  Biso   1.000  Mn
  O7       1.0000 0.15173  0.99173  0.93470  Biso   1.000  O
  O8       1.0000 0.11484  0.05224  0.11160  Biso   1.000  O
  O9       1.0000 0.06982  0.95727  0.00442  Biso   1.000  O
  N6       1.0000 0.10487  0.00677  0.03733  Biso   1.000  N
  N7       1.0000 0.07386  0.00434  0.07540  Biso   1.000  N
  N8       1.0000 0.81190  0.88955  0.70531  Biso   1.000  N
  C25      1.0000 0.16840  0.01690  0.96570  Biso   1.000  C
  C26      1.0000 0.20054  0.02398  0.93700  Biso   1.000  C
  H21      1.0000 0.20890  0.01080  0.89730  Biso   1.000  H
  C27      1.0000 0.22010  0.04951  0.96520  Biso   1.000  C
  H22      1.0000 0.24150  0.05400  0.94420  Biso   1.000  H
  C28      1.0000 0.20853  0.06887  0.02480  Biso   1.000  C
  H23      1.0000 0.22190  0.08630  0.04480  Biso   1.000  H
  C29      1.0000 0.17787  0.06222  0.05310  Biso   1.000  C
  H24      1.0000 0.17010  0.07520  0.09370  Biso   1.000  H
  C30      1.0000 0.15726  0.03697  0.02500  Biso   1.000  C
  C31      1.0000 0.12387  0.03210  0.05990  Biso   1.000  C
  C32      1.0000 0.05782  0.97802  0.05340  Biso   1.000  C
  C33      1.0000 0.02339  0.97114  0.08250  Biso   1.000  C
  H25      1.0000 0.02400  0.95130  0.11440  Biso   1.000  H
  H26      1.0000 0.01560  0.99050  0.11130  Biso   1.000  H
  H27      1.0000 0.00810  0.96720  0.04090  Biso   1.000  H
  C34      1.0000 0.82641  0.91848  0.72250  Biso   1.000  C
  H28      1.0000 0.82140  0.92830  0.76930  Biso   1.000  H
  C35      1.0000 0.84828  0.93506  0.67650  Biso   1.000  C
  H29      1.0000 0.85780  0.95580  0.69110  Biso   1.000  H
  C36      1.0000 0.81865  0.87714  0.63820  Biso   1.000  C
  H30      1.0000 0.80780  0.85700  0.62360  Biso   1.000  H
  C37      1.0000 0.84060  0.89190  0.58840  Biso   1.000  C
  H31      1.0000 0.84470  0.88200  0.54140  Biso   1.000  H
  C38      1.0000 0.85621  0.92102  0.60810  Biso   1.000  C
  C39      1.0000 0.88060  0.93780  0.55450  Biso   1.000  C
  H32      1.0000 0.89450  0.95420  0.58220  Biso   1.000  H
  H33      1.0000 0.89590  0.92060  0.53380  Biso   1.000  H
  Mn4      1.0000 0.57400  0.54248  0.66839  Biso   1.000  Mn
  O10      1.0000 0.59674  0.51346  0.73150  Biso   1.000  O
  O11      1.0000 0.49743  0.52002  0.81512  Biso   1.000  O
  O12      1.0000 0.54381  0.56994  0.60984  Biso   1.000  O
  N9       1.0000 0.53260  0.53447  0.72091  Biso   1.000  N
  N10      1.0000 0.50395  0.55085  0.69056  Biso   1.000  N
  C40      1.0000 0.58600  0.49897  0.79290  Biso   1.000  C
  C41      1.0000 0.61017  0.47940  0.83100  Biso   1.000  C
  H34      1.0000 0.63150  0.47520  0.80950  Biso   1.000  H
  C42      1.0000 0.60207  0.46660  0.90050  Biso   1.000  C
  H35      1.0000 0.61810  0.45340  0.92640  Biso   1.000  H
  C43      1.0000 0.57091  0.47260  0.93270  Biso   1.000  C
  H36      1.0000 0.56650  0.46560  0.98210  Biso   1.000  H
  C44      1.0000 0.54691  0.48860  0.89230  Biso   1.000  C
  H37      1.0000 0.52480  0.49010  0.91170  Biso   1.000  H
  C45      1.0000 0.55391  0.50293  0.82320  Biso   1.000  C
  C46      1.0000 0.52649  0.51975  0.78500  Biso   1.000  C
  C47      1.0000 0.51299  0.56851  0.63348  Biso   1.000  C
  C48      1.0000 0.48718  0.58906  0.59360  Biso   1.000  C
  H38      1.0000 0.47780  0.57600  0.55250  Biso   1.000  H
  H39      1.0000 0.49760  0.60950  0.57420  Biso   1.000  H
  H40      1.0000 0.46920  0.59510  0.62810  Biso   1.000  H
  Mn5      1.0000 0.45849  0.53259  0.75308  Biso   1.000  Mn
  O13      1.0000 0.45001  0.57445  0.79441  Biso   1.000  O
  O14      1.0000 0.38537  0.56636  0.60837  Biso   1.000  O
  O15      1.0000 0.46052  0.48995  0.70217  Biso   1.000  O
  N11      1.0000 0.42254  0.53879  0.68194  Biso   1.000  N
  N12      1.0000 0.41711  0.51132  0.63487  Biso   1.000  N
  N13      1.0000 0.42662  0.50700  0.84050  Biso   1.000  N
  C49      1.0000 0.42732  0.59765  0.77640  Biso   1.000  C
  C50      1.0000 0.42529  0.62566  0.82220  Biso   1.000  C
  H41      1.0000 0.43970  0.62740  0.86380  Biso   1.000  H
  C51      1.0000 0.40236  0.65111  0.80770  Biso   1.000  C
  H42      1.0000 0.40110  0.66990  0.83990  Biso   1.000  H
  C52      1.0000 0.38139  0.64917  0.74680  Biso   1.000  C
  H43      1.0000 0.36620  0.66680  0.73620  Biso   1.000  H
  C53      1.0000 0.38285  0.62138  0.70170  Biso   1.000  C
  H44      1.0000 0.36820  0.61980  0.66040  Biso   1.000  H
  C54      1.0000 0.40559  0.59521  0.71550  Biso   1.000  C
  C55      1.0000 0.40436  0.56563  0.66595  Biso   1.000  C
  C56      1.0000 0.43773  0.48711  0.65110  Biso   1.000  C
  C57      1.0000 0.43497  0.45490  0.61050  Biso   1.000  C
  H45      1.0000 0.45000  0.45520  0.56760  Biso   1.000  H
  H46      1.0000 0.41180  0.45180  0.59360  Biso   1.000  H
  H47      1.0000 0.44120  0.43640  0.64350  Biso   1.000  H
  C58      1.0000 0.43828  0.47770  0.87110  Biso   1.000  C
  H48      1.0000 0.45990  0.46970  0.85830  Biso   1.000  H
  C59      1.0000 0.41860  0.45960  0.92070  Biso   1.000  C
  H49      1.0000 0.42670  0.43930  0.94160  Biso   1.000  H
  C60      1.0000 0.39622  0.51220  0.85220  Biso   1.000  C
  H50      1.0000 0.38620  0.53030  0.82630  Biso   1.000  H
  C61      1.0000 0.37583  0.49400  0.89960  Biso   1.000  C
  H51      1.0000 0.35260  0.49910  0.90130  Biso   1.000  H
  C62      1.0000 0.38661  0.47160  0.93950  Biso   1.000  C
  C63      1.0000 0.36440  0.45450  0.99570  Biso   1.000  C
  H52      1.0000 0.34920  0.47150  0.01720  Biso   1.000  H
  H53      1.0000 0.35030  0.43800  0.96920  Biso   1.000  H
  Mn6      1.0000 0.61226  0.47175  0.46403  Biso   1.000  Mn
  O16      1.0000 0.65173  0.49173  0.43470  Biso   1.000  O
  O17      1.0000 0.61484  0.55224  0.61160  Biso   1.000  O
  O18      1.0000 0.56982  0.45727  0.50442  Biso   1.000  O
  N14      1.0000 0.60487  0.50677  0.53733  Biso   1.000  N
  N15      1.0000 0.57386  0.50434  0.57540  Biso   1.000  N
  N16      1.0000 0.31190  0.38955  0.20531  Biso   1.000  N
  C64      1.0000 0.66840  0.51690  0.46570  Biso   1.000  C
  C65      1.0000 0.70054  0.52398  0.43700  Biso   1.000  C
  H54      1.0000 0.70890  0.51080  0.39730  Biso   1.000  H
  C66      1.0000 0.72010  0.54951  0.46520  Biso   1.000  C
  H55      1.0000 0.74150  0.55400  0.44420  Biso   1.000  H
  C67      1.0000 0.70853  0.56887  0.52480  Biso   1.000  C
  H56      1.0000 0.72190  0.58630  0.54480  Biso   1.000  H
  C68      1.0000 0.67787  0.56222  0.55310  Biso   1.000  C
  H57      1.0000 0.67010  0.57520  0.59370  Biso   1.000  H
  C69      1.0000 0.65726  0.53697  0.52500  Biso   1.000  C
  C70      1.0000 0.62387  0.53210  0.55990  Biso   1.000  C
  C71      1.0000 0.55782  0.47802  0.55340  Biso   1.000  C
  C72      1.0000 0.52339  0.47114  0.58250  Biso   1.000  C
  H58      1.0000 0.52400  0.45130  0.61440  Biso   1.000  H
  H59      1.0000 0.51560  0.49050  0.61130  Biso   1.000  H
  H60      1.0000 0.50810  0.46720  0.54090  Biso   1.000  H
  C73      1.0000 0.32641  0.41848  0.22250  Biso   1.000  C
  H61      1.0000 0.32140  0.42830  0.26930  Biso   1.000  H
  C74      1.0000 0.34828  0.43506  0.17650  Biso   1.000  C
  H62      1.0000 0.35780  0.45580  0.19110  Biso   1.000  H
  C75      1.0000 0.31865  0.37714  0.13820  Biso   1.000  C
  H63      1.0000 0.30780  0.35700  0.12360  Biso   1.000  H
  C76      1.0000 0.34060  0.39190  0.08840  Biso   1.000  C
  H64      1.0000 0.34470  0.38200  0.04140  Biso   1.000  H
  C77      1.0000 0.35621  0.42102  0.10810  Biso   1.000  C
  C78      1.0000 0.38060  0.43780  0.05450  Biso   1.000  C
  H65      1.0000 0.39450  0.45420  0.08220  Biso   1.000  H
  H66      1.0000 0.39590  0.42060  0.03380  Biso   1.000  H
  Mn7      1.0000 0.42600  0.95752  0.66839  Biso   1.000  Mn
  O19      1.0000 0.40326  0.98654  0.73150  Biso   1.000  O
  O20      1.0000 0.50257  0.97998  0.81512  Biso   1.000  O
  O21      1.0000 0.45619  0.93006  0.60984  Biso   1.000  O
  N17      1.0000 0.46740  0.96553  0.72091  Biso   1.000  N
  N18      1.0000 0.49605  0.94915  0.69056  Biso   1.000  N
  C79      1.0000 0.41400  0.00103  0.79290  Biso   1.000  C
  C80      1.0000 0.38983  0.02060  0.83100  Biso   1.000  C
  H67      1.0000 0.36850  0.02480  0.80950  Biso   1.000  H
  C81      1.0000 0.39793  0.03340  0.90050  Biso   1.000  C
  H68      1.0000 0.38190  0.04660  0.92640  Biso   1.000  H
  C82      1.0000 0.42909  0.02740  0.93270  Biso   1.000  C
  H69      1.0000 0.43350  0.03440  0.98210  Biso   1.000  H
  C83      1.0000 0.45309  0.01140  0.89230  Biso   1.000  C
  H70      1.0000 0.47520  0.00990  0.91170  Biso   1.000  H
  C84      1.0000 0.44609  0.99707  0.82320  Biso   1.000  C
  C85      1.0000 0.47351  0.98025  0.78500  Biso   1.000  C
  C86      1.0000 0.48701  0.93149  0.63348  Biso   1.000  C
  C87      1.0000 0.51282  0.91094  0.59360  Biso   1.000  C
  H71      1.0000 0.52220  0.92400  0.55250  Biso   1.000  H
  H72      1.0000 0.50240  0.89050  0.57420  Biso   1.000  H
  H73      1.0000 0.53080  0.90490  0.62810  Biso   1.000  H
  Mn8      1.0000 0.54151  0.96741  0.75308  Biso   1.000  Mn
  O22      1.0000 0.54999  0.92555  0.79441  Biso   1.000  O
  O23      1.0000 0.61463  0.93364  0.60837  Biso   1.000  O
  O24      1.0000 0.53948  0.01005  0.70217  Biso   1.000  O
  N19      1.0000 0.57746  0.96121  0.68194  Biso   1.000  N
  N20      1.0000 0.58289  0.98868  0.63487  Biso   1.000  N
  N21      1.0000 0.57338  0.99300  0.84050  Biso   1.000  N
  C88      1.0000 0.57268  0.90235  0.77640  Biso   1.000  C
  C89      1.0000 0.57471  0.87434  0.82220  Biso   1.000  C
  H74      1.0000 0.56030  0.87260  0.86380  Biso   1.000  H
  C90      1.0000 0.59764  0.84889  0.80770  Biso   1.000  C
  H75      1.0000 0.59890  0.83010  0.83990  Biso   1.000  H
  C91      1.0000 0.61861  0.85083  0.74680  Biso   1.000  C
  H76      1.0000 0.63380  0.83320  0.73620  Biso   1.000  H
  C92      1.0000 0.61715  0.87862  0.70170  Biso   1.000  C
  H77      1.0000 0.63180  0.88020  0.66040  Biso   1.000  H
  C93      1.0000 0.59441  0.90479  0.71550  Biso   1.000  C
  C94      1.0000 0.59564  0.93437  0.66595  Biso   1.000  C
  C95      1.0000 0.56227  0.01289  0.65110  Biso   1.000  C
  C96      1.0000 0.56503  0.04510  0.61050  Biso   1.000  C
  H78      1.0000 0.55000  0.04480  0.56760  Biso   1.000  H
  H79      1.0000 0.58820  0.04820  0.59360  Biso   1.000  H
  H80      1.0000 0.55880  0.06360  0.64350  Biso   1.000  H
  C97      1.0000 0.56172  0.02230  0.87110  Biso   1.000  C
  H81      1.0000 0.54010  0.03030  0.85830  Biso   1.000  H
  C98      1.0000 0.58140  0.04040  0.92070  Biso   1.000  C
  H82      1.0000 0.57330  0.06070  0.94160  Biso   1.000  H
  C99      1.0000 0.60378  0.98780  0.85220  Biso   1.000  C
  H83      1.0000 0.61380  0.96970  0.82630  Biso   1.000  H
  C100     1.0000 0.62417  0.00600  0.89960  Biso   1.000  C
  H84      1.0000 0.64740  0.00090  0.90130  Biso   1.000  H
  C101     1.0000 0.61339  0.02840  0.93950  Biso   1.000  C
  C102     1.0000 0.63560  0.04550  0.99570  Biso   1.000  C
  H85      1.0000 0.65080  0.02850  0.01720  Biso   1.000  H
  H86      1.0000 0.64970  0.06200  0.96920  Biso   1.000  H
  Mn9      1.0000 0.38774  0.02825  0.46403  Biso   1.000  Mn
  O25      1.0000 0.34827  0.00827  0.43470  Biso   1.000  O
  O26      1.0000 0.38516  0.94776  0.61160  Biso   1.000  O
  O27      1.0000 0.43018  0.04273  0.50442  Biso   1.000  O
  N22      1.0000 0.39513  0.99323  0.53733  Biso   1.000  N
  N23      1.0000 0.42614  0.99566  0.57540  Biso   1.000  N
  N24      1.0000 0.68810  0.11045  0.20531  Biso   1.000  N
  C103     1.0000 0.33160  0.98310  0.46570  Biso   1.000  C
  C104     1.0000 0.29946  0.97602  0.43700  Biso   1.000  C
  H87      1.0000 0.29110  0.98920  0.39730  Biso   1.000  H
  C105     1.0000 0.27990  0.95049  0.46520  Biso   1.000  C
  H88      1.0000 0.25850  0.94600  0.44420  Biso   1.000  H
  C106     1.0000 0.29147  0.93113  0.52480  Biso   1.000  C
  H89      1.0000 0.27810  0.91370  0.54480  Biso   1.000  H
  C107     1.0000 0.32213  0.93778  0.55310  Biso   1.000  C
  H90      1.0000 0.32990  0.92480  0.59370  Biso   1.000  H
  C108     1.0000 0.34274  0.96303  0.52500  Biso   1.000  C
  C109     1.0000 0.37613  0.96790  0.55990  Biso   1.000  C
  C110     1.0000 0.44218  0.02198  0.55340  Biso   1.000  C
  C111     1.0000 0.47661  0.02886  0.58250  Biso   1.000  C
  H91      1.0000 0.47600  0.04870  0.61440  Biso   1.000  H
  H92      1.0000 0.48440  0.00950  0.61130  Biso   1.000  H
  H93      1.0000 0.49190  0.03280  0.54090  Biso   1.000  H
  C112     1.0000 0.67359  0.08152  0.22250  Biso   1.000  C
  H94      1.0000 0.67860  0.07170  0.26930  Biso   1.000  H
  C113     1.0000 0.65172  0.06494  0.17650  Biso   1.000  C
  H95      1.0000 0.64220  0.04420  0.19110  Biso   1.000  H
  C114     1.0000 0.68135  0.12286  0.13820  Biso   1.000  C
  H96      1.0000 0.69220  0.14300  0.12360  Biso   1.000  H
  C115     1.0000 0.65940  0.10810  0.08840  Biso   1.000  C
  H97      1.0000 0.65530  0.11800  0.04140  Biso   1.000  H
  C116     1.0000 0.64379  0.07898  0.10810  Biso   1.000  C
  C117     1.0000 0.61940  0.06220  0.05450  Biso   1.000  C
  H98      1.0000 0.60550  0.04580  0.08220  Biso   1.000  H
  H99      1.0000 0.60410  0.07940  0.03380  Biso   1.000  H
  Mn10     1.0000 0.92600  0.45752  0.16839  Biso   1.000  Mn
  O28      1.0000 0.90326  0.48654  0.23150  Biso   1.000  O
  O29      1.0000 0.00257  0.47998  0.31512  Biso   1.000  O
  O30      1.0000 0.95619  0.43006  0.10984  Biso   1.000  O
  N25      1.0000 0.96740  0.46553  0.22091  Biso   1.000  N
  N26      1.0000 0.99605  0.44915  0.19056  Biso   1.000  N
  C118     1.0000 0.91400  0.50103  0.29290  Biso   1.000  C
  C119     1.0000 0.88983  0.52060  0.33100  Biso   1.000  C
  H100     1.0000 0.86850  0.52480  0.30950  Biso   1.000  H
  C120     1.0000 0.89793  0.53340  0.40050  Biso   1.000  C
  H101     1.0000 0.88190  0.54660  0.42640  Biso   1.000  H
  C121     1.0000 0.92909  0.52740  0.43270  Biso   1.000  C
  H102     1.0000 0.93350  0.53440  0.48210  Biso   1.000  H
  C122     1.0000 0.95309  0.51140  0.39230  Biso   1.000  C
  H103     1.0000 0.97520  0.50990  0.41170  Biso   1.000  H
  C123     1.0000 0.94609  0.49707  0.32320  Biso   1.000  C
  C124     1.0000 0.97351  0.48025  0.28500  Biso   1.000  C
  C125     1.0000 0.98701  0.43149  0.13348  Biso   1.000  C
  C126     1.0000 0.01282  0.41094  0.09360  Biso   1.000  C
  H104     1.0000 0.02220  0.42400  0.05250  Biso   1.000  H
  H105     1.0000 0.00240  0.39050  0.07420  Biso   1.000  H
  H106     1.0000 0.03080  0.40490  0.12810  Biso   1.000  H
  Mn11     1.0000 0.04151  0.46741  0.25308  Biso   1.000  Mn
  O31      1.0000 0.04999  0.42555  0.29441  Biso   1.000  O
  O32      1.0000 0.11463  0.43364  0.10837  Biso   1.000  O
  O33      1.0000 0.03948  0.51005  0.20217  Biso   1.000  O
  N27      1.0000 0.07746  0.46121  0.18194  Biso   1.000  N
  N28      1.0000 0.08289  0.48868  0.13487  Biso   1.000  N
  N29      1.0000 0.07338  0.49300  0.34050  Biso   1.000  N
  C127     1.0000 0.07268  0.40235  0.27640  Biso   1.000  C
  C128     1.0000 0.07471  0.37434  0.32220  Biso   1.000  C
  H107     1.0000 0.06030  0.37260  0.36380  Biso   1.000  H
  C129     1.0000 0.09764  0.34889  0.30770  Biso   1.000  C
  H108     1.0000 0.09890  0.33010  0.33990  Biso   1.000  H
  C130     1.0000 0.11861  0.35083  0.24680  Biso   1.000  C
  H109     1.0000 0.13380  0.33320  0.23620  Biso   1.000  H
  C131     1.0000 0.11715  0.37862  0.20170  Biso   1.000  C
  H110     1.0000 0.13180  0.38020  0.16040  Biso   1.000  H
  C132     1.0000 0.09441  0.40479  0.21550  Biso   1.000  C
  C133     1.0000 0.09564  0.43437  0.16595  Biso   1.000  C
  C134     1.0000 0.06227  0.51289  0.15110  Biso   1.000  C
  C135     1.0000 0.06503  0.54510  0.11050  Biso   1.000  C
  H111     1.0000 0.05000  0.54480  0.06760  Biso   1.000  H
  H112     1.0000 0.08820  0.54820  0.09360  Biso   1.000  H
  H113     1.0000 0.05880  0.56360  0.14350  Biso   1.000  H
  C136     1.0000 0.06172  0.52230  0.37110  Biso   1.000  C
  H114     1.0000 0.04010  0.53030  0.35830  Biso   1.000  H
  C137     1.0000 0.08140  0.54040  0.42070  Biso   1.000  C
  H115     1.0000 0.07330  0.56070  0.44160  Biso   1.000  H
  C138     1.0000 0.10378  0.48780  0.35220  Biso   1.000  C
  H116     1.0000 0.11380  0.46970  0.32630  Biso   1.000  H
  C139     1.0000 0.12417  0.50600  0.39960  Biso   1.000  C
  H117     1.0000 0.14740  0.50090  0.40130  Biso   1.000  H
  C140     1.0000 0.11339  0.52840  0.43950  Biso   1.000  C
  C141     1.0000 0.13560  0.54550  0.49570  Biso   1.000  C
  H118     1.0000 0.15080  0.52850  0.51720  Biso   1.000  H
  H119     1.0000 0.14970  0.56200  0.46920  Biso   1.000  H
  Mn12     1.0000 0.88774  0.52825  0.96403  Biso   1.000  Mn
  O34      1.0000 0.84827  0.50827  0.93470  Biso   1.000  O
  O35      1.0000 0.88516  0.44776  0.11160  Biso   1.000  O
  O36      1.0000 0.93018  0.54273  0.00442  Biso   1.000  O
  N30      1.0000 0.89513  0.49323  0.03733  Biso   1.000  N
  N31      1.0000 0.92614  0.49566  0.07540  Biso   1.000  N
  N32      1.0000 0.18810  0.61045  0.70531  Biso   1.000  N
  C142     1.0000 0.83160  0.48310  0.96570  Biso   1.000  C
  C143     1.0000 0.79946  0.47602  0.93700  Biso   1.000  C
  H120     1.0000 0.79110  0.48920  0.89730  Biso   1.000  H
  C144     1.0000 0.77990  0.45049  0.96520  Biso   1.000  C
  H121     1.0000 0.75850  0.44600  0.94420  Biso   1.000  H
  C145     1.0000 0.79147  0.43113  0.02480  Biso   1.000  C
  H122     1.0000 0.77810  0.41370  0.04480  Biso   1.000  H
  C146     1.0000 0.82213  0.43778  0.05310  Biso   1.000  C
  H123     1.0000 0.82990  0.42480  0.09370  Biso   1.000  H
  C147     1.0000 0.84274  0.46303  0.02500  Biso   1.000  C
  C148     1.0000 0.87613  0.46790  0.05990  Biso   1.000  C
  C149     1.0000 0.94218  0.52198  0.05340  Biso   1.000  C
  C150     1.0000 0.97661  0.52886  0.08250  Biso   1.000  C
  H124     1.0000 0.97600  0.54870  0.11440  Biso   1.000  H
  H125     1.0000 0.98440  0.50950  0.11130  Biso   1.000  H
  H126     1.0000 0.99190  0.53280  0.04090  Biso   1.000  H
  C151     1.0000 0.17359  0.58152  0.72250  Biso   1.000  C
  H127     1.0000 0.17860  0.57170  0.76930  Biso   1.000  H
  C152     1.0000 0.15172  0.56494  0.67650  Biso   1.000  C
  H128     1.0000 0.14220  0.54420  0.69110  Biso   1.000  H
  C153     1.0000 0.18135  0.62286  0.63820  Biso   1.000  C
  H129     1.0000 0.19220  0.64300  0.62360  Biso   1.000  H
  C154     1.0000 0.15940  0.60810  0.58840  Biso   1.000  C
  H130     1.0000 0.15530  0.61800  0.54140  Biso   1.000  H
  C155     1.0000 0.14379  0.57898  0.60810  Biso   1.000  C
  C156     1.0000 0.11940  0.56220  0.55450  Biso   1.000  C
  H131     1.0000 0.10550  0.54580  0.58220  Biso   1.000  H
  H132     1.0000 0.10410  0.57940  0.53380  Biso   1.000  H
  Mn13     1.0000 0.70752  0.32400  0.41839  Biso   1.000  Mn
  O37      1.0000 0.73654  0.34674  0.48150  Biso   1.000  O
  O38      1.0000 0.72998  0.24743  0.56512  Biso   1.000  O
  O39      1.0000 0.68006  0.29381  0.35984  Biso   1.000  O
  N33      1.0000 0.71553  0.28260  0.47091  Biso   1.000  N
  N34      1.0000 0.69915  0.25395  0.44056  Biso   1.000  N
  C157     1.0000 0.75103  0.33600  0.54290  Biso   1.000  C
  C158     1.0000 0.77060  0.36017  0.58100  Biso   1.000  C
  H133     1.0000 0.77480  0.38150  0.55950  Biso   1.000  H
  C159     1.0000 0.78340  0.35207  0.65050  Biso   1.000  C
  H134     1.0000 0.79660  0.36810  0.67640  Biso   1.000  H
  C160     1.0000 0.77740  0.32091  0.68270  Biso   1.000  C
  H135     1.0000 0.78440  0.31650  0.73210  Biso   1.000  H
  C161     1.0000 0.76140  0.29691  0.64230  Biso   1.000  C
  H136     1.0000 0.75990  0.27480  0.66170  Biso   1.000  H
  C162     1.0000 0.74707  0.30391  0.57320  Biso   1.000  C
  C163     1.0000 0.73025  0.27649  0.53500  Biso   1.000  C
  C164     1.0000 0.68149  0.26299  0.38348  Biso   1.000  C
  C165     1.0000 0.66094  0.23718  0.34360  Biso   1.000  C
  H137     1.0000 0.67400  0.22780  0.30250  Biso   1.000  H
  H138     1.0000 0.64050  0.24760  0.32420  Biso   1.000  H
  H139     1.0000 0.65490  0.21920  0.37810  Biso   1.000  H
  Mn14     1.0000 0.71741  0.20849  0.50308  Biso   1.000  Mn
  O40      1.0000 0.67555  0.20001  0.54441  Biso   1.000  O
  O41      1.0000 0.68364  0.13537  0.35837  Biso   1.000  O
  O42      1.0000 0.76005  0.21052  0.45217  Biso   1.000  O
  N35      1.0000 0.71121  0.17254  0.43194  Biso   1.000  N
  N36      1.0000 0.73868  0.16711  0.38487  Biso   1.000  N
  N37      1.0000 0.74300  0.17662  0.59050  Biso   1.000  N
  C166     1.0000 0.65235  0.17732  0.52640  Biso   1.000  C
  C167     1.0000 0.62434  0.17529  0.57220  Biso   1.000  C
  H140     1.0000 0.62260  0.18970  0.61380  Biso   1.000  H
  C168     1.0000 0.59889  0.15236  0.55770  Biso   1.000  C
  H141     1.0000 0.58010  0.15110  0.58990  Biso   1.000  H
  C169     1.0000 0.60083  0.13139  0.49680  Biso   1.000  C
  H142     1.0000 0.58320  0.11620  0.48620  Biso   1.000  H
  C170     1.0000 0.62862  0.13285  0.45170  Biso   1.000  C
  H143     1.0000 0.63020  0.11820  0.41040  Biso   1.000  H
  C171     1.0000 0.65479  0.15559  0.46550  Biso   1.000  C
  C172     1.0000 0.68437  0.15436  0.41595  Biso   1.000  C
  C173     1.0000 0.76289  0.18773  0.40110  Biso   1.000  C
  C174     1.0000 0.79510  0.18497  0.36050  Biso   1.000  C
  H144     1.0000 0.79480  0.20000  0.31760  Biso   1.000  H
  H145     1.0000 0.79820  0.16180  0.34360  Biso   1.000  H
  H146     1.0000 0.81360  0.19120  0.39350  Biso   1.000  H
  C175     1.0000 0.77230  0.18828  0.62110  Biso   1.000  C
  H147     1.0000 0.78030  0.20990  0.60830  Biso   1.000  H
  C176     1.0000 0.79040  0.16860  0.67070  Biso   1.000  C
  H148     1.0000 0.81070  0.17670  0.69160  Biso   1.000  H
  C177     1.0000 0.73780  0.14622  0.60220  Biso   1.000  C
  H149     1.0000 0.71970  0.13620  0.57630  Biso   1.000  H
  C178     1.0000 0.75600  0.12583  0.64960  Biso   1.000  C
  H150     1.0000 0.75090  0.10260  0.65130  Biso   1.000  H
  C179     1.0000 0.77840  0.13661  0.68950  Biso   1.000  C
  C180     1.0000 0.79550  0.11440  0.74570  Biso   1.000  C
  H151     1.0000 0.77850  0.09920  0.76720  Biso   1.000  H
  H152     1.0000 0.81200  0.10030  0.71920  Biso   1.000  H
  Mn15     1.0000 0.77825  0.36226  0.21403  Biso   1.000  Mn
  O43      1.0000 0.75827  0.40173  0.18470  Biso   1.000  O
  O44      1.0000 0.69776  0.36484  0.36160  Biso   1.000  O
  O45      1.0000 0.79273  0.31982  0.25442  Biso   1.000  O
  N38      1.0000 0.74323  0.35487  0.28733  Biso   1.000  N
  N39      1.0000 0.74566  0.32386  0.32540  Biso   1.000  N
  N40      1.0000 0.86045  0.06190  0.95531  Biso   1.000  N
  C181     1.0000 0.73310  0.41840  0.21570  Biso   1.000  C
  C182     1.0000 0.72602  0.45054  0.18700  Biso   1.000  C
  H153     1.0000 0.73920  0.45890  0.14730  Biso   1.000  H
  C183     1.0000 0.70049  0.47010  0.21520  Biso   1.000  C
  H154     1.0000 0.69600  0.49150  0.19420  Biso   1.000  H
  C184     1.0000 0.68113  0.45853  0.27480  Biso   1.000  C
  H155     1.0000 0.66370  0.47190  0.29480  Biso   1.000  H
  C185     1.0000 0.68778  0.42787  0.30310  Biso   1.000  C
  H156     1.0000 0.67480  0.42010  0.34370  Biso   1.000  H
  C186     1.0000 0.71303  0.40726  0.27500  Biso   1.000  C
  C187     1.0000 0.71790  0.37387  0.30990  Biso   1.000  C
  C188     1.0000 0.77198  0.30782  0.30340  Biso   1.000  C
  C189     1.0000 0.77886  0.27339  0.33250  Biso   1.000  C
  H157     1.0000 0.79870  0.27400  0.36440  Biso   1.000  H
  H158     1.0000 0.75950  0.26560  0.36130  Biso   1.000  H
  H159     1.0000 0.78280  0.25810  0.29090  Biso   1.000  H
  C190     1.0000 0.83152  0.07641  0.97250  Biso   1.000  C
  H160     1.0000 0.82170  0.07140  0.01930  Biso   1.000  H
  C191     1.0000 0.81494  0.09828  0.92650  Biso   1.000  C
  H161     1.0000 0.79420  0.10780  0.94110  Biso   1.000  H
  C192     1.0000 0.87286  0.06865  0.88820  Biso   1.000  C
  H162     1.0000 0.89300  0.05780  0.87360  Biso   1.000  H
  C193     1.0000 0.85810  0.09060  0.83840  Biso   1.000  C
  H163     1.0000 0.86800  0.09470  0.79140  Biso   1.000  H
  C194     1.0000 0.82898  0.10621  0.85810  Biso   1.000  C
  C195     1.0000 0.81220  0.13060  0.80450  Biso   1.000  C
  H164     1.0000 0.79580  0.14450  0.83220  Biso   1.000  H
  H165     1.0000 0.82940  0.14590  0.78380  Biso   1.000  H
  Mn16     1.0000 0.20752  0.82400  0.91839  Biso   1.000  Mn
  O46      1.0000 0.23654  0.84674  0.98150  Biso   1.000  O
  O47      1.0000 0.22998  0.74743  0.06512  Biso   1.000  O
  O48      1.0000 0.18006  0.79381  0.85984  Biso   1.000  O
  N41      1.0000 0.21553  0.78260  0.97091  Biso   1.000  N
  N42      1.0000 0.19915  0.75395  0.94056  Biso   1.000  N
  C196     1.0000 0.25103  0.83600  0.04290  Biso   1.000  C
  C197     1.0000 0.27060  0.86017  0.08100  Biso   1.000  C
  H166     1.0000 0.27480  0.88150  0.05950  Biso   1.000  H
  C198     1.0000 0.28340  0.85207  0.15050  Biso   1.000  C
  H167     1.0000 0.29660  0.86810  0.17640  Biso   1.000  H
  C199     1.0000 0.27740  0.82091  0.18270  Biso   1.000  C
  H168     1.0000 0.28440  0.81650  0.23210  Biso   1.000  H
  C200     1.0000 0.26140  0.79691  0.14230  Biso   1.000  C
  H169     1.0000 0.25990  0.77480  0.16170  Biso   1.000  H
  C201     1.0000 0.24707  0.80391  0.07320  Biso   1.000  C
  C202     1.0000 0.23025  0.77649  0.03500  Biso   1.000  C
  C203     1.0000 0.18149  0.76299  0.88348  Biso   1.000  C
  C204     1.0000 0.16094  0.73718  0.84360  Biso   1.000  C
  H170     1.0000 0.17400  0.72780  0.80250  Biso   1.000  H
  H171     1.0000 0.14050  0.74760  0.82420  Biso   1.000  H
  H172     1.0000 0.15490  0.71920  0.87810  Biso   1.000  H
  Mn17     1.0000 0.21741  0.70849  0.00308  Biso   1.000  Mn
  O49      1.0000 0.17555  0.70001  0.04441  Biso   1.000  O
  O50      1.0000 0.18364  0.63537  0.85837  Biso   1.000  O
  O51      1.0000 0.26005  0.71052  0.95217  Biso   1.000  O
  N43      1.0000 0.21121  0.67254  0.93194  Biso   1.000  N
  N44      1.0000 0.23868  0.66711  0.88487  Biso   1.000  N
  N45      1.0000 0.24300  0.67662  0.09050  Biso   1.000  N
  C205     1.0000 0.15235  0.67732  0.02640  Biso   1.000  C
  C206     1.0000 0.12434  0.67529  0.07220  Biso   1.000  C
  H173     1.0000 0.12260  0.68970  0.11380  Biso   1.000  H
  C207     1.0000 0.09889  0.65236  0.05770  Biso   1.000  C
  H174     1.0000 0.08010  0.65110  0.08990  Biso   1.000  H
  C208     1.0000 0.10083  0.63139  0.99680  Biso   1.000  C
  H175     1.0000 0.08320  0.61620  0.98620  Biso   1.000  H
  C209     1.0000 0.12862  0.63285  0.95170  Biso   1.000  C
  H176     1.0000 0.13020  0.61820  0.91040  Biso   1.000  H
  C210     1.0000 0.15479  0.65559  0.96550  Biso   1.000  C
  C211     1.0000 0.18437  0.65436  0.91595  Biso   1.000  C
  C212     1.0000 0.26289  0.68773  0.90110  Biso   1.000  C
  C213     1.0000 0.29510  0.68497  0.86050  Biso   1.000  C
  H177     1.0000 0.29480  0.70000  0.81760  Biso   1.000  H
  H178     1.0000 0.29820  0.66180  0.84360  Biso   1.000  H
  H179     1.0000 0.31360  0.69120  0.89350  Biso   1.000  H
  C214     1.0000 0.27230  0.68828  0.12110  Biso   1.000  C
  H180     1.0000 0.28030  0.70990  0.10830  Biso   1.000  H
  C215     1.0000 0.29040  0.66860  0.17070  Biso   1.000  C
  H181     1.0000 0.31070  0.67670  0.19160  Biso   1.000  H
  C216     1.0000 0.23780  0.64622  0.10220  Biso   1.000  C
  H182     1.0000 0.21970  0.63620  0.07630  Biso   1.000  H
  C217     1.0000 0.25600  0.62583  0.14960  Biso   1.000  C
  H183     1.0000 0.25090  0.60260  0.15130  Biso   1.000  H
  C218     1.0000 0.27840  0.63661  0.18950  Biso   1.000  C
  C219     1.0000 0.29550  0.61440  0.24570  Biso   1.000  C
  H184     1.0000 0.27850  0.59920  0.26720  Biso   1.000  H
  H185     1.0000 0.31200  0.60030  0.21920  Biso   1.000  H
  Mn18     1.0000 0.27825  0.86226  0.71403  Biso   1.000  Mn
  O52      1.0000 0.25827  0.90173  0.68470  Biso   1.000  O
  O53      1.0000 0.19776  0.86484  0.86160  Biso   1.000  O
  O54      1.0000 0.29273  0.81982  0.75442  Biso   1.000  O
  N46      1.0000 0.24323  0.85487  0.78733  Biso   1.000  N
  N47      1.0000 0.24566  0.82386  0.82540  Biso   1.000  N
  N48      1.0000 0.36045  0.56190  0.45531  Biso   1.000  N
  C220     1.0000 0.23310  0.91840  0.71570  Biso   1.000  C
  C221     1.0000 0.22602  0.95054  0.68700  Biso   1.000  C
  H186     1.0000 0.23920  0.95890  0.64730  Biso   1.000  H
  C222     1.0000 0.20049  0.97010  0.71520  Biso   1.000  C
  H187     1.0000 0.19600  0.99150  0.69420  Biso   1.000  H
  C223     1.0000 0.18113  0.95853  0.77480  Biso   1.000  C
  H188     1.0000 0.16370  0.97190  0.79480  Biso   1.000  H
  C224     1.0000 0.18778  0.92787  0.80310  Biso   1.000  C
  H189     1.0000 0.17480  0.92010  0.84370  Biso   1.000  H
  C225     1.0000 0.21303  0.90726  0.77500  Biso   1.000  C
  C226     1.0000 0.21790  0.87387  0.80990  Biso   1.000  C
  C227     1.0000 0.27198  0.80782  0.80340  Biso   1.000  C
  C228     1.0000 0.27886  0.77339  0.83250  Biso   1.000  C
  H190     1.0000 0.29870  0.77400  0.86440  Biso   1.000  H
  H191     1.0000 0.25950  0.76560  0.86130  Biso   1.000  H
  H192     1.0000 0.28280  0.75810  0.79090  Biso   1.000  H
  C229     1.0000 0.33152  0.57641  0.47250  Biso   1.000  C
  H193     1.0000 0.32170  0.57140  0.51930  Biso   1.000  H
  C230     1.0000 0.31494  0.59828  0.42650  Biso   1.000  C
  H194     1.0000 0.29420  0.60780  0.44110  Biso   1.000  H
  C231     1.0000 0.37286  0.56865  0.38820  Biso   1.000  C
  H195     1.0000 0.39300  0.55780  0.37360  Biso   1.000  H
  C232     1.0000 0.35810  0.59060  0.33840  Biso   1.000  C
  H196     1.0000 0.36800  0.59470  0.29140  Biso   1.000  H
  C233     1.0000 0.32898  0.60621  0.35810  Biso   1.000  C
  C234     1.0000 0.31220  0.63060  0.30450  Biso   1.000  C
  H197     1.0000 0.29580  0.64450  0.33220  Biso   1.000  H
  H198     1.0000 0.32940  0.64590  0.28380  Biso   1.000  H
  Mn19     1.0000 0.79248  0.67600  0.91839  Biso   1.000  Mn
  O55      1.0000 0.76346  0.65326  0.98150  Biso   1.000  O
  O56      1.0000 0.77002  0.75257  0.06512  Biso   1.000  O
  O57      1.0000 0.81994  0.70619  0.85984  Biso   1.000  O
  N49      1.0000 0.78447  0.71740  0.97091  Biso   1.000  N
  N50      1.0000 0.80085  0.74605  0.94056  Biso   1.000  N
  C235     1.0000 0.74897  0.66400  0.04290  Biso   1.000  C
  C236     1.0000 0.72940  0.63983  0.08100  Biso   1.000  C
  H199     1.0000 0.72520  0.61850  0.05950  Biso   1.000  H
  C237     1.0000 0.71660  0.64793  0.15050  Biso   1.000  C
  H200     1.0000 0.70340  0.63190  0.17640  Biso   1.000  H
  C238     1.0000 0.72260  0.67909  0.18270  Biso   1.000  C
  H201     1.0000 0.71560  0.68350  0.23210  Biso   1.000  H
  C239     1.0000 0.73860  0.70309  0.14230  Biso   1.000  C
  H202     1.0000 0.74010  0.72520  0.16170  Biso   1.000  H
  C240     1.0000 0.75293  0.69609  0.07320  Biso   1.000  C
  C241     1.0000 0.76975  0.72351  0.03500  Biso   1.000  C
  C242     1.0000 0.81851  0.73701  0.88348  Biso   1.000  C
  C243     1.0000 0.83906  0.76282  0.84360  Biso   1.000  C
  H203     1.0000 0.82600  0.77220  0.80250  Biso   1.000  H
  H204     1.0000 0.85950  0.75240  0.82420  Biso   1.000  H
  H205     1.0000 0.84510  0.78080  0.87810  Biso   1.000  H
  Mn20     1.0000 0.78259  0.79151  0.00308  Biso   1.000  Mn
  O58      1.0000 0.82445  0.79999  0.04441  Biso   1.000  O
  O59      1.0000 0.81636  0.86463  0.85837  Biso   1.000  O
  O60      1.0000 0.73995  0.78948  0.95217  Biso   1.000  O
  N51      1.0000 0.78879  0.82746  0.93194  Biso   1.000  N
  N52      1.0000 0.76132  0.83289  0.88487  Biso   1.000  N
  N53      1.0000 0.75700  0.82338  0.09050  Biso   1.000  N
  C244     1.0000 0.84765  0.82268  0.02640  Biso   1.000  C
  C245     1.0000 0.87566  0.82471  0.07220  Biso   1.000  C
  H206     1.0000 0.87740  0.81030  0.11380  Biso   1.000  H
  C246     1.0000 0.90111  0.84764  0.05770  Biso   1.000  C
  H207     1.0000 0.91990  0.84890  0.08990  Biso   1.000  H
  C247     1.0000 0.89917  0.86861  0.99680  Biso   1.000  C
  H208     1.0000 0.91680  0.88380  0.98620  Biso   1.000  H
  C248     1.0000 0.87138  0.86715  0.95170  Biso   1.000  C
  H209     1.0000 0.86980  0.88180  0.91040  Biso   1.000  H
  C249     1.0000 0.84521  0.84441  0.96550  Biso   1.000  C
  C250     1.0000 0.81563  0.84564  0.91595  Biso   1.000  C
  C251     1.0000 0.73711  0.81227  0.90110  Biso   1.000  C
  C252     1.0000 0.70490  0.81503  0.86050  Biso   1.000  C
  H210     1.0000 0.70520  0.80000  0.81760  Biso   1.000  H
  H211     1.0000 0.70180  0.83820  0.84360  Biso   1.000  H
  H212     1.0000 0.68640  0.80880  0.89350  Biso   1.000  H
  C253     1.0000 0.72770  0.81172  0.12110  Biso   1.000  C
  H213     1.0000 0.71970  0.79010  0.10830  Biso   1.000  H
  C254     1.0000 0.70960  0.83140  0.17070  Biso   1.000  C
  H214     1.0000 0.68930  0.82330  0.19160  Biso   1.000  H
  C255     1.0000 0.76220  0.85378  0.10220  Biso   1.000  C
  H215     1.0000 0.78030  0.86380  0.07630  Biso   1.000  H
  C256     1.0000 0.74400  0.87417  0.14960  Biso   1.000  C
  H216     1.0000 0.74910  0.89740  0.15130  Biso   1.000  H
  C257     1.0000 0.72160  0.86339  0.18950  Biso   1.000  C
  C258     1.0000 0.70450  0.88560  0.24570  Biso   1.000  C
  H217     1.0000 0.72150  0.90080  0.26720  Biso   1.000  H
  H218     1.0000 0.68800  0.89970  0.21920  Biso   1.000  H
  Mn21     1.0000 0.72175  0.63774  0.71403  Biso   1.000  Mn
  O61      1.0000 0.74173  0.59827  0.68470  Biso   1.000  O
  O62      1.0000 0.80224  0.63516  0.86160  Biso   1.000  O
  O63      1.0000 0.70727  0.68018  0.75442  Biso   1.000  O
  N54      1.0000 0.75677  0.64513  0.78733  Biso   1.000  N
  N55      1.0000 0.75434  0.67614  0.82540  Biso   1.000  N
  N56      1.0000 0.63955  0.93810  0.45531  Biso   1.000  N
  C259     1.0000 0.76690  0.58160  0.71570  Biso   1.000  C
  C260     1.0000 0.77398  0.54946  0.68700  Biso   1.000  C
  H219     1.0000 0.76080  0.54110  0.64730  Biso   1.000  H
  C261     1.0000 0.79951  0.52990  0.71520  Biso   1.000  C
  H220     1.0000 0.80400  0.50850  0.69420  Biso   1.000  H
  C262     1.0000 0.81887  0.54147  0.77480  Biso   1.000  C
  H221     1.0000 0.83630  0.52810  0.79480  Biso   1.000  H
  C263     1.0000 0.81222  0.57213  0.80310  Biso   1.000  C
  H222     1.0000 0.82520  0.57990  0.84370  Biso   1.000  H
  C264     1.0000 0.78697  0.59274  0.77500  Biso   1.000  C
  C265     1.0000 0.78210  0.62613  0.80990  Biso   1.000  C
  C266     1.0000 0.72802  0.69218  0.80340  Biso   1.000  C
  C267     1.0000 0.72114  0.72661  0.83250  Biso   1.000  C
  H223     1.0000 0.70130  0.72600  0.86440  Biso   1.000  H
  H224     1.0000 0.74050  0.73440  0.86130  Biso   1.000  H
  H225     1.0000 0.71720  0.74190  0.79090  Biso   1.000  H
  C268     1.0000 0.66848  0.92359  0.47250  Biso   1.000  C
  H226     1.0000 0.67830  0.92860  0.51930  Biso   1.000  H
  C269     1.0000 0.68506  0.90172  0.42650  Biso   1.000  C
  H227     1.0000 0.70580  0.89220  0.44110  Biso   1.000  H
  C270     1.0000 0.62714  0.93135  0.38820  Biso   1.000  C
  H228     1.0000 0.60700  0.94220  0.37360  Biso   1.000  H
  C271     1.0000 0.64190  0.90940  0.33840  Biso   1.000  C
  H229     1.0000 0.63200  0.90530  0.29140  Biso   1.000  H
  C272     1.0000 0.67102  0.89379  0.35810  Biso   1.000  C
  C273     1.0000 0.68780  0.86940  0.30450  Biso   1.000  C
  H230     1.0000 0.70420  0.85550  0.33220  Biso   1.000  H
  H231     1.0000 0.67060  0.85410  0.28380  Biso   1.000  H
  Mn22     1.0000 0.29248  0.17600  0.41839  Biso   1.000  Mn
  O64      1.0000 0.26346  0.15326  0.48150  Biso   1.000  O
  O65      1.0000 0.27002  0.25257  0.56512  Biso   1.000  O
  O66      1.0000 0.31994  0.20619  0.35984  Biso   1.000  O
  N57      1.0000 0.28447  0.21740  0.47091  Biso   1.000  N
  N58      1.0000 0.30085  0.24605  0.44056  Biso   1.000  N
  C274     1.0000 0.24897  0.16400  0.54290  Biso   1.000  C
  C275     1.0000 0.22940  0.13983  0.58100  Biso   1.000  C
  H232     1.0000 0.22520  0.11850  0.55950  Biso   1.000  H
  C276     1.0000 0.21660  0.14793  0.65050  Biso   1.000  C
  H233     1.0000 0.20340  0.13190  0.67640  Biso   1.000  H
  C277     1.0000 0.22260  0.17909  0.68270  Biso   1.000  C
  H234     1.0000 0.21560  0.18350  0.73210  Biso   1.000  H
  C278     1.0000 0.23860  0.20309  0.64230  Biso   1.000  C
  H235     1.0000 0.24010  0.22520  0.66170  Biso   1.000  H
  C279     1.0000 0.25293  0.19609  0.57320  Biso   1.000  C
  C280     1.0000 0.26975  0.22351  0.53500  Biso   1.000  C
  C281     1.0000 0.31851  0.23701  0.38348  Biso   1.000  C
  C282     1.0000 0.33906  0.26282  0.34360  Biso   1.000  C
  H236     1.0000 0.32600  0.27220  0.30250  Biso   1.000  H
  H237     1.0000 0.35950  0.25240  0.32420  Biso   1.000  H
  H238     1.0000 0.34510  0.28080  0.37810  Biso   1.000  H
  Mn23     1.0000 0.28259  0.29151  0.50308  Biso   1.000  Mn
  O67      1.0000 0.32445  0.29999  0.54441  Biso   1.000  O
  O68      1.0000 0.31636  0.36463  0.35837  Biso   1.000  O
  O69      1.0000 0.23995  0.28948  0.45217  Biso   1.000  O
  N59      1.0000 0.28879  0.32746  0.43194  Biso   1.000  N
  N60      1.0000 0.26132  0.33289  0.38487  Biso   1.000  N
  N61      1.0000 0.25700  0.32338  0.59050  Biso   1.000  N
  C283     1.0000 0.34765  0.32268  0.52640  Biso   1.000  C
  C284     1.0000 0.37566  0.32471  0.57220  Biso   1.000  C
  H239     1.0000 0.37740  0.31030  0.61380  Biso   1.000  H
  C285     1.0000 0.40111  0.34764  0.55770  Biso   1.000  C
  H240     1.0000 0.41990  0.34890  0.58990  Biso   1.000  H
  C286     1.0000 0.39917  0.36861  0.49680  Biso   1.000  C
  H241     1.0000 0.41680  0.38380  0.48620  Biso   1.000  H
  C287     1.0000 0.37138  0.36715  0.45170  Biso   1.000  C
  H242     1.0000 0.36980  0.38180  0.41040  Biso   1.000  H
  C288     1.0000 0.34521  0.34441  0.46550  Biso   1.000  C
  C289     1.0000 0.31563  0.34564  0.41595  Biso   1.000  C
  C290     1.0000 0.23711  0.31227  0.40110  Biso   1.000  C
  C291     1.0000 0.20490  0.31503  0.36050  Biso   1.000  C
  H243     1.0000 0.20520  0.30000  0.31760  Biso   1.000  H
  H244     1.0000 0.20180  0.33820  0.34360  Biso   1.000  H
  H245     1.0000 0.18640  0.30880  0.39350  Biso   1.000  H
  C292     1.0000 0.22770  0.31172  0.62110  Biso   1.000  C
  H246     1.0000 0.21970  0.29010  0.60830  Biso   1.000  H
  C293     1.0000 0.20960  0.33140  0.67070  Biso   1.000  C
  H247     1.0000 0.18930  0.32330  0.69160  Biso   1.000  H
  C294     1.0000 0.26220  0.35378  0.60220  Biso   1.000  C
  H248     1.0000 0.28030  0.36380  0.57630  Biso   1.000  H
  C295     1.0000 0.24400  0.37417  0.64960  Biso   1.000  C
  H249     1.0000 0.24910  0.39740  0.65130  Biso   1.000  H
  C296     1.0000 0.22160  0.36339  0.68950  Biso   1.000  C
  C297     1.0000 0.20450  0.38560  0.74570  Biso   1.000  C
  H250     1.0000 0.22150  0.40080  0.76720  Biso   1.000  H
  H251     1.0000 0.18800  0.39970  0.71920  Biso   1.000  H
  Mn24     1.0000 0.22175  0.13774  0.21403  Biso   1.000  Mn
  O70      1.0000 0.24173  0.09827  0.18470  Biso   1.000  O
  O71      1.0000 0.30224  0.13516  0.36160  Biso   1.000  O
  O72      1.0000 0.20727  0.18018  0.25442  Biso   1.000  O
  N62      1.0000 0.25677  0.14513  0.28733  Biso   1.000  N
  N63      1.0000 0.25434  0.17614  0.32540  Biso   1.000  N
  N64      1.0000 0.13955  0.43810  0.95531  Biso   1.000  N
  C298     1.0000 0.26690  0.08160  0.21570  Biso   1.000  C
  C299     1.0000 0.27398  0.04946  0.18700  Biso   1.000  C
  H252     1.0000 0.26080  0.04110  0.14730  Biso   1.000  H
  C300     1.0000 0.29951  0.02990  0.21520  Biso   1.000  C
  H253     1.0000 0.30400  0.00850  0.19420  Biso   1.000  H
  C301     1.0000 0.31887  0.04147  0.27480  Biso   1.000  C
  H254     1.0000 0.33630  0.02810  0.29480  Biso   1.000  H
  C302     1.0000 0.31222  0.07213  0.30310  Biso   1.000  C
  H255     1.0000 0.32520  0.07990  0.34370  Biso   1.000  H
  C303     1.0000 0.28697  0.09274  0.27500  Biso   1.000  C
  C304     1.0000 0.28210  0.12613  0.30990  Biso   1.000  C
  C305     1.0000 0.22802  0.19218  0.30340  Biso   1.000  C
  C306     1.0000 0.22114  0.22661  0.33250  Biso   1.000  C
  H256     1.0000 0.20130  0.22600  0.36440  Biso   1.000  H
  H257     1.0000 0.24050  0.23440  0.36130  Biso   1.000  H
  H258     1.0000 0.21720  0.24190  0.29090  Biso   1.000  H
  C307     1.0000 0.16848  0.42359  0.97250  Biso   1.000  C
  H259     1.0000 0.17830  0.42860  0.01930  Biso   1.000  H
  C308     1.0000 0.18506  0.40172  0.92650  Biso   1.000  C
  H260     1.0000 0.20580  0.39220  0.94110  Biso   1.000  H
  C309     1.0000 0.12714  0.43135  0.88820  Biso   1.000  C
  H261     1.0000 0.10700  0.44220  0.87360  Biso   1.000  H
  C310     1.0000 0.14190  0.40940  0.83840  Biso   1.000  C
  H262     1.0000 0.13200  0.40530  0.79140  Biso   1.000  H
  C311     1.0000 0.17102  0.39379  0.85810  Biso   1.000  C
  C312     1.0000 0.18780  0.36940  0.80450  Biso   1.000  C
  H263     1.0000 0.20420  0.35550  0.83220  Biso   1.000  H
  H264     1.0000 0.17060  0.35410  0.78380  Biso   1.000  H
  Mn25     1.0000 0.92600  0.95752  0.83161  Biso   1.000  Mn
  O73      1.0000 0.90326  0.98654  0.76850  Biso   1.000  O
  O74      1.0000 0.00257  0.97998  0.68488  Biso   1.000  O
  O75      1.0000 0.95619  0.93006  0.89016  Biso   1.000  O
  N65      1.0000 0.96740  0.96553  0.77909  Biso   1.000  N
  N66      1.0000 0.99605  0.94915  0.80944  Biso   1.000  N
  C313     1.0000 0.91400  0.00103  0.70710  Biso   1.000  C
  C314     1.0000 0.88983  0.02060  0.66900  Biso   1.000  C
  H265     1.0000 0.86850  0.02480  0.69050  Biso   1.000  H
  C315     1.0000 0.89793  0.03340  0.59950  Biso   1.000  C
  H266     1.0000 0.88190  0.04660  0.57360  Biso   1.000  H
  C316     1.0000 0.92909  0.02740  0.56730  Biso   1.000  C
  H267     1.0000 0.93350  0.03440  0.51790  Biso   1.000  H
  C317     1.0000 0.95309  0.01140  0.60770  Biso   1.000  C
  H268     1.0000 0.97520  0.00990  0.58830  Biso   1.000  H
  C318     1.0000 0.94609  0.99707  0.67680  Biso   1.000  C
  C319     1.0000 0.97351  0.98025  0.71500  Biso   1.000  C
  C320     1.0000 0.98701  0.93149  0.86652  Biso   1.000  C
  C321     1.0000 0.01282  0.91094  0.90640  Biso   1.000  C
  H269     1.0000 0.02220  0.92400  0.94750  Biso   1.000  H
  H270     1.0000 0.00240  0.89050  0.92580  Biso   1.000  H
  H271     1.0000 0.03080  0.90490  0.87190  Biso   1.000  H
  Mn26     1.0000 0.04151  0.96741  0.74692  Biso   1.000  Mn
  O76      1.0000 0.04999  0.92555  0.70559  Biso   1.000  O
  O77      1.0000 0.11463  0.93364  0.89163  Biso   1.000  O
  O78      1.0000 0.03948  0.01005  0.79783  Biso   1.000  O
  N67      1.0000 0.07746  0.96121  0.81806  Biso   1.000  N
  N68      1.0000 0.08289  0.98868  0.86513  Biso   1.000  N
  N69      1.0000 0.07338  0.99300  0.65950  Biso   1.000  N
  C322     1.0000 0.07268  0.90235  0.72360  Biso   1.000  C
  C323     1.0000 0.07471  0.87434  0.67780  Biso   1.000  C
  H272     1.0000 0.06030  0.87260  0.63620  Biso   1.000  H
  C324     1.0000 0.09764  0.84889  0.69230  Biso   1.000  C
  H273     1.0000 0.09890  0.83010  0.66010  Biso   1.000  H
  C325     1.0000 0.11861  0.85083  0.75320  Biso   1.000  C
  H274     1.0000 0.13380  0.83320  0.76380  Biso   1.000  H
  C326     1.0000 0.11715  0.87862  0.79830  Biso   1.000  C
  H275     1.0000 0.13180  0.88020  0.83960  Biso   1.000  H
  C327     1.0000 0.09441  0.90479  0.78450  Biso   1.000  C
  C328     1.0000 0.09564  0.93437  0.83405  Biso   1.000  C
  C329     1.0000 0.06227  0.01289  0.84890  Biso   1.000  C
  C330     1.0000 0.06503  0.04510  0.88950  Biso   1.000  C
  H276     1.0000 0.05000  0.04480  0.93240  Biso   1.000  H
  H277     1.0000 0.08820  0.04820  0.90640  Biso   1.000  H
  H278     1.0000 0.05880  0.06360  0.85650  Biso   1.000  H
  C331     1.0000 0.06172  0.02230  0.62890  Biso   1.000  C
  H279     1.0000 0.04010  0.03030  0.64170  Biso   1.000  H
  C332     1.0000 0.08140  0.04040  0.57930  Biso   1.000  C
  H280     1.0000 0.07330  0.06070  0.55840  Biso   1.000  H
  C333     1.0000 0.10378  0.98780  0.64780  Biso   1.000  C
  H281     1.0000 0.11380  0.96970  0.67370  Biso   1.000  H
  C334     1.0000 0.12417  0.00600  0.60040  Biso   1.000  C
  H282     1.0000 0.14740  0.00090  0.59870  Biso   1.000  H
  C335     1.0000 0.11339  0.02840  0.56050  Biso   1.000  C
  C336     1.0000 0.13560  0.04550  0.50430  Biso   1.000  C
  H283     1.0000 0.15080  0.02850  0.48280  Biso   1.000  H
  H284     1.0000 0.14970  0.06200  0.53080  Biso   1.000  H
  Mn27     1.0000 0.88774  0.02825  0.03597  Biso   1.000  Mn
  O79      1.0000 0.84827  0.00827  0.06530  Biso   1.000  O
  O80      1.0000 0.88516  0.94776  0.88840  Biso   1.000  O
  O81      1.0000 0.93018  0.04273  0.99558  Biso   1.000  O
  N70      1.0000 0.89513  0.99323  0.96267  Biso   1.000  N
  N71      1.0000 0.92614  0.99566  0.92460  Biso   1.000  N
  N72      1.0000 0.18810  0.11045  0.29469  Biso   1.000  N
  C337     1.0000 0.83160  0.98310  0.03430  Biso   1.000  C
  C338     1.0000 0.79946  0.97602  0.06300  Biso   1.000  C
  H285     1.0000 0.79110  0.98920  0.10270  Biso   1.000  H
  C339     1.0000 0.77990  0.95049  0.03480  Biso   1.000  C
  H286     1.0000 0.75850  0.94600  0.05580  Biso   1.000  H
  C340     1.0000 0.79147  0.93113  0.97520  Biso   1.000  C
  H287     1.0000 0.77810  0.91370  0.95520  Biso   1.000  H
  C341     1.0000 0.82213  0.93778  0.94690  Biso   1.000  C
  H288     1.0000 0.82990  0.92480  0.90630  Biso   1.000  H
  C342     1.0000 0.84274  0.96303  0.97500  Biso   1.000  C
  C343     1.0000 0.87613  0.96790  0.94010  Biso   1.000  C
  C344     1.0000 0.94218  0.02198  0.94660  Biso   1.000  C
  C345     1.0000 0.97661  0.02886  0.91750  Biso   1.000  C
  H289     1.0000 0.97600  0.04870  0.88560  Biso   1.000  H
  H290     1.0000 0.98440  0.00950  0.88870  Biso   1.000  H
  H291     1.0000 0.99190  0.03280  0.95910  Biso   1.000  H
  C346     1.0000 0.17359  0.08152  0.27750  Biso   1.000  C
  H292     1.0000 0.17860  0.07170  0.23070  Biso   1.000  H
  C347     1.0000 0.15172  0.06494  0.32350  Biso   1.000  C
  H293     1.0000 0.14220  0.04420  0.30890  Biso   1.000  H
  C348     1.0000 0.18135  0.12286  0.36180  Biso   1.000  C
  H294     1.0000 0.19220  0.14300  0.37640  Biso   1.000  H
  C349     1.0000 0.15940  0.10810  0.41160  Biso   1.000  C
  H295     1.0000 0.15530  0.11800  0.45860  Biso   1.000  H
  C350     1.0000 0.14379  0.07898  0.39190  Biso   1.000  C
  C351     1.0000 0.11940  0.06220  0.44550  Biso   1.000  C
  H296     1.0000 0.10550  0.04580  0.41780  Biso   1.000  H
  H297     1.0000 0.10410  0.07940  0.46620  Biso   1.000  H
  Mn28     1.0000 0.42600  0.45752  0.33161  Biso   1.000  Mn
  O82      1.0000 0.40326  0.48654  0.26850  Biso   1.000  O
  O83      1.0000 0.50257  0.47998  0.18488  Biso   1.000  O
  O84      1.0000 0.45619  0.43006  0.39016  Biso   1.000  O
  N73      1.0000 0.46740  0.46553  0.27909  Biso   1.000  N
  N74      1.0000 0.49605  0.44915  0.30944  Biso   1.000  N
  C352     1.0000 0.41400  0.50103  0.20710  Biso   1.000  C
  C353     1.0000 0.38983  0.52060  0.16900  Biso   1.000  C
  H298     1.0000 0.36850  0.52480  0.19050  Biso   1.000  H
  C354     1.0000 0.39793  0.53340  0.09950  Biso   1.000  C
  H299     1.0000 0.38190  0.54660  0.07360  Biso   1.000  H
  C355     1.0000 0.42909  0.52740  0.06730  Biso   1.000  C
  H300     1.0000 0.43350  0.53440  0.01790  Biso   1.000  H
  C356     1.0000 0.45309  0.51140  0.10770  Biso   1.000  C
  H301     1.0000 0.47520  0.50990  0.08830  Biso   1.000  H
  C357     1.0000 0.44609  0.49707  0.17680  Biso   1.000  C
  C358     1.0000 0.47351  0.48025  0.21500  Biso   1.000  C
  C359     1.0000 0.48701  0.43149  0.36652  Biso   1.000  C
  C360     1.0000 0.51282  0.41094  0.40640  Biso   1.000  C
  H302     1.0000 0.52220  0.42400  0.44750  Biso   1.000  H
  H303     1.0000 0.50240  0.39050  0.42580  Biso   1.000  H
  H304     1.0000 0.53080  0.40490  0.37190  Biso   1.000  H
  Mn29     1.0000 0.54151  0.46741  0.24692  Biso   1.000  Mn
  O85      1.0000 0.54999  0.42555  0.20559  Biso   1.000  O
  O86      1.0000 0.61463  0.43364  0.39163  Biso   1.000  O
  O87      1.0000 0.53948  0.51005  0.29783  Biso   1.000  O
  N75      1.0000 0.57746  0.46121  0.31806  Biso   1.000  N
  N76      1.0000 0.58289  0.48868  0.36513  Biso   1.000  N
  N77      1.0000 0.57338  0.49300  0.15950  Biso   1.000  N
  C361     1.0000 0.57268  0.40235  0.22360  Biso   1.000  C
  C362     1.0000 0.57471  0.37434  0.17780  Biso   1.000  C
  H305     1.0000 0.56030  0.37260  0.13620  Biso   1.000  H
  C363     1.0000 0.59764  0.34889  0.19230  Biso   1.000  C
  H306     1.0000 0.59890  0.33010  0.16010  Biso   1.000  H
  C364     1.0000 0.61861  0.35083  0.25320  Biso   1.000  C
  H307     1.0000 0.63380  0.33320  0.26380  Biso   1.000  H
  C365     1.0000 0.61715  0.37862  0.29830  Biso   1.000  C
  H308     1.0000 0.63180  0.38020  0.33960  Biso   1.000  H
  C366     1.0000 0.59441  0.40479  0.28450  Biso   1.000  C
  C367     1.0000 0.59564  0.43437  0.33405  Biso   1.000  C
  C368     1.0000 0.56227  0.51289  0.34890  Biso   1.000  C
  C369     1.0000 0.56503  0.54510  0.38950  Biso   1.000  C
  H309     1.0000 0.55000  0.54480  0.43240  Biso   1.000  H
  H310     1.0000 0.58820  0.54820  0.40640  Biso   1.000  H
  H311     1.0000 0.55880  0.56360  0.35650  Biso   1.000  H
  C370     1.0000 0.56172  0.52230  0.12890  Biso   1.000  C
  H312     1.0000 0.54010  0.53030  0.14170  Biso   1.000  H
  C371     1.0000 0.58140  0.54040  0.07930  Biso   1.000  C
  H313     1.0000 0.57330  0.56070  0.05840  Biso   1.000  H
  C372     1.0000 0.60378  0.48780  0.14780  Biso   1.000  C
  H314     1.0000 0.61380  0.46970  0.17370  Biso   1.000  H
  C373     1.0000 0.62417  0.50600  0.10040  Biso   1.000  C
  H315     1.0000 0.64740  0.50090  0.09870  Biso   1.000  H
  C374     1.0000 0.61339  0.52840  0.06050  Biso   1.000  C
  C375     1.0000 0.63560  0.54550  0.00430  Biso   1.000  C
  H316     1.0000 0.65080  0.52850  0.98280  Biso   1.000  H
  H317     1.0000 0.64970  0.56200  0.03080  Biso   1.000  H
  Mn30     1.0000 0.38774  0.52825  0.53597  Biso   1.000  Mn
  O88      1.0000 0.34827  0.50827  0.56530  Biso   1.000  O
  O89      1.0000 0.38516  0.44776  0.38840  Biso   1.000  O
  O90      1.0000 0.43018  0.54273  0.49558  Biso   1.000  O
  N78      1.0000 0.39513  0.49323  0.46267  Biso   1.000  N
  N79      1.0000 0.42614  0.49566  0.42460  Biso   1.000  N
  N80      1.0000 0.68810  0.61045  0.79469  Biso   1.000  N
  C376     1.0000 0.33160  0.48310  0.53430  Biso   1.000  C
  C377     1.0000 0.29946  0.47602  0.56300  Biso   1.000  C
  H318     1.0000 0.29110  0.48920  0.60270  Biso   1.000  H
  C378     1.0000 0.27990  0.45049  0.53480  Biso   1.000  C
  H319     1.0000 0.25850  0.44600  0.55580  Biso   1.000  H
  C379     1.0000 0.29147  0.43113  0.47520  Biso   1.000  C
  H320     1.0000 0.27810  0.41370  0.45520  Biso   1.000  H
  C380     1.0000 0.32213  0.43778  0.44690  Biso   1.000  C
  H321     1.0000 0.32990  0.42480  0.40630  Biso   1.000  H
  C381     1.0000 0.34274  0.46303  0.47500  Biso   1.000  C
  C382     1.0000 0.37613  0.46790  0.44010  Biso   1.000  C
  C383     1.0000 0.44218  0.52198  0.44660  Biso   1.000  C
  C384     1.0000 0.47661  0.52886  0.41750  Biso   1.000  C
  H322     1.0000 0.47600  0.54870  0.38560  Biso   1.000  H
  H323     1.0000 0.48440  0.50950  0.38870  Biso   1.000  H
  H324     1.0000 0.49190  0.53280  0.45910  Biso   1.000  H
  C385     1.0000 0.67359  0.58152  0.77750  Biso   1.000  C
  H325     1.0000 0.67860  0.57170  0.73070  Biso   1.000  H
  C386     1.0000 0.65172  0.56494  0.82350  Biso   1.000  C
  H326     1.0000 0.64220  0.54420  0.80890  Biso   1.000  H
  C387     1.0000 0.68135  0.62286  0.86180  Biso   1.000  C
  H327     1.0000 0.69220  0.64300  0.87640  Biso   1.000  H
  C388     1.0000 0.65940  0.60810  0.91160  Biso   1.000  C
  H328     1.0000 0.65530  0.61800  0.95860  Biso   1.000  H
  C389     1.0000 0.64379  0.57898  0.89190  Biso   1.000  C
  C390     1.0000 0.61940  0.56220  0.94550  Biso   1.000  C
  H329     1.0000 0.60550  0.54580  0.91780  Biso   1.000  H
  H330     1.0000 0.60410  0.57940  0.96620  Biso   1.000  H
  Mn31     1.0000 0.57400  0.04248  0.33161  Biso   1.000  Mn
  O91      1.0000 0.59674  0.01346  0.26850  Biso   1.000  O
  O92      1.0000 0.49743  0.02002  0.18488  Biso   1.000  O
  O93      1.0000 0.54381  0.06994  0.39016  Biso   1.000  O
  N81      1.0000 0.53260  0.03447  0.27909  Biso   1.000  N
  N82      1.0000 0.50395  0.05085  0.30944  Biso   1.000  N
  C391     1.0000 0.58600  0.99897  0.20710  Biso   1.000  C
  C392     1.0000 0.61017  0.97940  0.16900  Biso   1.000  C
  H331     1.0000 0.63150  0.97520  0.19050  Biso   1.000  H
  C393     1.0000 0.60207  0.96660  0.09950  Biso   1.000  C
  H332     1.0000 0.61810  0.95340  0.07360  Biso   1.000  H
  C394     1.0000 0.57091  0.97260  0.06730  Biso   1.000  C
  H333     1.0000 0.56650  0.96560  0.01790  Biso   1.000  H
  C395     1.0000 0.54691  0.98860  0.10770  Biso   1.000  C
  H334     1.0000 0.52480  0.99010  0.08830  Biso   1.000  H
  C396     1.0000 0.55391  0.00293  0.17680  Biso   1.000  C
  C397     1.0000 0.52649  0.01975  0.21500  Biso   1.000  C
  C398     1.0000 0.51299  0.06851  0.36652  Biso   1.000  C
  C399     1.0000 0.48718  0.08906  0.40640  Biso   1.000  C
  H335     1.0000 0.47780  0.07600  0.44750  Biso   1.000  H
  H336     1.0000 0.49760  0.10950  0.42580  Biso   1.000  H
  H337     1.0000 0.46920  0.09510  0.37190  Biso   1.000  H
  Mn32     1.0000 0.45849  0.03259  0.24692  Biso   1.000  Mn
  O94      1.0000 0.45001  0.07445  0.20559  Biso   1.000  O
  O95      1.0000 0.38537  0.06636  0.39163  Biso   1.000  O
  O96      1.0000 0.46052  0.98995  0.29783  Biso   1.000  O
  N83      1.0000 0.42254  0.03879  0.31806  Biso   1.000  N
  N84      1.0000 0.41711  0.01132  0.36513  Biso   1.000  N
  N85      1.0000 0.42662  0.00700  0.15950  Biso   1.000  N
  C400     1.0000 0.42732  0.09765  0.22360  Biso   1.000  C
  C401     1.0000 0.42529  0.12566  0.17780  Biso   1.000  C
  H338     1.0000 0.43970  0.12740  0.13620  Biso   1.000  H
  C402     1.0000 0.40236  0.15111  0.19230  Biso   1.000  C
  H339     1.0000 0.40110  0.16990  0.16010  Biso   1.000  H
  C403     1.0000 0.38139  0.14917  0.25320  Biso   1.000  C
  H340     1.0000 0.36620  0.16680  0.26380  Biso   1.000  H
  C404     1.0000 0.38285  0.12138  0.29830  Biso   1.000  C
  H341     1.0000 0.36820  0.11980  0.33960  Biso   1.000  H
  C405     1.0000 0.40559  0.09521  0.28450  Biso   1.000  C
  C406     1.0000 0.40436  0.06563  0.33405  Biso   1.000  C
  C407     1.0000 0.43773  0.98711  0.34890  Biso   1.000  C
  C408     1.0000 0.43497  0.95490  0.38950  Biso   1.000  C
  H342     1.0000 0.45000  0.95520  0.43240  Biso   1.000  H
  H343     1.0000 0.41180  0.95180  0.40640  Biso   1.000  H
  H344     1.0000 0.44120  0.93640  0.35650  Biso   1.000  H
  C409     1.0000 0.43828  0.97770  0.12890  Biso   1.000  C
  H345     1.0000 0.45990  0.96970  0.14170  Biso   1.000  H
  C410     1.0000 0.41860  0.95960  0.07930  Biso   1.000  C
  H346     1.0000 0.42670  0.93930  0.05840  Biso   1.000  H
  C411     1.0000 0.39622  0.01220  0.14780  Biso   1.000  C
  H347     1.0000 0.38620  0.03030  0.17370  Biso   1.000  H
  C412     1.0000 0.37583  0.99400  0.10040  Biso   1.000  C
  H348     1.0000 0.35260  0.99910  0.09870  Biso   1.000  H
  C413     1.0000 0.38661  0.97160  0.06050  Biso   1.000  C
  C414     1.0000 0.36440  0.95450  0.00430  Biso   1.000  C
  H349     1.0000 0.34920  0.97150  0.98280  Biso   1.000  H
  H350     1.0000 0.35030  0.93800  0.03080  Biso   1.000  H
  Mn33     1.0000 0.61226  0.97175  0.53597  Biso   1.000  Mn
  O97      1.0000 0.65173  0.99173  0.56530  Biso   1.000  O
  O98      1.0000 0.61484  0.05224  0.38840  Biso   1.000  O
  O99      1.0000 0.56982  0.95727  0.49558  Biso   1.000  O
  N86      1.0000 0.60487  0.00677  0.46267  Biso   1.000  N
  N87      1.0000 0.57386  0.00434  0.42460  Biso   1.000  N
  N88      1.0000 0.31190  0.88955  0.79469  Biso   1.000  N
  C415     1.0000 0.66840  0.01690  0.53430  Biso   1.000  C
  C416     1.0000 0.70054  0.02398  0.56300  Biso   1.000  C
  H351     1.0000 0.70890  0.01080  0.60270  Biso   1.000  H
  C417     1.0000 0.72010  0.04951  0.53480  Biso   1.000  C
  H352     1.0000 0.74150  0.05400  0.55580  Biso   1.000  H
  C418     1.0000 0.70853  0.06887  0.47520  Biso   1.000  C
  H353     1.0000 0.72190  0.08630  0.45520  Biso   1.000  H
  C419     1.0000 0.67787  0.06222  0.44690  Biso   1.000  C
  H354     1.0000 0.67010  0.07520  0.40630  Biso   1.000  H
  C420     1.0000 0.65726  0.03697  0.47500  Biso   1.000  C
  C421     1.0000 0.62387  0.03210  0.44010  Biso   1.000  C
  C422     1.0000 0.55782  0.97802  0.44660  Biso   1.000  C
  C423     1.0000 0.52339  0.97114  0.41750  Biso   1.000  C
  H355     1.0000 0.52400  0.95130  0.38560  Biso   1.000  H
  H356     1.0000 0.51560  0.99050  0.38870  Biso   1.000  H
  H357     1.0000 0.50810  0.96720  0.45910  Biso   1.000  H
  C424     1.0000 0.32641  0.91848  0.77750  Biso   1.000  C
  H358     1.0000 0.32140  0.92830  0.73070  Biso   1.000  H
  C425     1.0000 0.34828  0.93506  0.82350  Biso   1.000  C
  H359     1.0000 0.35780  0.95580  0.80890  Biso   1.000  H
  C426     1.0000 0.31865  0.87714  0.86180  Biso   1.000  C
  H360     1.0000 0.30780  0.85700  0.87640  Biso   1.000  H
  C427     1.0000 0.34060  0.89190  0.91160  Biso   1.000  C
  H361     1.0000 0.34470  0.88200  0.95860  Biso   1.000  H
  C428     1.0000 0.35621  0.92102  0.89190  Biso   1.000  C
  C429     1.0000 0.38060  0.93780  0.94550  Biso   1.000  C
  H362     1.0000 0.39450  0.95420  0.91780  Biso   1.000  H
  H363     1.0000 0.39590  0.92060  0.96620  Biso   1.000  H
  Mn34     1.0000 0.07400  0.54248  0.83161  Biso   1.000  Mn
  O100     1.0000 0.09674  0.51346  0.76850  Biso   1.000  O
  O101     1.0000 0.99743  0.52002  0.68488  Biso   1.000  O
  O102     1.0000 0.04381  0.56994  0.89016  Biso   1.000  O
  N89      1.0000 0.03260  0.53447  0.77909  Biso   1.000  N
  N90      1.0000 0.00395  0.55085  0.80944  Biso   1.000  N
  C430     1.0000 0.08600  0.49897  0.70710  Biso   1.000  C
  C431     1.0000 0.11017  0.47940  0.66900  Biso   1.000  C
  H364     1.0000 0.13150  0.47520  0.69050  Biso   1.000  H
  C432     1.0000 0.10207  0.46660  0.59950  Biso   1.000  C
  H365     1.0000 0.11810  0.45340  0.57360  Biso   1.000  H
  C433     1.0000 0.07091  0.47260  0.56730  Biso   1.000  C
  H366     1.0000 0.06650  0.46560  0.51790  Biso   1.000  H
  C434     1.0000 0.04691  0.48860  0.60770  Biso   1.000  C
  H367     1.0000 0.02480  0.49010  0.58830  Biso   1.000  H
  C435     1.0000 0.05391  0.50293  0.67680  Biso   1.000  C
  C436     1.0000 0.02649  0.51975  0.71500  Biso   1.000  C
  C437     1.0000 0.01299  0.56851  0.86652  Biso   1.000  C
  C438     1.0000 0.98718  0.58906  0.90640  Biso   1.000  C
  H368     1.0000 0.97780  0.57600  0.94750  Biso   1.000  H
  H369     1.0000 0.99760  0.60950  0.92580  Biso   1.000  H
  H370     1.0000 0.96920  0.59510  0.87190  Biso   1.000  H
  Mn35     1.0000 0.95849  0.53259  0.74692  Biso   1.000  Mn
  O103     1.0000 0.95001  0.57445  0.70559  Biso   1.000  O
  O104     1.0000 0.88537  0.56636  0.89163  Biso   1.000  O
  O105     1.0000 0.96052  0.48995  0.79783  Biso   1.000  O
  N91      1.0000 0.92254  0.53879  0.81806  Biso   1.000  N
  N92      1.0000 0.91711  0.51132  0.86513  Biso   1.000  N
  N93      1.0000 0.92662  0.50700  0.65950  Biso   1.000  N
  C439     1.0000 0.92732  0.59765  0.72360  Biso   1.000  C
  C440     1.0000 0.92529  0.62566  0.67780  Biso   1.000  C
  H371     1.0000 0.93970  0.62740  0.63620  Biso   1.000  H
  C441     1.0000 0.90236  0.65111  0.69230  Biso   1.000  C
  H372     1.0000 0.90110  0.66990  0.66010  Biso   1.000  H
  C442     1.0000 0.88139  0.64917  0.75320  Biso   1.000  C
  H373     1.0000 0.86620  0.66680  0.76380  Biso   1.000  H
  C443     1.0000 0.88285  0.62138  0.79830  Biso   1.000  C
  H374     1.0000 0.86820  0.61980  0.83960  Biso   1.000  H
  C444     1.0000 0.90559  0.59521  0.78450  Biso   1.000  C
  C445     1.0000 0.90436  0.56563  0.83405  Biso   1.000  C
  C446     1.0000 0.93773  0.48711  0.84890  Biso   1.000  C
  C447     1.0000 0.93497  0.45490  0.88950  Biso   1.000  C
  H375     1.0000 0.95000  0.45520  0.93240  Biso   1.000  H
  H376     1.0000 0.91180  0.45180  0.90640  Biso   1.000  H
  H377     1.0000 0.94120  0.43640  0.85650  Biso   1.000  H
  C448     1.0000 0.93828  0.47770  0.62890  Biso   1.000  C
  H378     1.0000 0.95990  0.46970  0.64170  Biso   1.000  H
  C449     1.0000 0.91860  0.45960  0.57930  Biso   1.000  C
  H379     1.0000 0.92670  0.43930  0.55840  Biso   1.000  H
  C450     1.0000 0.89622  0.51220  0.64780  Biso   1.000  C
  H380     1.0000 0.88620  0.53030  0.67370  Biso   1.000  H
  C451     1.0000 0.87583  0.49400  0.60040  Biso   1.000  C
  H381     1.0000 0.85260  0.49910  0.59870  Biso   1.000  H
  C452     1.0000 0.88661  0.47160  0.56050  Biso   1.000  C
  C453     1.0000 0.86440  0.45450  0.50430  Biso   1.000  C
  H382     1.0000 0.84920  0.47150  0.48280  Biso   1.000  H
  H383     1.0000 0.85030  0.43800  0.53080  Biso   1.000  H
  Mn36     1.0000 0.11226  0.47175  0.03597  Biso   1.000  Mn
  O106     1.0000 0.15173  0.49173  0.06530  Biso   1.000  O
  O107     1.0000 0.11484  0.55224  0.88840  Biso   1.000  O
  O108     1.0000 0.06982  0.45727  0.99558  Biso   1.000  O
  N94      1.0000 0.10487  0.50677  0.96267  Biso   1.000  N
  N95      1.0000 0.07386  0.50434  0.92460  Biso   1.000  N
  N96      1.0000 0.81190  0.38955  0.29469  Biso   1.000  N
  C454     1.0000 0.16840  0.51690  0.03430  Biso   1.000  C
  C455     1.0000 0.20054  0.52398  0.06300  Biso   1.000  C
  H384     1.0000 0.20890  0.51080  0.10270  Biso   1.000  H
  C456     1.0000 0.22010  0.54951  0.03480  Biso   1.000  C
  H385     1.0000 0.24150  0.55400  0.05580  Biso   1.000  H
  C457     1.0000 0.20853  0.56887  0.97520  Biso   1.000  C
  H386     1.0000 0.22190  0.58630  0.95520  Biso   1.000  H
  C458     1.0000 0.17787  0.56222  0.94690  Biso   1.000  C
  H387     1.0000 0.17010  0.57520  0.90630  Biso   1.000  H
  C459     1.0000 0.15726  0.53697  0.97500  Biso   1.000  C
  C460     1.0000 0.12387  0.53210  0.94010  Biso   1.000  C
  C461     1.0000 0.05782  0.47802  0.94660  Biso   1.000  C
  C462     1.0000 0.02339  0.47114  0.91750  Biso   1.000  C
  H388     1.0000 0.02400  0.45130  0.88560  Biso   1.000  H
  H389     1.0000 0.01560  0.49050  0.88870  Biso   1.000  H
  H390     1.0000 0.00810  0.46720  0.95910  Biso   1.000  H
  C463     1.0000 0.82641  0.41848  0.27750  Biso   1.000  C
  H391     1.0000 0.82140  0.42830  0.23070  Biso   1.000  H
  C464     1.0000 0.84828  0.43506  0.32350  Biso   1.000  C
  H392     1.0000 0.85780  0.45580  0.30890  Biso   1.000  H
  C465     1.0000 0.81865  0.37714  0.36180  Biso   1.000  C
  H393     1.0000 0.80780  0.35700  0.37640  Biso   1.000  H
  C466     1.0000 0.84060  0.39190  0.41160  Biso   1.000  C
  H394     1.0000 0.84470  0.38200  0.45860  Biso   1.000  H
  C467     1.0000 0.85621  0.42102  0.39190  Biso   1.000  C
  C468     1.0000 0.88060  0.43780  0.44550  Biso   1.000  C
  H395     1.0000 0.89450  0.45420  0.41780  Biso   1.000  H
  H396     1.0000 0.89590  0.42060  0.46620  Biso   1.000  H
  Mn37     1.0000 0.29248  0.67600  0.58161  Biso   1.000  Mn
  O109     1.0000 0.26346  0.65326  0.51850  Biso   1.000  O
  O110     1.0000 0.27002  0.75257  0.43488  Biso   1.000  O
  O111     1.0000 0.31994  0.70619  0.64016  Biso   1.000  O
  N97      1.0000 0.28447  0.71740  0.52909  Biso   1.000  N
  N98      1.0000 0.30085  0.74605  0.55944  Biso   1.000  N
  C469     1.0000 0.24897  0.66400  0.45710  Biso   1.000  C
  C470     1.0000 0.22940  0.63983  0.41900  Biso   1.000  C
  H397     1.0000 0.22520  0.61850  0.44050  Biso   1.000  H
  C471     1.0000 0.21660  0.64793  0.34950  Biso   1.000  C
  H398     1.0000 0.20340  0.63190  0.32360  Biso   1.000  H
  C472     1.0000 0.22260  0.67909  0.31730  Biso   1.000  C
  H399     1.0000 0.21560  0.68350  0.26790  Biso   1.000  H
  C473     1.0000 0.23860  0.70309  0.35770  Biso   1.000  C
  H400     1.0000 0.24010  0.72520  0.33830  Biso   1.000  H
  C474     1.0000 0.25293  0.69609  0.42680  Biso   1.000  C
  C475     1.0000 0.26975  0.72351  0.46500  Biso   1.000  C
  C476     1.0000 0.31851  0.73701  0.61652  Biso   1.000  C
  C477     1.0000 0.33906  0.76282  0.65640  Biso   1.000  C
  H401     1.0000 0.32600  0.77220  0.69750  Biso   1.000  H
  H402     1.0000 0.35950  0.75240  0.67580  Biso   1.000  H
  H403     1.0000 0.34510  0.78080  0.62190  Biso   1.000  H
  Mn38     1.0000 0.28259  0.79151  0.49692  Biso   1.000  Mn
  O112     1.0000 0.32445  0.79999  0.45559  Biso   1.000  O
  O113     1.0000 0.31636  0.86463  0.64163  Biso   1.000  O
  O114     1.0000 0.23995  0.78948  0.54783  Biso   1.000  O
  N99      1.0000 0.28879  0.82746  0.56806  Biso   1.000  N
  N100     1.0000 0.26132  0.83289  0.61513  Biso   1.000  N
  N101     1.0000 0.25700  0.82338  0.40950  Biso   1.000  N
  C478     1.0000 0.34765  0.82268  0.47360  Biso   1.000  C
  C479     1.0000 0.37566  0.82471  0.42780  Biso   1.000  C
  H404     1.0000 0.37740  0.81030  0.38620  Biso   1.000  H
  C480     1.0000 0.40111  0.84764  0.44230  Biso   1.000  C
  H405     1.0000 0.41990  0.84890  0.41010  Biso   1.000  H
  C481     1.0000 0.39917  0.86861  0.50320  Biso   1.000  C
  H406     1.0000 0.41680  0.88380  0.51380  Biso   1.000  H
  C482     1.0000 0.37138  0.86715  0.54830  Biso   1.000  C
  H407     1.0000 0.36980  0.88180  0.58960  Biso   1.000  H
  C483     1.0000 0.34521  0.84441  0.53450  Biso   1.000  C
  C484     1.0000 0.31563  0.84564  0.58405  Biso   1.000  C
  C485     1.0000 0.23711  0.81227  0.59890  Biso   1.000  C
  C486     1.0000 0.20490  0.81503  0.63950  Biso   1.000  C
  H408     1.0000 0.20520  0.80000  0.68240  Biso   1.000  H
  H409     1.0000 0.20180  0.83820  0.65640  Biso   1.000  H
  H410     1.0000 0.18640  0.80880  0.60650  Biso   1.000  H
  C487     1.0000 0.22770  0.81172  0.37890  Biso   1.000  C
  H411     1.0000 0.21970  0.79010  0.39170  Biso   1.000  H
  C488     1.0000 0.20960  0.83140  0.32930  Biso   1.000  C
  H412     1.0000 0.18930  0.82330  0.30840  Biso   1.000  H
  C489     1.0000 0.26220  0.85378  0.39780  Biso   1.000  C
  H413     1.0000 0.28030  0.86380  0.42370  Biso   1.000  H
  C490     1.0000 0.24400  0.87417  0.35040  Biso   1.000  C
  H414     1.0000 0.24910  0.89740  0.34870  Biso   1.000  H
  C491     1.0000 0.22160  0.86339  0.31050  Biso   1.000  C
  C492     1.0000 0.20450  0.88560  0.25430  Biso   1.000  C
  H415     1.0000 0.22150  0.90080  0.23280  Biso   1.000  H
  H416     1.0000 0.18800  0.89970  0.28080  Biso   1.000  H
  Mn39     1.0000 0.22175  0.63774  0.78597  Biso   1.000  Mn
  O115     1.0000 0.24173  0.59827  0.81530  Biso   1.000  O
  O116     1.0000 0.30224  0.63516  0.63840  Biso   1.000  O
  O117     1.0000 0.20727  0.68018  0.74558  Biso   1.000  O
  N102     1.0000 0.25677  0.64513  0.71267  Biso   1.000  N
  N103     1.0000 0.25434  0.67614  0.67460  Biso   1.000  N
  N104     1.0000 0.13955  0.93810  0.04469  Biso   1.000  N
  C493     1.0000 0.26690  0.58160  0.78430  Biso   1.000  C
  C494     1.0000 0.27398  0.54946  0.81300  Biso   1.000  C
  H417     1.0000 0.26080  0.54110  0.85270  Biso   1.000  H
  C495     1.0000 0.29951  0.52990  0.78480  Biso   1.000  C
  H418     1.0000 0.30400  0.50850  0.80580  Biso   1.000  H
  C496     1.0000 0.31887  0.54147  0.72520  Biso   1.000  C
  H419     1.0000 0.33630  0.52810  0.70520  Biso   1.000  H
  C497     1.0000 0.31222  0.57213  0.69690  Biso   1.000  C
  H420     1.0000 0.32520  0.57990  0.65630  Biso   1.000  H
  C498     1.0000 0.28697  0.59274  0.72500  Biso   1.000  C
  C499     1.0000 0.28210  0.62613  0.69010  Biso   1.000  C
  C500     1.0000 0.22802  0.69218  0.69660  Biso   1.000  C
  C501     1.0000 0.22114  0.72661  0.66750  Biso   1.000  C
  H421     1.0000 0.20130  0.72600  0.63560  Biso   1.000  H
  H422     1.0000 0.24050  0.73440  0.63870  Biso   1.000  H
  H423     1.0000 0.21720  0.74190  0.70910  Biso   1.000  H
  C502     1.0000 0.16848  0.92359  0.02750  Biso   1.000  C
  H424     1.0000 0.17830  0.92860  0.98070  Biso   1.000  H
  C503     1.0000 0.18506  0.90172  0.07350  Biso   1.000  C
  H425     1.0000 0.20580  0.89220  0.05890  Biso   1.000  H
  C504     1.0000 0.12714  0.93135  0.11180  Biso   1.000  C
  H426     1.0000 0.10700  0.94220  0.12640  Biso   1.000  H
  C505     1.0000 0.14190  0.90940  0.16160  Biso   1.000  C
  H427     1.0000 0.13200  0.90530  0.20860  Biso   1.000  H
  C506     1.0000 0.17102  0.89379  0.14190  Biso   1.000  C
  C507     1.0000 0.18780  0.86940  0.19550  Biso   1.000  C
  H428     1.0000 0.20420  0.85550  0.16780  Biso   1.000  H
  H429     1.0000 0.17060  0.85410  0.21620  Biso   1.000  H
  Mn40     1.0000 0.79248  0.17600  0.08161  Biso   1.000  Mn
  O118     1.0000 0.76346  0.15326  0.01850  Biso   1.000  O
  O119     1.0000 0.77002  0.25257  0.93488  Biso   1.000  O
  O120     1.0000 0.81994  0.20619  0.14016  Biso   1.000  O
  N105     1.0000 0.78447  0.21740  0.02909  Biso   1.000  N
  N106     1.0000 0.80085  0.24605  0.05944  Biso   1.000  N
  C508     1.0000 0.74897  0.16400  0.95710  Biso   1.000  C
  C509     1.0000 0.72940  0.13983  0.91900  Biso   1.000  C
  H430     1.0000 0.72520  0.11850  0.94050  Biso   1.000  H
  C510     1.0000 0.71660  0.14793  0.84950  Biso   1.000  C
  H431     1.0000 0.70340  0.13190  0.82360  Biso   1.000  H
  C511     1.0000 0.72260  0.17909  0.81730  Biso   1.000  C
  H432     1.0000 0.71560  0.18350  0.76790  Biso   1.000  H
  C512     1.0000 0.73860  0.20309  0.85770  Biso   1.000  C
  H433     1.0000 0.74010  0.22520  0.83830  Biso   1.000  H
  C513     1.0000 0.75293  0.19609  0.92680  Biso   1.000  C
  C514     1.0000 0.76975  0.22351  0.96500  Biso   1.000  C
  C515     1.0000 0.81851  0.23701  0.11652  Biso   1.000  C
  C516     1.0000 0.83906  0.26282  0.15640  Biso   1.000  C
  H434     1.0000 0.82600  0.27220  0.19750  Biso   1.000  H
  H435     1.0000 0.85950  0.25240  0.17580  Biso   1.000  H
  H436     1.0000 0.84510  0.28080  0.12190  Biso   1.000  H
  Mn41     1.0000 0.78259  0.29151  0.99692  Biso   1.000  Mn
  O121     1.0000 0.82445  0.29999  0.95559  Biso   1.000  O
  O122     1.0000 0.81636  0.36463  0.14163  Biso   1.000  O
  O123     1.0000 0.73995  0.28948  0.04783  Biso   1.000  O
  N107     1.0000 0.78879  0.32746  0.06806  Biso   1.000  N
  N108     1.0000 0.76132  0.33289  0.11513  Biso   1.000  N
  N109     1.0000 0.75700  0.32338  0.90950  Biso   1.000  N
  C517     1.0000 0.84765  0.32268  0.97360  Biso   1.000  C
  C518     1.0000 0.87566  0.32471  0.92780  Biso   1.000  C
  H437     1.0000 0.87740  0.31030  0.88620  Biso   1.000  H
  C519     1.0000 0.90111  0.34764  0.94230  Biso   1.000  C
  H438     1.0000 0.91990  0.34890  0.91010  Biso   1.000  H
  C520     1.0000 0.89917  0.36861  0.00320  Biso   1.000  C
  H439     1.0000 0.91680  0.38380  0.01380  Biso   1.000  H
  C521     1.0000 0.87138  0.36715  0.04830  Biso   1.000  C
  H440     1.0000 0.86980  0.38180  0.08960  Biso   1.000  H
  C522     1.0000 0.84521  0.34441  0.03450  Biso   1.000  C
  C523     1.0000 0.81563  0.34564  0.08405  Biso   1.000  C
  C524     1.0000 0.73711  0.31227  0.09890  Biso   1.000  C
  C525     1.0000 0.70490  0.31503  0.13950  Biso   1.000  C
  H441     1.0000 0.70520  0.30000  0.18240  Biso   1.000  H
  H442     1.0000 0.70180  0.33820  0.15640  Biso   1.000  H
  H443     1.0000 0.68640  0.30880  0.10650  Biso   1.000  H
  C526     1.0000 0.72770  0.31172  0.87890  Biso   1.000  C
  H444     1.0000 0.71970  0.29010  0.89170  Biso   1.000  H
  C527     1.0000 0.70960  0.33140  0.82930  Biso   1.000  C
  H445     1.0000 0.68930  0.32330  0.80840  Biso   1.000  H
  C528     1.0000 0.76220  0.35378  0.89780  Biso   1.000  C
  H446     1.0000 0.78030  0.36380  0.92370  Biso   1.000  H
  C529     1.0000 0.74400  0.37417  0.85040  Biso   1.000  C
  H447     1.0000 0.74910  0.39740  0.84870  Biso   1.000  H
  C530     1.0000 0.72160  0.36339  0.81050  Biso   1.000  C
  C531     1.0000 0.70450  0.38560  0.75430  Biso   1.000  C
  H448     1.0000 0.72150  0.40080  0.73280  Biso   1.000  H
  H449     1.0000 0.68800  0.39970  0.78080  Biso   1.000  H
  Mn42     1.0000 0.72175  0.13774  0.28597  Biso   1.000  Mn
  O124     1.0000 0.74173  0.09827  0.31530  Biso   1.000  O
  O125     1.0000 0.80224  0.13516  0.13840  Biso   1.000  O
  O126     1.0000 0.70727  0.18018  0.24558  Biso   1.000  O
  N110     1.0000 0.75677  0.14513  0.21267  Biso   1.000  N
  N111     1.0000 0.75434  0.17614  0.17460  Biso   1.000  N
  N112     1.0000 0.63955  0.43810  0.54469  Biso   1.000  N
  C532     1.0000 0.76690  0.08160  0.28430  Biso   1.000  C
  C533     1.0000 0.77398  0.04946  0.31300  Biso   1.000  C
  H450     1.0000 0.76080  0.04110  0.35270  Biso   1.000  H
  C534     1.0000 0.79951  0.02990  0.28480  Biso   1.000  C
  H451     1.0000 0.80400  0.00850  0.30580  Biso   1.000  H
  C535     1.0000 0.81887  0.04147  0.22520  Biso   1.000  C
  H452     1.0000 0.83630  0.02810  0.20520  Biso   1.000  H
  C536     1.0000 0.81222  0.07213  0.19690  Biso   1.000  C
  H453     1.0000 0.82520  0.07990  0.15630  Biso   1.000  H
  C537     1.0000 0.78697  0.09274  0.22500  Biso   1.000  C
  C538     1.0000 0.78210  0.12613  0.19010  Biso   1.000  C
  C539     1.0000 0.72802  0.19218  0.19660  Biso   1.000  C
  C540     1.0000 0.72114  0.22661  0.16750  Biso   1.000  C
  H454     1.0000 0.70130  0.22600  0.13560  Biso   1.000  H
  H455     1.0000 0.74050  0.23440  0.13870  Biso   1.000  H
  H456     1.0000 0.71720  0.24190  0.20910  Biso   1.000  H
  C541     1.0000 0.66848  0.42359  0.52750  Biso   1.000  C
  H457     1.0000 0.67830  0.42860  0.48070  Biso   1.000  H
  C542     1.0000 0.68506  0.40172  0.57350  Biso   1.000  C
  H458     1.0000 0.70580  0.39220  0.55890  Biso   1.000  H
  C543     1.0000 0.62714  0.43135  0.61180  Biso   1.000  C
  H459     1.0000 0.60700  0.44220  0.62640  Biso   1.000  H
  C544     1.0000 0.64190  0.40940  0.66160  Biso   1.000  C
  H460     1.0000 0.63200  0.40530  0.70860  Biso   1.000  H
  C545     1.0000 0.67102  0.39379  0.64190  Biso   1.000  C
  C546     1.0000 0.68780  0.36940  0.69550  Biso   1.000  C
  H461     1.0000 0.70420  0.35550  0.66780  Biso   1.000  H
  H462     1.0000 0.67060  0.35410  0.71620  Biso   1.000  H
  Mn43     1.0000 0.20752  0.32400  0.08161  Biso   1.000  Mn
  O127     1.0000 0.23654  0.34674  0.01850  Biso   1.000  O
  O128     1.0000 0.22998  0.24743  0.93488  Biso   1.000  O
  O129     1.0000 0.18006  0.29381  0.14016  Biso   1.000  O
  N113     1.0000 0.21553  0.28260  0.02909  Biso   1.000  N
  N114     1.0000 0.19915  0.25395  0.05944  Biso   1.000  N
  C547     1.0000 0.25103  0.33600  0.95710  Biso   1.000  C
  C548     1.0000 0.27060  0.36017  0.91900  Biso   1.000  C
  H463     1.0000 0.27480  0.38150  0.94050  Biso   1.000  H
  C549     1.0000 0.28340  0.35207  0.84950  Biso   1.000  C
  H464     1.0000 0.29660  0.36810  0.82360  Biso   1.000  H
  C550     1.0000 0.27740  0.32091  0.81730  Biso   1.000  C
  H465     1.0000 0.28440  0.31650  0.76790  Biso   1.000  H
  C551     1.0000 0.26140  0.29691  0.85770  Biso   1.000  C
  H466     1.0000 0.25990  0.27480  0.83830  Biso   1.000  H
  C552     1.0000 0.24707  0.30391  0.92680  Biso   1.000  C
  C553     1.0000 0.23025  0.27649  0.96500  Biso   1.000  C
  C554     1.0000 0.18149  0.26299  0.11652  Biso   1.000  C
  C555     1.0000 0.16094  0.23718  0.15640  Biso   1.000  C
  H467     1.0000 0.17400  0.22780  0.19750  Biso   1.000  H
  H468     1.0000 0.14050  0.24760  0.17580  Biso   1.000  H
  H469     1.0000 0.15490  0.21920  0.12190  Biso   1.000  H
  Mn44     1.0000 0.21741  0.20849  0.99692  Biso   1.000  Mn
  O130     1.0000 0.17555  0.20001  0.95559  Biso   1.000  O
  O131     1.0000 0.18364  0.13537  0.14163  Biso   1.000  O
  O132     1.0000 0.26005  0.21052  0.04783  Biso   1.000  O
  N115     1.0000 0.21121  0.17254  0.06806  Biso   1.000  N
  N116     1.0000 0.23868  0.16711  0.11513  Biso   1.000  N
  N117     1.0000 0.24300  0.17662  0.90950  Biso   1.000  N
  C556     1.0000 0.15235  0.17732  0.97360  Biso   1.000  C
  C557     1.0000 0.12434  0.17529  0.92780  Biso   1.000  C
  H470     1.0000 0.12260  0.18970  0.88620  Biso   1.000  H
  C558     1.0000 0.09889  0.15236  0.94230  Biso   1.000  C
  H471     1.0000 0.08010  0.15110  0.91010  Biso   1.000  H
  C559     1.0000 0.10083  0.13139  0.00320  Biso   1.000  C
  H472     1.0000 0.08320  0.11620  0.01380  Biso   1.000  H
  C560     1.0000 0.12862  0.13285  0.04830  Biso   1.000  C
  H473     1.0000 0.13020  0.11820  0.08960  Biso   1.000  H
  C561     1.0000 0.15479  0.15559  0.03450  Biso   1.000  C
  C562     1.0000 0.18437  0.15436  0.08405  Biso   1.000  C
  C563     1.0000 0.26289  0.18773  0.09890  Biso   1.000  C
  C564     1.0000 0.29510  0.18497  0.13950  Biso   1.000  C
  H474     1.0000 0.29480  0.20000  0.18240  Biso   1.000  H
  H475     1.0000 0.29820  0.16180  0.15640  Biso   1.000  H
  H476     1.0000 0.31360  0.19120  0.10650  Biso   1.000  H
  C565     1.0000 0.27230  0.18828  0.87890  Biso   1.000  C
  H477     1.0000 0.28030  0.20990  0.89170  Biso   1.000  H
  C566     1.0000 0.29040  0.16860  0.82930  Biso   1.000  C
  H478     1.0000 0.31070  0.17670  0.80840  Biso   1.000  H
  C567     1.0000 0.23780  0.14622  0.89780  Biso   1.000  C
  H479     1.0000 0.21970  0.13620  0.92370  Biso   1.000  H
  C568     1.0000 0.25600  0.12583  0.85040  Biso   1.000  C
  H480     1.0000 0.25090  0.10260  0.84870  Biso   1.000  H
  C569     1.0000 0.27840  0.13661  0.81050  Biso   1.000  C
  C570     1.0000 0.29550  0.11440  0.75430  Biso   1.000  C
  H481     1.0000 0.27850  0.09920  0.73280  Biso   1.000  H
  H482     1.0000 0.31200  0.10030  0.78080  Biso   1.000  H
  Mn45     1.0000 0.27825  0.36226  0.28597  Biso   1.000  Mn
  O133     1.0000 0.25827  0.40173  0.31530  Biso   1.000  O
  O134     1.0000 0.19776  0.36484  0.13840  Biso   1.000  O
  O135     1.0000 0.29273  0.31982  0.24558  Biso   1.000  O
  N118     1.0000 0.24323  0.35487  0.21267  Biso   1.000  N
  N119     1.0000 0.24566  0.32386  0.17460  Biso   1.000  N
  N120     1.0000 0.36045  0.06190  0.54469  Biso   1.000  N
  C571     1.0000 0.23310  0.41840  0.28430  Biso   1.000  C
  C572     1.0000 0.22602  0.45054  0.31300  Biso   1.000  C
  H483     1.0000 0.23920  0.45890  0.35270  Biso   1.000  H
  C573     1.0000 0.20049  0.47010  0.28480  Biso   1.000  C
  H484     1.0000 0.19600  0.49150  0.30580  Biso   1.000  H
  C574     1.0000 0.18113  0.45853  0.22520  Biso   1.000  C
  H485     1.0000 0.16370  0.47190  0.20520  Biso   1.000  H
  C575     1.0000 0.18778  0.42787  0.19690  Biso   1.000  C
  H486     1.0000 0.17480  0.42010  0.15630  Biso   1.000  H
  C576     1.0000 0.21303  0.40726  0.22500  Biso   1.000  C
  C577     1.0000 0.21790  0.37387  0.19010  Biso   1.000  C
  C578     1.0000 0.27198  0.30782  0.19660  Biso   1.000  C
  C579     1.0000 0.27886  0.27339  0.16750  Biso   1.000  C
  H487     1.0000 0.29870  0.27400  0.13560  Biso   1.000  H
  H488     1.0000 0.25950  0.26560  0.13870  Biso   1.000  H
  H489     1.0000 0.28280  0.25810  0.20910  Biso   1.000  H
  C580     1.0000 0.33152  0.07641  0.52750  Biso   1.000  C
  H490     1.0000 0.32170  0.07140  0.48070  Biso   1.000  H
  C581     1.0000 0.31494  0.09828  0.57350  Biso   1.000  C
  H491     1.0000 0.29420  0.10780  0.55890  Biso   1.000  H
  C582     1.0000 0.37286  0.06865  0.61180  Biso   1.000  C
  H492     1.0000 0.39300  0.05780  0.62640  Biso   1.000  H
  C583     1.0000 0.35810  0.09060  0.66160  Biso   1.000  C
  H493     1.0000 0.36800  0.09470  0.70860  Biso   1.000  H
  C584     1.0000 0.32898  0.10621  0.64190  Biso   1.000  C
  C585     1.0000 0.31220  0.13060  0.69550  Biso   1.000  C
  H494     1.0000 0.29580  0.14450  0.66780  Biso   1.000  H
  H495     1.0000 0.32940  0.14590  0.71620  Biso   1.000  H
  Mn46     1.0000 0.70752  0.82400  0.58161  Biso   1.000  Mn
  O136     1.0000 0.73654  0.84674  0.51850  Biso   1.000  O
  O137     1.0000 0.72998  0.74743  0.43488  Biso   1.000  O
  O138     1.0000 0.68006  0.79381  0.64016  Biso   1.000  O
  N121     1.0000 0.71553  0.78260  0.52909  Biso   1.000  N
  N122     1.0000 0.69915  0.75395  0.55944  Biso   1.000  N
  C586     1.0000 0.75103  0.83600  0.45710  Biso   1.000  C
  C587     1.0000 0.77060  0.86017  0.41900  Biso   1.000  C
  H496     1.0000 0.77480  0.88150  0.44050  Biso   1.000  H
  C588     1.0000 0.78340  0.85207  0.34950  Biso   1.000  C
  H497     1.0000 0.79660  0.86810  0.32360  Biso   1.000  H
  C589     1.0000 0.77740  0.82091  0.31730  Biso   1.000  C
  H498     1.0000 0.78440  0.81650  0.26790  Biso   1.000  H
  C590     1.0000 0.76140  0.79691  0.35770  Biso   1.000  C
  H499     1.0000 0.75990  0.77480  0.33830  Biso   1.000  H
  C591     1.0000 0.74707  0.80391  0.42680  Biso   1.000  C
  C592     1.0000 0.73025  0.77649  0.46500  Biso   1.000  C
  C593     1.0000 0.68149  0.76299  0.61652  Biso   1.000  C
  C594     1.0000 0.66094  0.73718  0.65640  Biso   1.000  C
  H500     1.0000 0.67400  0.72780  0.69750  Biso   1.000  H
  H501     1.0000 0.64050  0.74760  0.67580  Biso   1.000  H
  H502     1.0000 0.65490  0.71920  0.62190  Biso   1.000  H
  Mn47     1.0000 0.71741  0.70849  0.49692  Biso   1.000  Mn
  O139     1.0000 0.67555  0.70001  0.45559  Biso   1.000  O
  O140     1.0000 0.68364  0.63537  0.64163  Biso   1.000  O
  O141     1.0000 0.76005  0.71052  0.54783  Biso   1.000  O
  N123     1.0000 0.71121  0.67254  0.56806  Biso   1.000  N
  N124     1.0000 0.73868  0.66711  0.61513  Biso   1.000  N
  N125     1.0000 0.74300  0.67662  0.40950  Biso   1.000  N
  C595     1.0000 0.65235  0.67732  0.47360  Biso   1.000  C
  C596     1.0000 0.62434  0.67529  0.42780  Biso   1.000  C
  H503     1.0000 0.62260  0.68970  0.38620  Biso   1.000  H
  C597     1.0000 0.59889  0.65236  0.44230  Biso   1.000  C
  H504     1.0000 0.58010  0.65110  0.41010  Biso   1.000  H
  C598     1.0000 0.60083  0.63139  0.50320  Biso   1.000  C
  H505     1.0000 0.58320  0.61620  0.51380  Biso   1.000  H
  C599     1.0000 0.62862  0.63285  0.54830  Biso   1.000  C
  H506     1.0000 0.63020  0.61820  0.58960  Biso   1.000  H
  C600     1.0000 0.65479  0.65559  0.53450  Biso   1.000  C
  C601     1.0000 0.68437  0.65436  0.58405  Biso   1.000  C
  C602     1.0000 0.76289  0.68773  0.59890  Biso   1.000  C
  C603     1.0000 0.79510  0.68497  0.63950  Biso   1.000  C
  H507     1.0000 0.79480  0.70000  0.68240  Biso   1.000  H
  H508     1.0000 0.79820  0.66180  0.65640  Biso   1.000  H
  H509     1.0000 0.81360  0.69120  0.60650  Biso   1.000  H
  C604     1.0000 0.77230  0.68828  0.37890  Biso   1.000  C
  H510     1.0000 0.78030  0.70990  0.39170  Biso   1.000  H
  C605     1.0000 0.79040  0.66860  0.32930  Biso   1.000  C
  H511     1.0000 0.81070  0.67670  0.30840  Biso   1.000  H
  C606     1.0000 0.73780  0.64622  0.39780  Biso   1.000  C
  H512     1.0000 0.71970  0.63620  0.42370  Biso   1.000  H
  C607     1.0000 0.75600  0.62583  0.35040  Biso   1.000  C
  H513     1.0000 0.75090  0.60260  0.34870  Biso   1.000  H
  C608     1.0000 0.77840  0.63661  0.31050  Biso   1.000  C
  C609     1.0000 0.79550  0.61440  0.25430  Biso   1.000  C
  H514     1.0000 0.77850  0.59920  0.23280  Biso   1.000  H
  H515     1.0000 0.81200  0.60030  0.28080  Biso   1.000  H
  Mn48     1.0000 0.77825  0.86226  0.78597  Biso   1.000  Mn
  O142     1.0000 0.75827  0.90173  0.81530  Biso   1.000  O
  O143     1.0000 0.69776  0.86484  0.63840  Biso   1.000  O
  O144     1.0000 0.79273  0.81982  0.74558  Biso   1.000  O
  N126     1.0000 0.74323  0.85487  0.71267  Biso   1.000  N
  N127     1.0000 0.74566  0.82386  0.67460  Biso   1.000  N
  N128     1.0000 0.86045  0.56190  0.04469  Biso   1.000  N
  C610     1.0000 0.73310  0.91840  0.78430  Biso   1.000  C
  C611     1.0000 0.72602  0.95054  0.81300  Biso   1.000  C
  H516     1.0000 0.73920  0.95890  0.85270  Biso   1.000  H
  C612     1.0000 0.70049  0.97010  0.78480  Biso   1.000  C
  H517     1.0000 0.69600  0.99150  0.80580  Biso   1.000  H
  C613     1.0000 0.68113  0.95853  0.72520  Biso   1.000  C
  H518     1.0000 0.66370  0.97190  0.70520  Biso   1.000  H
  C614     1.0000 0.68778  0.92787  0.69690  Biso   1.000  C
  H519     1.0000 0.67480  0.92010  0.65630  Biso   1.000  H
  C615     1.0000 0.71303  0.90726  0.72500  Biso   1.000  C
  C616     1.0000 0.71790  0.87387  0.69010  Biso   1.000  C
  C617     1.0000 0.77198  0.80782  0.69660  Biso   1.000  C
  C618     1.0000 0.77886  0.77339  0.66750  Biso   1.000  C
  H520     1.0000 0.79870  0.77400  0.63560  Biso   1.000  H
  H521     1.0000 0.75950  0.76560  0.63870  Biso   1.000  H
  H522     1.0000 0.78280  0.75810  0.70910  Biso   1.000  H
  C619     1.0000 0.83152  0.57641  0.02750  Biso   1.000  C
  H523     1.0000 0.82170  0.57140  0.98070  Biso   1.000  H
  C620     1.0000 0.81494  0.59828  0.07350  Biso   1.000  C
  H524     1.0000 0.79420  0.60780  0.05890  Biso   1.000  H
  C621     1.0000 0.87286  0.56865  0.11180  Biso   1.000  C
  H525     1.0000 0.89300  0.55780  0.12640  Biso   1.000  H
  C622     1.0000 0.85810  0.59060  0.16160  Biso   1.000  C
  H526     1.0000 0.86800  0.59470  0.20860  Biso   1.000  H
  C623     1.0000 0.82898  0.60621  0.14190  Biso   1.000  C
  C624     1.0000 0.81220  0.63060  0.19550  Biso   1.000  C
  H527     1.0000 0.79580  0.64450  0.16780  Biso   1.000  H
  H528     1.0000 0.82940  0.64590  0.21620  Biso   1.000  H
