data_image0
_cell_length_a       40.4245
_cell_length_b       40.4245
_cell_length_c       17.8143
_cell_angle_alpha    90
_cell_angle_beta     90
_cell_angle_gamma    90

_symmetry_space_group_name_H-M    "P 1"
_symmetry_int_tables_number       1

loop_
  _symmetry_equiv_pos_as_xyz
  'x, y, z'

loop_
  _atom_site_label
  _atom_site_occupancy
  _atom_site_fract_x
  _atom_site_fract_y
  _atom_site_fract_z
  _atom_site_thermal_displace_type
  _atom_site_B_iso_or_equiv
  _atom_site_type_symbol
  Mn1      1.0000 0.92602  0.54334  0.82625  Biso   1.000  Mn
  O1       1.0000 0.90473  0.51625  0.75629  Biso   1.000  O
  O2       1.0000 0.00485  0.52137  0.68616  Biso   1.000  O
  O3       1.0000 0.95477  0.56953  0.89000  Biso   1.000  O
  N1       1.0000 0.96793  0.53595  0.77644  Biso   1.000  N
  N2       1.0000 0.99541  0.55160  0.81097  Biso   1.000  N
  C1       1.0000 0.91634  0.50204  0.69680  Biso   1.000  C
  C2       1.0000 0.89387  0.48331  0.65240  Biso   1.000  C
  H1       1.0000 0.87200  0.47960  0.67020  Biso   1.000  H
  C3       1.0000 0.90332  0.47050  0.58410  Biso   1.000  C
  H2       1.0000 0.88790  0.45760  0.55660  Biso   1.000  H
  C4       1.0000 0.93420  0.47580  0.55420  Biso   1.000  C
  H3       1.0000 0.93940  0.46880  0.50470  Biso   1.000  H
  C5       1.0000 0.95798  0.49200  0.59980  Biso   1.000  C
  H4       1.0000 0.98010  0.49420  0.58260  Biso   1.000  H
  C6       1.0000 0.94917  0.50451  0.66960  Biso   1.000  C
  C7       1.0000 0.97525  0.52129  0.71230  Biso   1.000  C
  C8       1.0000 0.98600  0.56821  0.86989  Biso   1.000  C
  C9       1.0000 0.01126  0.58646  0.91510  Biso   1.000  C
  H5       1.0000 0.02490  0.59990  0.88050  Biso   1.000  H
  H6       1.0000 0.02600  0.57010  0.93930  Biso   1.000  H
  C10      1.0000 0.99777  0.60882  0.97480  Biso   1.000  C
  H7       1.0000 0.98620  0.62740  0.95120  Biso   1.000  H
  H8       1.0000 0.01600  0.61720  0.00560  Biso   1.000  H
  H9       1.0000 0.98230  0.59650  0.00650  Biso   1.000  H
  Mn2      1.0000 0.04183  0.53382  0.75312  Biso   1.000  Mn
  O4       1.0000 0.05100  0.57487  0.71146  Biso   1.000  O
  O5       1.0000 0.11528  0.56578  0.89885  Biso   1.000  O
  O6       1.0000 0.03915  0.49214  0.80561  Biso   1.000  O
  N3       1.0000 0.07689  0.53994  0.82597  Biso   1.000  N
  N4       1.0000 0.08236  0.51210  0.87243  Biso   1.000  N
  N5       1.0000 0.07450  0.50622  0.66890  Biso   1.000  N
  C11      1.0000 0.07313  0.59744  0.73050  Biso   1.000  C
  C12      1.0000 0.07517  0.62616  0.68530  Biso   1.000  C
  H10      1.0000 0.06090  0.62840  0.64320  Biso   1.000  H
  C13      1.0000 0.09740  0.65072  0.70140  Biso   1.000  C
  H11      1.0000 0.09810  0.66980  0.67030  Biso   1.000  H
  C14      1.0000 0.11887  0.64849  0.76190  Biso   1.000  C
  H12      1.0000 0.13430  0.66570  0.77200  Biso   1.000  H
  C15      1.0000 0.11743  0.62088  0.80710  Biso   1.000  C
  H13      1.0000 0.13210  0.61920  0.84860  Biso   1.000  H
  C16      1.0000 0.09470  0.59494  0.79310  Biso   1.000  C
  C17      1.0000 0.09579  0.56567  0.84226  Biso   1.000  C
  C18      1.0000 0.06186  0.48864  0.85660  Biso   1.000  C
  C19      1.0000 0.06481  0.45598  0.89480  Biso   1.000  C
  H14      1.0000 0.04700  0.45410  0.93260  Biso   1.000  H
  H15      1.0000 0.08620  0.45520  0.92190  Biso   1.000  H
  C20      1.0000 0.06290  0.42637  0.84270  Biso   1.000  C
  H16      1.0000 0.04190  0.42690  0.81530  Biso   1.000  H
  H17      1.0000 0.06430  0.40600  0.87220  Biso   1.000  H
  H18      1.0000 0.08130  0.42720  0.80690  Biso   1.000  H
  C21      1.0000 0.10454  0.51000  0.66120  Biso   1.000  C
  H19      1.0000 0.11450  0.52720  0.68970  Biso   1.000  H
  C22      1.0000 0.12548  0.49160  0.61470  Biso   1.000  C
  H20      1.0000 0.14850  0.49630  0.61450  Biso   1.000  H
  C23      1.0000 0.11463  0.46960  0.57420  Biso   1.000  C
  C24      1.0000 0.08270  0.45740  0.59390  Biso   1.000  C
  H21      1.0000 0.07490  0.43690  0.57460  Biso   1.000  H
  C25      1.0000 0.06324  0.47600  0.64130  Biso   1.000  C
  H22      1.0000 0.04200  0.46820  0.65530  Biso   1.000  H
  C26      1.0000 0.13674  0.45090  0.51960  Biso   1.000  C
  H23      1.0000 0.15520  0.46570  0.50520  Biso   1.000  H
  H24      1.0000 0.14650  0.43180  0.54660  Biso   1.000  H
  Mn3      1.0000 0.88697  0.47166  0.02845  Biso   1.000  Mn
  O7       1.0000 0.84861  0.49184  0.06021  Biso   1.000  O
  O8       1.0000 0.88522  0.55197  0.88245  Biso   1.000  O
  O9       1.0000 0.92776  0.45628  0.98463  Biso   1.000  O
  N6       1.0000 0.89430  0.50636  0.95486  Biso   1.000  N
  N7       1.0000 0.92449  0.50378  0.91515  Biso   1.000  N
  N8       1.0000 0.18937  0.39096  0.30373  Biso   1.000  N
  C27      1.0000 0.83159  0.51651  0.02820  Biso   1.000  C
  C28      1.0000 0.79992  0.52244  0.05600  Biso   1.000  C
  H25      1.0000 0.79170  0.50910  0.09580  Biso   1.000  H
  C29      1.0000 0.78013  0.54742  0.02700  Biso   1.000  C
  H26      1.0000 0.75870  0.55100  0.04700  Biso   1.000  H
  C30      1.0000 0.79161  0.56733  0.96840  Biso   1.000  C
  H27      1.0000 0.77810  0.58430  0.94810  Biso   1.000  H
  C31      1.0000 0.82283  0.56190  0.94060  Biso   1.000  C
  H28      1.0000 0.83090  0.57550  0.90120  Biso   1.000  H
  C32      1.0000 0.84322  0.53664  0.96910  Biso   1.000  C
  C33      1.0000 0.87578  0.53191  0.93390  Biso   1.000  C
  C34      1.0000 0.93972  0.47707  0.93520  Biso   1.000  C
  C35      1.0000 0.97168  0.46792  0.89800  Biso   1.000  C
  H29      1.0000 0.98180  0.48770  0.87490  Biso   1.000  H
  H30      1.0000 0.98730  0.45890  0.93560  Biso   1.000  H
  C36      1.0000 0.96430  0.44100  0.83550  Biso   1.000  C
  H31      1.0000 0.95120  0.45100  0.79510  Biso   1.000  H
  H32      1.0000 0.98520  0.43270  0.81500  Biso   1.000  H
  H33      1.0000 0.95190  0.42260  0.85770  Biso   1.000  H
  C37      1.0000 0.17195  0.41736  0.28370  Biso   1.000  C
  H34      1.0000 0.17430  0.42530  0.23380  Biso   1.000  H
  C38      1.0000 0.15062  0.43391  0.33080  Biso   1.000  C
  H35      1.0000 0.13890  0.45280  0.31380  Biso   1.000  H
  C39      1.0000 0.14667  0.42255  0.40270  Biso   1.000  C
  C40      1.0000 0.16450  0.39580  0.42380  Biso   1.000  C
  H36      1.0000 0.16220  0.38720  0.47310  Biso   1.000  H
  C41      1.0000 0.18629  0.38075  0.37410  Biso   1.000  C
  H37      1.0000 0.19930  0.36270  0.39100  Biso   1.000  H
  C42      1.0000 0.12260  0.43960  0.45650  Biso   1.000  C
  H38      1.0000 0.11210  0.45840  0.43010  Biso   1.000  H
  H39      1.0000 0.10500  0.42370  0.47020  Biso   1.000  H
  Mn4      1.0000 0.42602  0.04334  0.32625  Biso   1.000  Mn
  O10      1.0000 0.40473  0.01625  0.25629  Biso   1.000  O
  O11      1.0000 0.50485  0.02137  0.18616  Biso   1.000  O
  O12      1.0000 0.45477  0.06953  0.39000  Biso   1.000  O
  N9       1.0000 0.46793  0.03595  0.27644  Biso   1.000  N
  N10      1.0000 0.49541  0.05160  0.31097  Biso   1.000  N
  C43      1.0000 0.41634  0.00204  0.19680  Biso   1.000  C
  C44      1.0000 0.39387  0.98331  0.15240  Biso   1.000  C
  H40      1.0000 0.37200  0.97960  0.17020  Biso   1.000  H
  C45      1.0000 0.40332  0.97050  0.08410  Biso   1.000  C
  H41      1.0000 0.38790  0.95760  0.05660  Biso   1.000  H
  C46      1.0000 0.43420  0.97580  0.05420  Biso   1.000  C
  H42      1.0000 0.43940  0.96880  0.00470  Biso   1.000  H
  C47      1.0000 0.45798  0.99200  0.09980  Biso   1.000  C
  H43      1.0000 0.48010  0.99420  0.08260  Biso   1.000  H
  C48      1.0000 0.44917  0.00451  0.16960  Biso   1.000  C
  C49      1.0000 0.47525  0.02129  0.21230  Biso   1.000  C
  C50      1.0000 0.48600  0.06821  0.36989  Biso   1.000  C
  C51      1.0000 0.51126  0.08646  0.41510  Biso   1.000  C
  H44      1.0000 0.52490  0.09990  0.38050  Biso   1.000  H
  H45      1.0000 0.52600  0.07010  0.43930  Biso   1.000  H
  C52      1.0000 0.49777  0.10882  0.47480  Biso   1.000  C
  H46      1.0000 0.48620  0.12740  0.45120  Biso   1.000  H
  H47      1.0000 0.51600  0.11720  0.50560  Biso   1.000  H
  H48      1.0000 0.48230  0.09650  0.50650  Biso   1.000  H
  Mn5      1.0000 0.54183  0.03382  0.25312  Biso   1.000  Mn
  O13      1.0000 0.55100  0.07487  0.21146  Biso   1.000  O
  O14      1.0000 0.61528  0.06578  0.39885  Biso   1.000  O
  O15      1.0000 0.53915  0.99214  0.30561  Biso   1.000  O
  N11      1.0000 0.57689  0.03994  0.32597  Biso   1.000  N
  N12      1.0000 0.58236  0.01210  0.37243  Biso   1.000  N
  N13      1.0000 0.57450  0.00622  0.16890  Biso   1.000  N
  C53      1.0000 0.57313  0.09744  0.23050  Biso   1.000  C
  C54      1.0000 0.57517  0.12616  0.18530  Biso   1.000  C
  H49      1.0000 0.56090  0.12840  0.14320  Biso   1.000  H
  C55      1.0000 0.59740  0.15072  0.20140  Biso   1.000  C
  H50      1.0000 0.59810  0.16980  0.17030  Biso   1.000  H
  C56      1.0000 0.61887  0.14849  0.26190  Biso   1.000  C
  H51      1.0000 0.63430  0.16570  0.27200  Biso   1.000  H
  C57      1.0000 0.61743  0.12088  0.30710  Biso   1.000  C
  H52      1.0000 0.63210  0.11920  0.34860  Biso   1.000  H
  C58      1.0000 0.59470  0.09494  0.29310  Biso   1.000  C
  C59      1.0000 0.59579  0.06567  0.34226  Biso   1.000  C
  C60      1.0000 0.56186  0.98864  0.35660  Biso   1.000  C
  C61      1.0000 0.56481  0.95598  0.39480  Biso   1.000  C
  H53      1.0000 0.54700  0.95410  0.43260  Biso   1.000  H
  H54      1.0000 0.58620  0.95520  0.42190  Biso   1.000  H
  C62      1.0000 0.56290  0.92637  0.34270  Biso   1.000  C
  H55      1.0000 0.54190  0.92690  0.31530  Biso   1.000  H
  H56      1.0000 0.56430  0.90600  0.37220  Biso   1.000  H
  H57      1.0000 0.58130  0.92720  0.30690  Biso   1.000  H
  C63      1.0000 0.60454  0.01000  0.16120  Biso   1.000  C
  H58      1.0000 0.61450  0.02720  0.18970  Biso   1.000  H
  C64      1.0000 0.62548  0.99160  0.11470  Biso   1.000  C
  H59      1.0000 0.64850  0.99630  0.11450  Biso   1.000  H
  C65      1.0000 0.61463  0.96960  0.07420  Biso   1.000  C
  C66      1.0000 0.58270  0.95740  0.09390  Biso   1.000  C
  H60      1.0000 0.57490  0.93690  0.07460  Biso   1.000  H
  C67      1.0000 0.56324  0.97600  0.14130  Biso   1.000  C
  H61      1.0000 0.54200  0.96820  0.15530  Biso   1.000  H
  C68      1.0000 0.63674  0.95090  0.01960  Biso   1.000  C
  H62      1.0000 0.65520  0.96570  0.00520  Biso   1.000  H
  H63      1.0000 0.64650  0.93180  0.04660  Biso   1.000  H
  Mn6      1.0000 0.38697  0.97166  0.52845  Biso   1.000  Mn
  O16      1.0000 0.34861  0.99184  0.56021  Biso   1.000  O
  O17      1.0000 0.38522  0.05197  0.38245  Biso   1.000  O
  O18      1.0000 0.42776  0.95628  0.48463  Biso   1.000  O
  N14      1.0000 0.39430  0.00636  0.45486  Biso   1.000  N
  N15      1.0000 0.42449  0.00378  0.41515  Biso   1.000  N
  N16      1.0000 0.68937  0.89096  0.80373  Biso   1.000  N
  C69      1.0000 0.33159  0.01651  0.52820  Biso   1.000  C
  C70      1.0000 0.29992  0.02244  0.55600  Biso   1.000  C
  H64      1.0000 0.29170  0.00910  0.59580  Biso   1.000  H
  C71      1.0000 0.28013  0.04742  0.52700  Biso   1.000  C
  H65      1.0000 0.25870  0.05100  0.54700  Biso   1.000  H
  C72      1.0000 0.29161  0.06733  0.46840  Biso   1.000  C
  H66      1.0000 0.27810  0.08430  0.44810  Biso   1.000  H
  C73      1.0000 0.32283  0.06190  0.44060  Biso   1.000  C
  H67      1.0000 0.33090  0.07550  0.40120  Biso   1.000  H
  C74      1.0000 0.34322  0.03664  0.46910  Biso   1.000  C
  C75      1.0000 0.37578  0.03191  0.43390  Biso   1.000  C
  C76      1.0000 0.43972  0.97707  0.43520  Biso   1.000  C
  C77      1.0000 0.47168  0.96792  0.39800  Biso   1.000  C
  H68      1.0000 0.48180  0.98770  0.37490  Biso   1.000  H
  H69      1.0000 0.48730  0.95890  0.43560  Biso   1.000  H
  C78      1.0000 0.46430  0.94100  0.33550  Biso   1.000  C
  H70      1.0000 0.45120  0.95100  0.29510  Biso   1.000  H
  H71      1.0000 0.48520  0.93270  0.31500  Biso   1.000  H
  H72      1.0000 0.45190  0.92260  0.35770  Biso   1.000  H
  C79      1.0000 0.67195  0.91736  0.78370  Biso   1.000  C
  H73      1.0000 0.67430  0.92530  0.73380  Biso   1.000  H
  C80      1.0000 0.65062  0.93391  0.83080  Biso   1.000  C
  H74      1.0000 0.63890  0.95280  0.81380  Biso   1.000  H
  C81      1.0000 0.64667  0.92255  0.90270  Biso   1.000  C
  C82      1.0000 0.66450  0.89580  0.92380  Biso   1.000  C
  H75      1.0000 0.66220  0.88720  0.97310  Biso   1.000  H
  C83      1.0000 0.68629  0.88075  0.87410  Biso   1.000  C
  H76      1.0000 0.69930  0.86270  0.89100  Biso   1.000  H
  C84      1.0000 0.62260  0.93960  0.95650  Biso   1.000  C
  H77      1.0000 0.61210  0.95840  0.93010  Biso   1.000  H
  H78      1.0000 0.60500  0.92370  0.97020  Biso   1.000  H
  Mn7      1.0000 0.57398  0.45666  0.32625  Biso   1.000  Mn
  O19      1.0000 0.59527  0.48375  0.25629  Biso   1.000  O
  O20      1.0000 0.49515  0.47863  0.18616  Biso   1.000  O
  O21      1.0000 0.54523  0.43047  0.39000  Biso   1.000  O
  N17      1.0000 0.53207  0.46405  0.27644  Biso   1.000  N
  N18      1.0000 0.50459  0.44840  0.31097  Biso   1.000  N
  C85      1.0000 0.58366  0.49796  0.19680  Biso   1.000  C
  C86      1.0000 0.60613  0.51669  0.15240  Biso   1.000  C
  H79      1.0000 0.62800  0.52040  0.17020  Biso   1.000  H
  C87      1.0000 0.59668  0.52950  0.08410  Biso   1.000  C
  H80      1.0000 0.61210  0.54240  0.05660  Biso   1.000  H
  C88      1.0000 0.56580  0.52420  0.05420  Biso   1.000  C
  H81      1.0000 0.56060  0.53120  0.00470  Biso   1.000  H
  C89      1.0000 0.54202  0.50800  0.09980  Biso   1.000  C
  H82      1.0000 0.51990  0.50580  0.08260  Biso   1.000  H
  C90      1.0000 0.55083  0.49549  0.16960  Biso   1.000  C
  C91      1.0000 0.52475  0.47871  0.21230  Biso   1.000  C
  C92      1.0000 0.51400  0.43179  0.36989  Biso   1.000  C
  C93      1.0000 0.48874  0.41354  0.41510  Biso   1.000  C
  H83      1.0000 0.47510  0.40010  0.38050  Biso   1.000  H
  H84      1.0000 0.47400  0.42990  0.43930  Biso   1.000  H
  C94      1.0000 0.50223  0.39118  0.47480  Biso   1.000  C
  H85      1.0000 0.51380  0.37260  0.45120  Biso   1.000  H
  H86      1.0000 0.48400  0.38280  0.50560  Biso   1.000  H
  H87      1.0000 0.51770  0.40350  0.50650  Biso   1.000  H
  Mn8      1.0000 0.45817  0.46618  0.25312  Biso   1.000  Mn
  O22      1.0000 0.44900  0.42513  0.21146  Biso   1.000  O
  O23      1.0000 0.38472  0.43422  0.39885  Biso   1.000  O
  O24      1.0000 0.46085  0.50786  0.30561  Biso   1.000  O
  N19      1.0000 0.42311  0.46006  0.32597  Biso   1.000  N
  N20      1.0000 0.41764  0.48790  0.37243  Biso   1.000  N
  N21      1.0000 0.42550  0.49378  0.16890  Biso   1.000  N
  C95      1.0000 0.42687  0.40256  0.23050  Biso   1.000  C
  C96      1.0000 0.42483  0.37384  0.18530  Biso   1.000  C
  H88      1.0000 0.43910  0.37160  0.14320  Biso   1.000  H
  C97      1.0000 0.40260  0.34928  0.20140  Biso   1.000  C
  H89      1.0000 0.40190  0.33020  0.17030  Biso   1.000  H
  C98      1.0000 0.38113  0.35151  0.26190  Biso   1.000  C
  H90      1.0000 0.36570  0.33430  0.27200  Biso   1.000  H
  C99      1.0000 0.38257  0.37912  0.30710  Biso   1.000  C
  H91      1.0000 0.36790  0.38080  0.34860  Biso   1.000  H
  C100     1.0000 0.40530  0.40506  0.29310  Biso   1.000  C
  C101     1.0000 0.40421  0.43433  0.34226  Biso   1.000  C
  C102     1.0000 0.43814  0.51136  0.35660  Biso   1.000  C
  C103     1.0000 0.43519  0.54402  0.39480  Biso   1.000  C
  H92      1.0000 0.45300  0.54590  0.43260  Biso   1.000  H
  H93      1.0000 0.41380  0.54480  0.42190  Biso   1.000  H
  C104     1.0000 0.43710  0.57363  0.34270  Biso   1.000  C
  H94      1.0000 0.45810  0.57310  0.31530  Biso   1.000  H
  H95      1.0000 0.43570  0.59400  0.37220  Biso   1.000  H
  H96      1.0000 0.41870  0.57280  0.30690  Biso   1.000  H
  C105     1.0000 0.39546  0.49000  0.16120  Biso   1.000  C
  H97      1.0000 0.38550  0.47280  0.18970  Biso   1.000  H
  C106     1.0000 0.37452  0.50840  0.11470  Biso   1.000  C
  H98      1.0000 0.35150  0.50370  0.11450  Biso   1.000  H
  C107     1.0000 0.38537  0.53040  0.07420  Biso   1.000  C
  C108     1.0000 0.41730  0.54260  0.09390  Biso   1.000  C
  H99      1.0000 0.42510  0.56310  0.07460  Biso   1.000  H
  C109     1.0000 0.43676  0.52400  0.14130  Biso   1.000  C
  H100     1.0000 0.45800  0.53180  0.15530  Biso   1.000  H
  C110     1.0000 0.36326  0.54910  0.01960  Biso   1.000  C
  H101     1.0000 0.34480  0.53430  0.00520  Biso   1.000  H
  H102     1.0000 0.35350  0.56820  0.04660  Biso   1.000  H
  Mn9      1.0000 0.61303  0.52834  0.52845  Biso   1.000  Mn
  O25      1.0000 0.65139  0.50816  0.56021  Biso   1.000  O
  O26      1.0000 0.61478  0.44803  0.38245  Biso   1.000  O
  O27      1.0000 0.57224  0.54372  0.48463  Biso   1.000  O
  N22      1.0000 0.60570  0.49364  0.45486  Biso   1.000  N
  N23      1.0000 0.57551  0.49622  0.41515  Biso   1.000  N
  N24      1.0000 0.31063  0.60904  0.80373  Biso   1.000  N
  C111     1.0000 0.66841  0.48349  0.52820  Biso   1.000  C
  C112     1.0000 0.70008  0.47756  0.55600  Biso   1.000  C
  H103     1.0000 0.70830  0.49090  0.59580  Biso   1.000  H
  C113     1.0000 0.71987  0.45258  0.52700  Biso   1.000  C
  H104     1.0000 0.74130  0.44900  0.54700  Biso   1.000  H
  C114     1.0000 0.70839  0.43267  0.46840  Biso   1.000  C
  H105     1.0000 0.72190  0.41570  0.44810  Biso   1.000  H
  C115     1.0000 0.67717  0.43810  0.44060  Biso   1.000  C
  H106     1.0000 0.66910  0.42450  0.40120  Biso   1.000  H
  C116     1.0000 0.65678  0.46336  0.46910  Biso   1.000  C
  C117     1.0000 0.62422  0.46809  0.43390  Biso   1.000  C
  C118     1.0000 0.56028  0.52293  0.43520  Biso   1.000  C
  C119     1.0000 0.52832  0.53208  0.39800  Biso   1.000  C
  H107     1.0000 0.51820  0.51230  0.37490  Biso   1.000  H
  H108     1.0000 0.51270  0.54110  0.43560  Biso   1.000  H
  C120     1.0000 0.53570  0.55900  0.33550  Biso   1.000  C
  H109     1.0000 0.54880  0.54900  0.29510  Biso   1.000  H
  H110     1.0000 0.51480  0.56730  0.31500  Biso   1.000  H
  H111     1.0000 0.54810  0.57740  0.35770  Biso   1.000  H
  C121     1.0000 0.32805  0.58264  0.78370  Biso   1.000  C
  H112     1.0000 0.32570  0.57470  0.73380  Biso   1.000  H
  C122     1.0000 0.34938  0.56609  0.83080  Biso   1.000  C
  H113     1.0000 0.36110  0.54720  0.81380  Biso   1.000  H
  C123     1.0000 0.35333  0.57745  0.90270  Biso   1.000  C
  C124     1.0000 0.33550  0.60420  0.92380  Biso   1.000  C
  H114     1.0000 0.33780  0.61280  0.97310  Biso   1.000  H
  C125     1.0000 0.31371  0.61925  0.87410  Biso   1.000  C
  H115     1.0000 0.30070  0.63730  0.89100  Biso   1.000  H
  C126     1.0000 0.37740  0.56040  0.95650  Biso   1.000  C
  H116     1.0000 0.38790  0.54160  0.93010  Biso   1.000  H
  H117     1.0000 0.39500  0.57630  0.97020  Biso   1.000  H
  Mn10     1.0000 0.07398  0.95666  0.82625  Biso   1.000  Mn
  O28      1.0000 0.09527  0.98375  0.75629  Biso   1.000  O
  O29      1.0000 0.99515  0.97863  0.68616  Biso   1.000  O
  O30      1.0000 0.04523  0.93047  0.89000  Biso   1.000  O
  N25      1.0000 0.03207  0.96405  0.77644  Biso   1.000  N
  N26      1.0000 0.00459  0.94840  0.81097  Biso   1.000  N
  C127     1.0000 0.08366  0.99796  0.69680  Biso   1.000  C
  C128     1.0000 0.10613  0.01669  0.65240  Biso   1.000  C
  H118     1.0000 0.12800  0.02040  0.67020  Biso   1.000  H
  C129     1.0000 0.09668  0.02950  0.58410  Biso   1.000  C
  H119     1.0000 0.11210  0.04240  0.55660  Biso   1.000  H
  C130     1.0000 0.06580  0.02420  0.55420  Biso   1.000  C
  H120     1.0000 0.06060  0.03120  0.50470  Biso   1.000  H
  C131     1.0000 0.04202  0.00800  0.59980  Biso   1.000  C
  H121     1.0000 0.01990  0.00580  0.58260  Biso   1.000  H
  C132     1.0000 0.05083  0.99549  0.66960  Biso   1.000  C
  C133     1.0000 0.02475  0.97871  0.71230  Biso   1.000  C
  C134     1.0000 0.01400  0.93179  0.86989  Biso   1.000  C
  C135     1.0000 0.98874  0.91354  0.91510  Biso   1.000  C
  H122     1.0000 0.97510  0.90010  0.88050  Biso   1.000  H
  H123     1.0000 0.97400  0.92990  0.93930  Biso   1.000  H
  C136     1.0000 0.00223  0.89118  0.97480  Biso   1.000  C
  H124     1.0000 0.01380  0.87260  0.95120  Biso   1.000  H
  H125     1.0000 0.98400  0.88280  0.00560  Biso   1.000  H
  H126     1.0000 0.01770  0.90350  0.00650  Biso   1.000  H
  Mn11     1.0000 0.95817  0.96618  0.75312  Biso   1.000  Mn
  O31      1.0000 0.94900  0.92513  0.71146  Biso   1.000  O
  O32      1.0000 0.88472  0.93422  0.89885  Biso   1.000  O
  O33      1.0000 0.96085  0.00786  0.80561  Biso   1.000  O
  N27      1.0000 0.92311  0.96006  0.82597  Biso   1.000  N
  N28      1.0000 0.91764  0.98790  0.87243  Biso   1.000  N
  N29      1.0000 0.92550  0.99378  0.66890  Biso   1.000  N
  C137     1.0000 0.92687  0.90256  0.73050  Biso   1.000  C
  C138     1.0000 0.92483  0.87384  0.68530  Biso   1.000  C
  H127     1.0000 0.93910  0.87160  0.64320  Biso   1.000  H
  C139     1.0000 0.90260  0.84928  0.70140  Biso   1.000  C
  H128     1.0000 0.90190  0.83020  0.67030  Biso   1.000  H
  C140     1.0000 0.88113  0.85151  0.76190  Biso   1.000  C
  H129     1.0000 0.86570  0.83430  0.77200  Biso   1.000  H
  C141     1.0000 0.88257  0.87912  0.80710  Biso   1.000  C
  H130     1.0000 0.86790  0.88080  0.84860  Biso   1.000  H
  C142     1.0000 0.90530  0.90506  0.79310  Biso   1.000  C
  C143     1.0000 0.90421  0.93433  0.84226  Biso   1.000  C
  C144     1.0000 0.93814  0.01136  0.85660  Biso   1.000  C
  C145     1.0000 0.93519  0.04402  0.89480  Biso   1.000  C
  H131     1.0000 0.95300  0.04590  0.93260  Biso   1.000  H
  H132     1.0000 0.91380  0.04480  0.92190  Biso   1.000  H
  C146     1.0000 0.93710  0.07363  0.84270  Biso   1.000  C
  H133     1.0000 0.95810  0.07310  0.81530  Biso   1.000  H
  H134     1.0000 0.93570  0.09400  0.87220  Biso   1.000  H
  H135     1.0000 0.91870  0.07280  0.80690  Biso   1.000  H
  C147     1.0000 0.89546  0.99000  0.66120  Biso   1.000  C
  H136     1.0000 0.88550  0.97280  0.68970  Biso   1.000  H
  C148     1.0000 0.87452  0.00840  0.61470  Biso   1.000  C
  H137     1.0000 0.85150  0.00370  0.61450  Biso   1.000  H
  C149     1.0000 0.88537  0.03040  0.57420  Biso   1.000  C
  C150     1.0000 0.91730  0.04260  0.59390  Biso   1.000  C
  H138     1.0000 0.92510  0.06310  0.57460  Biso   1.000  H
  C151     1.0000 0.93676  0.02400  0.64130  Biso   1.000  C
  H139     1.0000 0.95800  0.03180  0.65530  Biso   1.000  H
  C152     1.0000 0.86326  0.04910  0.51960  Biso   1.000  C
  H140     1.0000 0.84480  0.03430  0.50520  Biso   1.000  H
  H141     1.0000 0.85350  0.06820  0.54660  Biso   1.000  H
  Mn12     1.0000 0.11303  0.02834  0.02845  Biso   1.000  Mn
  O34      1.0000 0.15139  0.00816  0.06021  Biso   1.000  O
  O35      1.0000 0.11478  0.94803  0.88245  Biso   1.000  O
  O36      1.0000 0.07224  0.04372  0.98463  Biso   1.000  O
  N30      1.0000 0.10570  0.99364  0.95486  Biso   1.000  N
  N31      1.0000 0.07551  0.99622  0.91515  Biso   1.000  N
  N32      1.0000 0.81063  0.10904  0.30373  Biso   1.000  N
  C153     1.0000 0.16841  0.98349  0.02820  Biso   1.000  C
  C154     1.0000 0.20008  0.97756  0.05600  Biso   1.000  C
  H142     1.0000 0.20830  0.99090  0.09580  Biso   1.000  H
  C155     1.0000 0.21987  0.95258  0.02700  Biso   1.000  C
  H143     1.0000 0.24130  0.94900  0.04700  Biso   1.000  H
  C156     1.0000 0.20839  0.93267  0.96840  Biso   1.000  C
  H144     1.0000 0.22190  0.91570  0.94810  Biso   1.000  H
  C157     1.0000 0.17717  0.93810  0.94060  Biso   1.000  C
  H145     1.0000 0.16910  0.92450  0.90120  Biso   1.000  H
  C158     1.0000 0.15678  0.96336  0.96910  Biso   1.000  C
  C159     1.0000 0.12422  0.96809  0.93390  Biso   1.000  C
  C160     1.0000 0.06028  0.02293  0.93520  Biso   1.000  C
  C161     1.0000 0.02832  0.03208  0.89800  Biso   1.000  C
  H146     1.0000 0.01820  0.01230  0.87490  Biso   1.000  H
  H147     1.0000 0.01270  0.04110  0.93560  Biso   1.000  H
  C162     1.0000 0.03570  0.05900  0.83550  Biso   1.000  C
  H148     1.0000 0.04880  0.04900  0.79510  Biso   1.000  H
  H149     1.0000 0.01480  0.06730  0.81500  Biso   1.000  H
  H150     1.0000 0.04810  0.07740  0.85770  Biso   1.000  H
  C163     1.0000 0.82805  0.08264  0.28370  Biso   1.000  C
  H151     1.0000 0.82570  0.07470  0.23380  Biso   1.000  H
  C164     1.0000 0.84938  0.06609  0.33080  Biso   1.000  C
  H152     1.0000 0.86110  0.04720  0.31380  Biso   1.000  H
  C165     1.0000 0.85333  0.07745  0.40270  Biso   1.000  C
  C166     1.0000 0.83550  0.10420  0.42380  Biso   1.000  C
  H153     1.0000 0.83780  0.11280  0.47310  Biso   1.000  H
  C167     1.0000 0.81371  0.11925  0.37410  Biso   1.000  C
  H154     1.0000 0.80070  0.13730  0.39100  Biso   1.000  H
  C168     1.0000 0.87740  0.06040  0.45650  Biso   1.000  C
  H155     1.0000 0.88790  0.04160  0.43010  Biso   1.000  H
  H156     1.0000 0.89500  0.07630  0.47020  Biso   1.000  H
  Mn13     1.0000 0.20666  0.17602  0.07625  Biso   1.000  Mn
  O37      1.0000 0.23375  0.15473  0.00629  Biso   1.000  O
  O38      1.0000 0.22863  0.25485  0.93616  Biso   1.000  O
  O39      1.0000 0.18047  0.20477  0.14000  Biso   1.000  O
  N33      1.0000 0.21405  0.21793  0.02644  Biso   1.000  N
  N34      1.0000 0.19840  0.24541  0.06097  Biso   1.000  N
  C169     1.0000 0.24796  0.16634  0.94680  Biso   1.000  C
  C170     1.0000 0.26669  0.14387  0.90240  Biso   1.000  C
  H157     1.0000 0.27040  0.12200  0.92020  Biso   1.000  H
  C171     1.0000 0.27950  0.15332  0.83410  Biso   1.000  C
  H158     1.0000 0.29240  0.13790  0.80660  Biso   1.000  H
  C172     1.0000 0.27420  0.18420  0.80420  Biso   1.000  C
  H159     1.0000 0.28120  0.18940  0.75470  Biso   1.000  H
  C173     1.0000 0.25800  0.20798  0.84980  Biso   1.000  C
  H160     1.0000 0.25580  0.23010  0.83260  Biso   1.000  H
  C174     1.0000 0.24549  0.19917  0.91960  Biso   1.000  C
  C175     1.0000 0.22871  0.22525  0.96230  Biso   1.000  C
  C176     1.0000 0.18179  0.23600  0.11989  Biso   1.000  C
  C177     1.0000 0.16354  0.26126  0.16510  Biso   1.000  C
  H161     1.0000 0.15010  0.27490  0.13050  Biso   1.000  H
  H162     1.0000 0.17990  0.27600  0.18930  Biso   1.000  H
  C178     1.0000 0.14118  0.24777  0.22480  Biso   1.000  C
  H163     1.0000 0.12260  0.23620  0.20120  Biso   1.000  H
  H164     1.0000 0.13280  0.26600  0.25560  Biso   1.000  H
  H165     1.0000 0.15350  0.23230  0.25650  Biso   1.000  H
  Mn14     1.0000 0.21618  0.29183  0.00312  Biso   1.000  Mn
  O40      1.0000 0.17513  0.30100  0.96146  Biso   1.000  O
  O41      1.0000 0.18422  0.36528  0.14885  Biso   1.000  O
  O42      1.0000 0.25786  0.28915  0.05561  Biso   1.000  O
  N35      1.0000 0.21006  0.32689  0.07597  Biso   1.000  N
  N36      1.0000 0.23790  0.33236  0.12243  Biso   1.000  N
  N37      1.0000 0.24378  0.32450  0.91890  Biso   1.000  N
  C179     1.0000 0.15256  0.32313  0.98050  Biso   1.000  C
  C180     1.0000 0.12384  0.32517  0.93530  Biso   1.000  C
  H166     1.0000 0.12160  0.31090  0.89320  Biso   1.000  H
  C181     1.0000 0.09928  0.34740  0.95140  Biso   1.000  C
  H167     1.0000 0.08020  0.34810  0.92030  Biso   1.000  H
  C182     1.0000 0.10151  0.36887  0.01190  Biso   1.000  C
  H168     1.0000 0.08430  0.38430  0.02200  Biso   1.000  H
  C183     1.0000 0.12912  0.36743  0.05710  Biso   1.000  C
  H169     1.0000 0.13080  0.38210  0.09860  Biso   1.000  H
  C184     1.0000 0.15506  0.34470  0.04310  Biso   1.000  C
  C185     1.0000 0.18433  0.34579  0.09226  Biso   1.000  C
  C186     1.0000 0.26136  0.31186  0.10660  Biso   1.000  C
  C187     1.0000 0.29402  0.31481  0.14480  Biso   1.000  C
  H170     1.0000 0.29590  0.29700  0.18260  Biso   1.000  H
  H171     1.0000 0.29480  0.33620  0.17190  Biso   1.000  H
  C188     1.0000 0.32363  0.31290  0.09270  Biso   1.000  C
  H172     1.0000 0.32310  0.29190  0.06530  Biso   1.000  H
  H173     1.0000 0.34400  0.31430  0.12220  Biso   1.000  H
  H174     1.0000 0.32280  0.33130  0.05690  Biso   1.000  H
  C189     1.0000 0.24000  0.35454  0.91120  Biso   1.000  C
  H175     1.0000 0.22280  0.36450  0.93970  Biso   1.000  H
  C190     1.0000 0.25840  0.37548  0.86470  Biso   1.000  C
  H176     1.0000 0.25370  0.39850  0.86450  Biso   1.000  H
  C191     1.0000 0.28040  0.36463  0.82420  Biso   1.000  C
  C192     1.0000 0.29260  0.33270  0.84390  Biso   1.000  C
  H177     1.0000 0.31310  0.32490  0.82460  Biso   1.000  H
  C193     1.0000 0.27400  0.31324  0.89130  Biso   1.000  C
  H178     1.0000 0.28180  0.29200  0.90530  Biso   1.000  H
  C194     1.0000 0.29910  0.38674  0.76960  Biso   1.000  C
  H179     1.0000 0.28430  0.40520  0.75520  Biso   1.000  H
  H180     1.0000 0.31820  0.39650  0.79660  Biso   1.000  H
  Mn15     1.0000 0.27834  0.13697  0.27845  Biso   1.000  Mn
  O43      1.0000 0.25816  0.09861  0.31021  Biso   1.000  O
  O44      1.0000 0.19803  0.13522  0.13245  Biso   1.000  O
  O45      1.0000 0.29372  0.17776  0.23463  Biso   1.000  O
  N38      1.0000 0.24364  0.14430  0.20486  Biso   1.000  N
  N39      1.0000 0.24622  0.17449  0.16515  Biso   1.000  N
  N40      1.0000 0.35904  0.43937  0.55373  Biso   1.000  N
  C195     1.0000 0.23349  0.08159  0.27820  Biso   1.000  C
  C196     1.0000 0.22756  0.04992  0.30600  Biso   1.000  C
  H181     1.0000 0.24090  0.04170  0.34580  Biso   1.000  H
  C197     1.0000 0.20258  0.03013  0.27700  Biso   1.000  C
  H182     1.0000 0.19900  0.00870  0.29700  Biso   1.000  H
  C198     1.0000 0.18267  0.04161  0.21840  Biso   1.000  C
  H183     1.0000 0.16570  0.02810  0.19810  Biso   1.000  H
  C199     1.0000 0.18810  0.07283  0.19060  Biso   1.000  C
  H184     1.0000 0.17450  0.08090  0.15120  Biso   1.000  H
  C200     1.0000 0.21336  0.09322  0.21910  Biso   1.000  C
  C201     1.0000 0.21809  0.12578  0.18390  Biso   1.000  C
  C202     1.0000 0.27293  0.18972  0.18520  Biso   1.000  C
  C203     1.0000 0.28208  0.22168  0.14800  Biso   1.000  C
  H185     1.0000 0.26230  0.23180  0.12490  Biso   1.000  H
  H186     1.0000 0.29110  0.23730  0.18560  Biso   1.000  H
  C204     1.0000 0.30900  0.21430  0.08550  Biso   1.000  C
  H187     1.0000 0.29900  0.20120  0.04510  Biso   1.000  H
  H188     1.0000 0.31730  0.23520  0.06500  Biso   1.000  H
  H189     1.0000 0.32740  0.20190  0.10770  Biso   1.000  H
  C205     1.0000 0.33264  0.42195  0.53370  Biso   1.000  C
  H190     1.0000 0.32470  0.42430  0.48380  Biso   1.000  H
  C206     1.0000 0.31609  0.40062  0.58080  Biso   1.000  C
  H191     1.0000 0.29720  0.38890  0.56380  Biso   1.000  H
  C207     1.0000 0.32745  0.39667  0.65270  Biso   1.000  C
  C208     1.0000 0.35420  0.41450  0.67380  Biso   1.000  C
  H192     1.0000 0.36280  0.41220  0.72310  Biso   1.000  H
  C209     1.0000 0.36925  0.43629  0.62410  Biso   1.000  C
  H193     1.0000 0.38730  0.44930  0.64100  Biso   1.000  H
  C210     1.0000 0.31040  0.37260  0.70650  Biso   1.000  C
  H194     1.0000 0.29160  0.36210  0.68010  Biso   1.000  H
  H195     1.0000 0.32630  0.35500  0.72020  Biso   1.000  H
  Mn16     1.0000 0.70666  0.67602  0.57625  Biso   1.000  Mn
  O46      1.0000 0.73375  0.65473  0.50629  Biso   1.000  O
  O47      1.0000 0.72863  0.75485  0.43616  Biso   1.000  O
  O48      1.0000 0.68047  0.70477  0.64000  Biso   1.000  O
  N41      1.0000 0.71405  0.71793  0.52644  Biso   1.000  N
  N42      1.0000 0.69840  0.74541  0.56097  Biso   1.000  N
  C211     1.0000 0.74796  0.66634  0.44680  Biso   1.000  C
  C212     1.0000 0.76669  0.64387  0.40240  Biso   1.000  C
  H196     1.0000 0.77040  0.62200  0.42020  Biso   1.000  H
  C213     1.0000 0.77950  0.65332  0.33410  Biso   1.000  C
  H197     1.0000 0.79240  0.63790  0.30660  Biso   1.000  H
  C214     1.0000 0.77420  0.68420  0.30420  Biso   1.000  C
  H198     1.0000 0.78120  0.68940  0.25470  Biso   1.000  H
  C215     1.0000 0.75800  0.70798  0.34980  Biso   1.000  C
  H199     1.0000 0.75580  0.73010  0.33260  Biso   1.000  H
  C216     1.0000 0.74549  0.69917  0.41960  Biso   1.000  C
  C217     1.0000 0.72871  0.72525  0.46230  Biso   1.000  C
  C218     1.0000 0.68179  0.73600  0.61989  Biso   1.000  C
  C219     1.0000 0.66354  0.76126  0.66510  Biso   1.000  C
  H200     1.0000 0.65010  0.77490  0.63050  Biso   1.000  H
  H201     1.0000 0.67990  0.77600  0.68930  Biso   1.000  H
  C220     1.0000 0.64118  0.74777  0.72480  Biso   1.000  C
  H202     1.0000 0.62260  0.73620  0.70120  Biso   1.000  H
  H203     1.0000 0.63280  0.76600  0.75560  Biso   1.000  H
  H204     1.0000 0.65350  0.73230  0.75650  Biso   1.000  H
  Mn17     1.0000 0.71618  0.79183  0.50312  Biso   1.000  Mn
  O49      1.0000 0.67513  0.80100  0.46146  Biso   1.000  O
  O50      1.0000 0.68422  0.86528  0.64885  Biso   1.000  O
  O51      1.0000 0.75786  0.78915  0.55561  Biso   1.000  O
  N43      1.0000 0.71006  0.82689  0.57597  Biso   1.000  N
  N44      1.0000 0.73790  0.83236  0.62243  Biso   1.000  N
  N45      1.0000 0.74378  0.82450  0.41890  Biso   1.000  N
  C221     1.0000 0.65256  0.82313  0.48050  Biso   1.000  C
  C222     1.0000 0.62384  0.82517  0.43530  Biso   1.000  C
  H205     1.0000 0.62160  0.81090  0.39320  Biso   1.000  H
  C223     1.0000 0.59928  0.84740  0.45140  Biso   1.000  C
  H206     1.0000 0.58020  0.84810  0.42030  Biso   1.000  H
  C224     1.0000 0.60151  0.86887  0.51190  Biso   1.000  C
  H207     1.0000 0.58430  0.88430  0.52200  Biso   1.000  H
  C225     1.0000 0.62912  0.86743  0.55710  Biso   1.000  C
  H208     1.0000 0.63080  0.88210  0.59860  Biso   1.000  H
  C226     1.0000 0.65506  0.84470  0.54310  Biso   1.000  C
  C227     1.0000 0.68433  0.84579  0.59226  Biso   1.000  C
  C228     1.0000 0.76136  0.81186  0.60660  Biso   1.000  C
  C229     1.0000 0.79402  0.81481  0.64480  Biso   1.000  C
  H209     1.0000 0.79590  0.79700  0.68260  Biso   1.000  H
  H210     1.0000 0.79480  0.83620  0.67190  Biso   1.000  H
  C230     1.0000 0.82363  0.81290  0.59270  Biso   1.000  C
  H211     1.0000 0.82310  0.79190  0.56530  Biso   1.000  H
  H212     1.0000 0.84400  0.81430  0.62220  Biso   1.000  H
  H213     1.0000 0.82280  0.83130  0.55690  Biso   1.000  H
  C231     1.0000 0.74000  0.85454  0.41120  Biso   1.000  C
  H214     1.0000 0.72280  0.86450  0.43970  Biso   1.000  H
  C232     1.0000 0.75840  0.87548  0.36470  Biso   1.000  C
  H215     1.0000 0.75370  0.89850  0.36450  Biso   1.000  H
  C233     1.0000 0.78040  0.86463  0.32420  Biso   1.000  C
  C234     1.0000 0.79260  0.83270  0.34390  Biso   1.000  C
  H216     1.0000 0.81310  0.82490  0.32460  Biso   1.000  H
  C235     1.0000 0.77400  0.81324  0.39130  Biso   1.000  C
  H217     1.0000 0.78180  0.79200  0.40530  Biso   1.000  H
  C236     1.0000 0.79910  0.88674  0.26960  Biso   1.000  C
  H218     1.0000 0.78430  0.90520  0.25520  Biso   1.000  H
  H219     1.0000 0.81820  0.89650  0.29660  Biso   1.000  H
  Mn18     1.0000 0.77834  0.63697  0.77845  Biso   1.000  Mn
  O52      1.0000 0.75816  0.59861  0.81021  Biso   1.000  O
  O53      1.0000 0.69803  0.63522  0.63245  Biso   1.000  O
  O54      1.0000 0.79372  0.67776  0.73463  Biso   1.000  O
  N46      1.0000 0.74364  0.64430  0.70486  Biso   1.000  N
  N47      1.0000 0.74622  0.67449  0.66515  Biso   1.000  N
  N48      1.0000 0.85904  0.93937  0.05373  Biso   1.000  N
  C237     1.0000 0.73349  0.58159  0.77820  Biso   1.000  C
  C238     1.0000 0.72756  0.54992  0.80600  Biso   1.000  C
  H220     1.0000 0.74090  0.54170  0.84580  Biso   1.000  H
  C239     1.0000 0.70258  0.53013  0.77700  Biso   1.000  C
  H221     1.0000 0.69900  0.50870  0.79700  Biso   1.000  H
  C240     1.0000 0.68267  0.54161  0.71840  Biso   1.000  C
  H222     1.0000 0.66570  0.52810  0.69810  Biso   1.000  H
  C241     1.0000 0.68810  0.57283  0.69060  Biso   1.000  C
  H223     1.0000 0.67450  0.58090  0.65120  Biso   1.000  H
  C242     1.0000 0.71336  0.59322  0.71910  Biso   1.000  C
  C243     1.0000 0.71809  0.62578  0.68390  Biso   1.000  C
  C244     1.0000 0.77293  0.68972  0.68520  Biso   1.000  C
  C245     1.0000 0.78208  0.72168  0.64800  Biso   1.000  C
  H224     1.0000 0.76230  0.73180  0.62490  Biso   1.000  H
  H225     1.0000 0.79110  0.73730  0.68560  Biso   1.000  H
  C246     1.0000 0.80900  0.71430  0.58550  Biso   1.000  C
  H226     1.0000 0.79900  0.70120  0.54510  Biso   1.000  H
  H227     1.0000 0.81730  0.73520  0.56500  Biso   1.000  H
  H228     1.0000 0.82740  0.70190  0.60770  Biso   1.000  H
  C247     1.0000 0.83264  0.92195  0.03370  Biso   1.000  C
  H229     1.0000 0.82470  0.92430  0.98380  Biso   1.000  H
  C248     1.0000 0.81609  0.90062  0.08080  Biso   1.000  C
  H230     1.0000 0.79720  0.88890  0.06380  Biso   1.000  H
  C249     1.0000 0.82745  0.89667  0.15270  Biso   1.000  C
  C250     1.0000 0.85420  0.91450  0.17380  Biso   1.000  C
  H231     1.0000 0.86280  0.91220  0.22310  Biso   1.000  H
  C251     1.0000 0.86925  0.93629  0.12410  Biso   1.000  C
  H232     1.0000 0.88730  0.94930  0.14100  Biso   1.000  H
  C252     1.0000 0.81040  0.87260  0.20650  Biso   1.000  C
  H233     1.0000 0.79160  0.86210  0.18010  Biso   1.000  H
  H234     1.0000 0.82630  0.85500  0.22020  Biso   1.000  H
  Mn19     1.0000 0.29334  0.82398  0.57625  Biso   1.000  Mn
  O55      1.0000 0.26625  0.84527  0.50629  Biso   1.000  O
  O56      1.0000 0.27137  0.74515  0.43616  Biso   1.000  O
  O57      1.0000 0.31953  0.79523  0.64000  Biso   1.000  O
  N49      1.0000 0.28595  0.78207  0.52644  Biso   1.000  N
  N50      1.0000 0.30160  0.75459  0.56097  Biso   1.000  N
  C253     1.0000 0.25204  0.83366  0.44680  Biso   1.000  C
  C254     1.0000 0.23331  0.85613  0.40240  Biso   1.000  C
  H235     1.0000 0.22960  0.87800  0.42020  Biso   1.000  H
  C255     1.0000 0.22050  0.84668  0.33410  Biso   1.000  C
  H236     1.0000 0.20760  0.86210  0.30660  Biso   1.000  H
  C256     1.0000 0.22580  0.81580  0.30420  Biso   1.000  C
  H237     1.0000 0.21880  0.81060  0.25470  Biso   1.000  H
  C257     1.0000 0.24200  0.79202  0.34980  Biso   1.000  C
  H238     1.0000 0.24420  0.76990  0.33260  Biso   1.000  H
  C258     1.0000 0.25451  0.80083  0.41960  Biso   1.000  C
  C259     1.0000 0.27129  0.77475  0.46230  Biso   1.000  C
  C260     1.0000 0.31821  0.76400  0.61989  Biso   1.000  C
  C261     1.0000 0.33646  0.73874  0.66510  Biso   1.000  C
  H239     1.0000 0.34990  0.72510  0.63050  Biso   1.000  H
  H240     1.0000 0.32010  0.72400  0.68930  Biso   1.000  H
  C262     1.0000 0.35882  0.75223  0.72480  Biso   1.000  C
  H241     1.0000 0.37740  0.76380  0.70120  Biso   1.000  H
  H242     1.0000 0.36720  0.73400  0.75560  Biso   1.000  H
  H243     1.0000 0.34650  0.76770  0.75650  Biso   1.000  H
  Mn20     1.0000 0.28382  0.70817  0.50312  Biso   1.000  Mn
  O58      1.0000 0.32487  0.69900  0.46146  Biso   1.000  O
  O59      1.0000 0.31578  0.63472  0.64885  Biso   1.000  O
  O60      1.0000 0.24214  0.71085  0.55561  Biso   1.000  O
  N51      1.0000 0.28994  0.67311  0.57597  Biso   1.000  N
  N52      1.0000 0.26210  0.66764  0.62243  Biso   1.000  N
  N53      1.0000 0.25622  0.67550  0.41890  Biso   1.000  N
  C263     1.0000 0.34744  0.67687  0.48050  Biso   1.000  C
  C264     1.0000 0.37616  0.67483  0.43530  Biso   1.000  C
  H244     1.0000 0.37840  0.68910  0.39320  Biso   1.000  H
  C265     1.0000 0.40072  0.65260  0.45140  Biso   1.000  C
  H245     1.0000 0.41980  0.65190  0.42030  Biso   1.000  H
  C266     1.0000 0.39849  0.63113  0.51190  Biso   1.000  C
  H246     1.0000 0.41570  0.61570  0.52200  Biso   1.000  H
  C267     1.0000 0.37088  0.63257  0.55710  Biso   1.000  C
  H247     1.0000 0.36920  0.61790  0.59860  Biso   1.000  H
  C268     1.0000 0.34494  0.65530  0.54310  Biso   1.000  C
  C269     1.0000 0.31567  0.65421  0.59226  Biso   1.000  C
  C270     1.0000 0.23864  0.68814  0.60660  Biso   1.000  C
  C271     1.0000 0.20598  0.68519  0.64480  Biso   1.000  C
  H248     1.0000 0.20410  0.70300  0.68260  Biso   1.000  H
  H249     1.0000 0.20520  0.66380  0.67190  Biso   1.000  H
  C272     1.0000 0.17637  0.68710  0.59270  Biso   1.000  C
  H250     1.0000 0.17690  0.70810  0.56530  Biso   1.000  H
  H251     1.0000 0.15600  0.68570  0.62220  Biso   1.000  H
  H252     1.0000 0.17720  0.66870  0.55690  Biso   1.000  H
  C273     1.0000 0.26000  0.64546  0.41120  Biso   1.000  C
  H253     1.0000 0.27720  0.63550  0.43970  Biso   1.000  H
  C274     1.0000 0.24160  0.62452  0.36470  Biso   1.000  C
  H254     1.0000 0.24630  0.60150  0.36450  Biso   1.000  H
  C275     1.0000 0.21960  0.63537  0.32420  Biso   1.000  C
  C276     1.0000 0.20740  0.66730  0.34390  Biso   1.000  C
  H255     1.0000 0.18690  0.67510  0.32460  Biso   1.000  H
  C277     1.0000 0.22600  0.68676  0.39130  Biso   1.000  C
  H256     1.0000 0.21820  0.70800  0.40530  Biso   1.000  H
  C278     1.0000 0.20090  0.61326  0.26960  Biso   1.000  C
  H257     1.0000 0.21570  0.59480  0.25520  Biso   1.000  H
  H258     1.0000 0.18180  0.60350  0.29660  Biso   1.000  H
  Mn21     1.0000 0.22166  0.86303  0.77845  Biso   1.000  Mn
  O61      1.0000 0.24184  0.90139  0.81021  Biso   1.000  O
  O62      1.0000 0.30197  0.86478  0.63245  Biso   1.000  O
  O63      1.0000 0.20628  0.82224  0.73463  Biso   1.000  O
  N54      1.0000 0.25636  0.85570  0.70486  Biso   1.000  N
  N55      1.0000 0.25378  0.82551  0.66515  Biso   1.000  N
  N56      1.0000 0.14096  0.56063  0.05373  Biso   1.000  N
  C279     1.0000 0.26651  0.91841  0.77820  Biso   1.000  C
  C280     1.0000 0.27244  0.95008  0.80600  Biso   1.000  C
  H259     1.0000 0.25910  0.95830  0.84580  Biso   1.000  H
  C281     1.0000 0.29742  0.96987  0.77700  Biso   1.000  C
  H260     1.0000 0.30100  0.99130  0.79700  Biso   1.000  H
  C282     1.0000 0.31733  0.95839  0.71840  Biso   1.000  C
  H261     1.0000 0.33430  0.97190  0.69810  Biso   1.000  H
  C283     1.0000 0.31190  0.92717  0.69060  Biso   1.000  C
  H262     1.0000 0.32550  0.91910  0.65120  Biso   1.000  H
  C284     1.0000 0.28664  0.90678  0.71910  Biso   1.000  C
  C285     1.0000 0.28191  0.87422  0.68390  Biso   1.000  C
  C286     1.0000 0.22707  0.81028  0.68520  Biso   1.000  C
  C287     1.0000 0.21792  0.77832  0.64800  Biso   1.000  C
  H263     1.0000 0.23770  0.76820  0.62490  Biso   1.000  H
  H264     1.0000 0.20890  0.76270  0.68560  Biso   1.000  H
  C288     1.0000 0.19100  0.78570  0.58550  Biso   1.000  C
  H265     1.0000 0.20100  0.79880  0.54510  Biso   1.000  H
  H266     1.0000 0.18270  0.76480  0.56500  Biso   1.000  H
  H267     1.0000 0.17260  0.79810  0.60770  Biso   1.000  H
  C289     1.0000 0.16736  0.57805  0.03370  Biso   1.000  C
  H268     1.0000 0.17530  0.57570  0.98380  Biso   1.000  H
  C290     1.0000 0.18391  0.59938  0.08080  Biso   1.000  C
  H269     1.0000 0.20280  0.61110  0.06380  Biso   1.000  H
  C291     1.0000 0.17255  0.60333  0.15270  Biso   1.000  C
  C292     1.0000 0.14580  0.58550  0.17380  Biso   1.000  C
  H270     1.0000 0.13720  0.58780  0.22310  Biso   1.000  H
  C293     1.0000 0.13075  0.56371  0.12410  Biso   1.000  C
  H271     1.0000 0.11270  0.55070  0.14100  Biso   1.000  H
  C294     1.0000 0.18960  0.62740  0.20650  Biso   1.000  C
  H272     1.0000 0.20840  0.63790  0.18010  Biso   1.000  H
  H273     1.0000 0.17370  0.64500  0.22020  Biso   1.000  H
  Mn22     1.0000 0.79334  0.32398  0.07625  Biso   1.000  Mn
  O64      1.0000 0.76625  0.34527  0.00629  Biso   1.000  O
  O65      1.0000 0.77137  0.24515  0.93616  Biso   1.000  O
  O66      1.0000 0.81953  0.29523  0.14000  Biso   1.000  O
  N57      1.0000 0.78595  0.28207  0.02644  Biso   1.000  N
  N58      1.0000 0.80160  0.25459  0.06097  Biso   1.000  N
  C295     1.0000 0.75204  0.33366  0.94680  Biso   1.000  C
  C296     1.0000 0.73331  0.35613  0.90240  Biso   1.000  C
  H274     1.0000 0.72960  0.37800  0.92020  Biso   1.000  H
  C297     1.0000 0.72050  0.34668  0.83410  Biso   1.000  C
  H275     1.0000 0.70760  0.36210  0.80660  Biso   1.000  H
  C298     1.0000 0.72580  0.31580  0.80420  Biso   1.000  C
  H276     1.0000 0.71880  0.31060  0.75470  Biso   1.000  H
  C299     1.0000 0.74200  0.29202  0.84980  Biso   1.000  C
  H277     1.0000 0.74420  0.26990  0.83260  Biso   1.000  H
  C300     1.0000 0.75451  0.30083  0.91960  Biso   1.000  C
  C301     1.0000 0.77129  0.27475  0.96230  Biso   1.000  C
  C302     1.0000 0.81821  0.26400  0.11989  Biso   1.000  C
  C303     1.0000 0.83646  0.23874  0.16510  Biso   1.000  C
  H278     1.0000 0.84990  0.22510  0.13050  Biso   1.000  H
  H279     1.0000 0.82010  0.22400  0.18930  Biso   1.000  H
  C304     1.0000 0.85882  0.25223  0.22480  Biso   1.000  C
  H280     1.0000 0.87740  0.26380  0.20120  Biso   1.000  H
  H281     1.0000 0.86720  0.23400  0.25560  Biso   1.000  H
  H282     1.0000 0.84650  0.26770  0.25650  Biso   1.000  H
  Mn23     1.0000 0.78382  0.20817  0.00312  Biso   1.000  Mn
  O67      1.0000 0.82487  0.19900  0.96146  Biso   1.000  O
  O68      1.0000 0.81578  0.13472  0.14885  Biso   1.000  O
  O69      1.0000 0.74214  0.21085  0.05561  Biso   1.000  O
  N59      1.0000 0.78994  0.17311  0.07597  Biso   1.000  N
  N60      1.0000 0.76210  0.16764  0.12243  Biso   1.000  N
  N61      1.0000 0.75622  0.17550  0.91890  Biso   1.000  N
  C305     1.0000 0.84744  0.17687  0.98050  Biso   1.000  C
  C306     1.0000 0.87616  0.17483  0.93530  Biso   1.000  C
  H283     1.0000 0.87840  0.18910  0.89320  Biso   1.000  H
  C307     1.0000 0.90072  0.15260  0.95140  Biso   1.000  C
  H284     1.0000 0.91980  0.15190  0.92030  Biso   1.000  H
  C308     1.0000 0.89849  0.13113  0.01190  Biso   1.000  C
  H285     1.0000 0.91570  0.11570  0.02200  Biso   1.000  H
  C309     1.0000 0.87088  0.13257  0.05710  Biso   1.000  C
  H286     1.0000 0.86920  0.11790  0.09860  Biso   1.000  H
  C310     1.0000 0.84494  0.15530  0.04310  Biso   1.000  C
  C311     1.0000 0.81567  0.15421  0.09226  Biso   1.000  C
  C312     1.0000 0.73864  0.18814  0.10660  Biso   1.000  C
  C313     1.0000 0.70598  0.18519  0.14480  Biso   1.000  C
  H287     1.0000 0.70410  0.20300  0.18260  Biso   1.000  H
  H288     1.0000 0.70520  0.16380  0.17190  Biso   1.000  H
  C314     1.0000 0.67637  0.18710  0.09270  Biso   1.000  C
  H289     1.0000 0.67690  0.20810  0.06530  Biso   1.000  H
  H290     1.0000 0.65600  0.18570  0.12220  Biso   1.000  H
  H291     1.0000 0.67720  0.16870  0.05690  Biso   1.000  H
  C315     1.0000 0.76000  0.14546  0.91120  Biso   1.000  C
  H292     1.0000 0.77720  0.13550  0.93970  Biso   1.000  H
  C316     1.0000 0.74160  0.12452  0.86470  Biso   1.000  C
  H293     1.0000 0.74630  0.10150  0.86450  Biso   1.000  H
  C317     1.0000 0.71960  0.13537  0.82420  Biso   1.000  C
  C318     1.0000 0.70740  0.16730  0.84390  Biso   1.000  C
  H294     1.0000 0.68690  0.17510  0.82460  Biso   1.000  H
  C319     1.0000 0.72600  0.18676  0.89130  Biso   1.000  C
  H295     1.0000 0.71820  0.20800  0.90530  Biso   1.000  H
  C320     1.0000 0.70090  0.11326  0.76960  Biso   1.000  C
  H296     1.0000 0.71570  0.09480  0.75520  Biso   1.000  H
  H297     1.0000 0.68180  0.10350  0.79660  Biso   1.000  H
  Mn24     1.0000 0.72166  0.36303  0.27845  Biso   1.000  Mn
  O70      1.0000 0.74184  0.40139  0.31021  Biso   1.000  O
  O71      1.0000 0.80197  0.36478  0.13245  Biso   1.000  O
  O72      1.0000 0.70628  0.32224  0.23463  Biso   1.000  O
  N62      1.0000 0.75636  0.35570  0.20486  Biso   1.000  N
  N63      1.0000 0.75378  0.32551  0.16515  Biso   1.000  N
  N64      1.0000 0.64096  0.06063  0.55373  Biso   1.000  N
  C321     1.0000 0.76651  0.41841  0.27820  Biso   1.000  C
  C322     1.0000 0.77244  0.45008  0.30600  Biso   1.000  C
  H298     1.0000 0.75910  0.45830  0.34580  Biso   1.000  H
  C323     1.0000 0.79742  0.46987  0.27700  Biso   1.000  C
  H299     1.0000 0.80100  0.49130  0.29700  Biso   1.000  H
  C324     1.0000 0.81733  0.45839  0.21840  Biso   1.000  C
  H300     1.0000 0.83430  0.47190  0.19810  Biso   1.000  H
  C325     1.0000 0.81190  0.42717  0.19060  Biso   1.000  C
  H301     1.0000 0.82550  0.41910  0.15120  Biso   1.000  H
  C326     1.0000 0.78664  0.40678  0.21910  Biso   1.000  C
  C327     1.0000 0.78191  0.37422  0.18390  Biso   1.000  C
  C328     1.0000 0.72707  0.31028  0.18520  Biso   1.000  C
  C329     1.0000 0.71792  0.27832  0.14800  Biso   1.000  C
  H302     1.0000 0.73770  0.26820  0.12490  Biso   1.000  H
  H303     1.0000 0.70890  0.26270  0.18560  Biso   1.000  H
  C330     1.0000 0.69100  0.28570  0.08550  Biso   1.000  C
  H304     1.0000 0.70100  0.29880  0.04510  Biso   1.000  H
  H305     1.0000 0.68270  0.26480  0.06500  Biso   1.000  H
  H306     1.0000 0.67260  0.29810  0.10770  Biso   1.000  H
  C331     1.0000 0.66736  0.07805  0.53370  Biso   1.000  C
  H307     1.0000 0.67530  0.07570  0.48380  Biso   1.000  H
  C332     1.0000 0.68391  0.09938  0.58080  Biso   1.000  C
  H308     1.0000 0.70280  0.11110  0.56380  Biso   1.000  H
  C333     1.0000 0.67255  0.10333  0.65270  Biso   1.000  C
  C334     1.0000 0.64580  0.08550  0.67380  Biso   1.000  C
  H309     1.0000 0.63720  0.08780  0.72310  Biso   1.000  H
  C335     1.0000 0.63075  0.06371  0.62410  Biso   1.000  C
  H310     1.0000 0.61270  0.05070  0.64100  Biso   1.000  H
  C336     1.0000 0.68960  0.12740  0.70650  Biso   1.000  C
  H311     1.0000 0.70840  0.13790  0.68010  Biso   1.000  H
  H312     1.0000 0.67370  0.14500  0.72020  Biso   1.000  H
  Mn25     1.0000 0.07398  0.45666  0.17375  Biso   1.000  Mn
  O73      1.0000 0.09527  0.48375  0.24371  Biso   1.000  O
  O74      1.0000 0.99515  0.47863  0.31384  Biso   1.000  O
  O75      1.0000 0.04523  0.43047  0.11000  Biso   1.000  O
  N65      1.0000 0.03207  0.46405  0.22356  Biso   1.000  N
  N66      1.0000 0.00459  0.44840  0.18903  Biso   1.000  N
  C337     1.0000 0.08366  0.49796  0.30320  Biso   1.000  C
  C338     1.0000 0.10613  0.51669  0.34760  Biso   1.000  C
  H313     1.0000 0.12800  0.52040  0.32980  Biso   1.000  H
  C339     1.0000 0.09668  0.52950  0.41590  Biso   1.000  C
  H314     1.0000 0.11210  0.54240  0.44340  Biso   1.000  H
  C340     1.0000 0.06580  0.52420  0.44580  Biso   1.000  C
  H315     1.0000 0.06060  0.53120  0.49530  Biso   1.000  H
  C341     1.0000 0.04202  0.50800  0.40020  Biso   1.000  C
  H316     1.0000 0.01990  0.50580  0.41740  Biso   1.000  H
  C342     1.0000 0.05083  0.49549  0.33040  Biso   1.000  C
  C343     1.0000 0.02475  0.47871  0.28770  Biso   1.000  C
  C344     1.0000 0.01400  0.43179  0.13011  Biso   1.000  C
  C345     1.0000 0.98874  0.41354  0.08490  Biso   1.000  C
  H317     1.0000 0.97510  0.40010  0.11950  Biso   1.000  H
  H318     1.0000 0.97400  0.42990  0.06070  Biso   1.000  H
  C346     1.0000 0.00223  0.39118  0.02520  Biso   1.000  C
  H319     1.0000 0.01380  0.37260  0.04880  Biso   1.000  H
  H320     1.0000 0.98400  0.38280  0.99440  Biso   1.000  H
  H321     1.0000 0.01770  0.40350  0.99350  Biso   1.000  H
  Mn26     1.0000 0.95817  0.46618  0.24688  Biso   1.000  Mn
  O76      1.0000 0.94900  0.42513  0.28854  Biso   1.000  O
  O77      1.0000 0.88472  0.43422  0.10115  Biso   1.000  O
  O78      1.0000 0.96085  0.50786  0.19439  Biso   1.000  O
  N67      1.0000 0.92311  0.46006  0.17403  Biso   1.000  N
  N68      1.0000 0.91764  0.48790  0.12757  Biso   1.000  N
  N69      1.0000 0.92550  0.49378  0.33110  Biso   1.000  N
  C347     1.0000 0.92687  0.40256  0.26950  Biso   1.000  C
  C348     1.0000 0.92483  0.37384  0.31470  Biso   1.000  C
  H322     1.0000 0.93910  0.37160  0.35680  Biso   1.000  H
  C349     1.0000 0.90260  0.34928  0.29860  Biso   1.000  C
  H323     1.0000 0.90190  0.33020  0.32970  Biso   1.000  H
  C350     1.0000 0.88113  0.35151  0.23810  Biso   1.000  C
  H324     1.0000 0.86570  0.33430  0.22800  Biso   1.000  H
  C351     1.0000 0.88257  0.37912  0.19290  Biso   1.000  C
  H325     1.0000 0.86790  0.38080  0.15140  Biso   1.000  H
  C352     1.0000 0.90530  0.40506  0.20690  Biso   1.000  C
  C353     1.0000 0.90421  0.43433  0.15774  Biso   1.000  C
  C354     1.0000 0.93814  0.51136  0.14340  Biso   1.000  C
  C355     1.0000 0.93519  0.54402  0.10520  Biso   1.000  C
  H326     1.0000 0.95300  0.54590  0.06740  Biso   1.000  H
  H327     1.0000 0.91380  0.54480  0.07810  Biso   1.000  H
  C356     1.0000 0.93710  0.57363  0.15730  Biso   1.000  C
  H328     1.0000 0.95810  0.57310  0.18470  Biso   1.000  H
  H329     1.0000 0.93570  0.59400  0.12780  Biso   1.000  H
  H330     1.0000 0.91870  0.57280  0.19310  Biso   1.000  H
  C357     1.0000 0.89546  0.49000  0.33880  Biso   1.000  C
  H331     1.0000 0.88550  0.47280  0.31030  Biso   1.000  H
  C358     1.0000 0.87452  0.50840  0.38530  Biso   1.000  C
  H332     1.0000 0.85150  0.50370  0.38550  Biso   1.000  H
  C359     1.0000 0.88537  0.53040  0.42580  Biso   1.000  C
  C360     1.0000 0.91730  0.54260  0.40610  Biso   1.000  C
  H333     1.0000 0.92510  0.56310  0.42540  Biso   1.000  H
  C361     1.0000 0.93676  0.52400  0.35870  Biso   1.000  C
  H334     1.0000 0.95800  0.53180  0.34470  Biso   1.000  H
  C362     1.0000 0.86326  0.54910  0.48040  Biso   1.000  C
  H335     1.0000 0.84480  0.53430  0.49480  Biso   1.000  H
  H336     1.0000 0.85350  0.56820  0.45340  Biso   1.000  H
  Mn27     1.0000 0.11303  0.52834  0.97155  Biso   1.000  Mn
  O79      1.0000 0.15139  0.50816  0.93979  Biso   1.000  O
  O80      1.0000 0.11478  0.44803  0.11755  Biso   1.000  O
  O81      1.0000 0.07224  0.54372  0.01537  Biso   1.000  O
  N70      1.0000 0.10570  0.49364  0.04514  Biso   1.000  N
  N71      1.0000 0.07551  0.49622  0.08485  Biso   1.000  N
  N72      1.0000 0.81063  0.60904  0.69627  Biso   1.000  N
  C363     1.0000 0.16841  0.48349  0.97180  Biso   1.000  C
  C364     1.0000 0.20008  0.47756  0.94400  Biso   1.000  C
  H337     1.0000 0.20830  0.49090  0.90420  Biso   1.000  H
  C365     1.0000 0.21987  0.45258  0.97300  Biso   1.000  C
  H338     1.0000 0.24130  0.44900  0.95300  Biso   1.000  H
  C366     1.0000 0.20839  0.43267  0.03160  Biso   1.000  C
  H339     1.0000 0.22190  0.41570  0.05190  Biso   1.000  H
  C367     1.0000 0.17717  0.43810  0.05940  Biso   1.000  C
  H340     1.0000 0.16910  0.42450  0.09880  Biso   1.000  H
  C368     1.0000 0.15678  0.46336  0.03090  Biso   1.000  C
  C369     1.0000 0.12422  0.46809  0.06610  Biso   1.000  C
  C370     1.0000 0.06028  0.52293  0.06480  Biso   1.000  C
  C371     1.0000 0.02832  0.53208  0.10200  Biso   1.000  C
  H341     1.0000 0.01820  0.51230  0.12510  Biso   1.000  H
  H342     1.0000 0.01270  0.54110  0.06440  Biso   1.000  H
  C372     1.0000 0.03570  0.55900  0.16450  Biso   1.000  C
  H343     1.0000 0.04880  0.54900  0.20490  Biso   1.000  H
  H344     1.0000 0.01480  0.56730  0.18500  Biso   1.000  H
  H345     1.0000 0.04810  0.57740  0.14230  Biso   1.000  H
  C373     1.0000 0.82805  0.58264  0.71630  Biso   1.000  C
  H346     1.0000 0.82570  0.57470  0.76620  Biso   1.000  H
  C374     1.0000 0.84938  0.56609  0.66920  Biso   1.000  C
  H347     1.0000 0.86110  0.54720  0.68620  Biso   1.000  H
  C375     1.0000 0.85333  0.57745  0.59730  Biso   1.000  C
  C376     1.0000 0.83550  0.60420  0.57620  Biso   1.000  C
  H348     1.0000 0.83780  0.61280  0.52690  Biso   1.000  H
  C377     1.0000 0.81371  0.61925  0.62590  Biso   1.000  C
  H349     1.0000 0.80070  0.63730  0.60900  Biso   1.000  H
  C378     1.0000 0.87740  0.56040  0.54350  Biso   1.000  C
  H350     1.0000 0.88790  0.54160  0.56990  Biso   1.000  H
  H351     1.0000 0.89500  0.57630  0.52980  Biso   1.000  H
  Mn28     1.0000 0.57398  0.95666  0.67375  Biso   1.000  Mn
  O82      1.0000 0.59527  0.98375  0.74371  Biso   1.000  O
  O83      1.0000 0.49515  0.97863  0.81384  Biso   1.000  O
  O84      1.0000 0.54523  0.93047  0.61000  Biso   1.000  O
  N73      1.0000 0.53207  0.96405  0.72356  Biso   1.000  N
  N74      1.0000 0.50459  0.94840  0.68903  Biso   1.000  N
  C379     1.0000 0.58366  0.99796  0.80320  Biso   1.000  C
  C380     1.0000 0.60613  0.01669  0.84760  Biso   1.000  C
  H352     1.0000 0.62800  0.02040  0.82980  Biso   1.000  H
  C381     1.0000 0.59668  0.02950  0.91590  Biso   1.000  C
  H353     1.0000 0.61210  0.04240  0.94340  Biso   1.000  H
  C382     1.0000 0.56580  0.02420  0.94580  Biso   1.000  C
  H354     1.0000 0.56060  0.03120  0.99530  Biso   1.000  H
  C383     1.0000 0.54202  0.00800  0.90020  Biso   1.000  C
  H355     1.0000 0.51990  0.00580  0.91740  Biso   1.000  H
  C384     1.0000 0.55083  0.99549  0.83040  Biso   1.000  C
  C385     1.0000 0.52475  0.97871  0.78770  Biso   1.000  C
  C386     1.0000 0.51400  0.93179  0.63011  Biso   1.000  C
  C387     1.0000 0.48874  0.91354  0.58490  Biso   1.000  C
  H356     1.0000 0.47510  0.90010  0.61950  Biso   1.000  H
  H357     1.0000 0.47400  0.92990  0.56070  Biso   1.000  H
  C388     1.0000 0.50223  0.89118  0.52520  Biso   1.000  C
  H358     1.0000 0.51380  0.87260  0.54880  Biso   1.000  H
  H359     1.0000 0.48400  0.88280  0.49440  Biso   1.000  H
  H360     1.0000 0.51770  0.90350  0.49350  Biso   1.000  H
  Mn29     1.0000 0.45817  0.96618  0.74688  Biso   1.000  Mn
  O85      1.0000 0.44900  0.92513  0.78854  Biso   1.000  O
  O86      1.0000 0.38472  0.93422  0.60115  Biso   1.000  O
  O87      1.0000 0.46085  0.00786  0.69439  Biso   1.000  O
  N75      1.0000 0.42311  0.96006  0.67403  Biso   1.000  N
  N76      1.0000 0.41764  0.98790  0.62757  Biso   1.000  N
  N77      1.0000 0.42550  0.99378  0.83110  Biso   1.000  N
  C389     1.0000 0.42687  0.90256  0.76950  Biso   1.000  C
  C390     1.0000 0.42483  0.87384  0.81470  Biso   1.000  C
  H361     1.0000 0.43910  0.87160  0.85680  Biso   1.000  H
  C391     1.0000 0.40260  0.84928  0.79860  Biso   1.000  C
  H362     1.0000 0.40190  0.83020  0.82970  Biso   1.000  H
  C392     1.0000 0.38113  0.85151  0.73810  Biso   1.000  C
  H363     1.0000 0.36570  0.83430  0.72800  Biso   1.000  H
  C393     1.0000 0.38257  0.87912  0.69290  Biso   1.000  C
  H364     1.0000 0.36790  0.88080  0.65140  Biso   1.000  H
  C394     1.0000 0.40530  0.90506  0.70690  Biso   1.000  C
  C395     1.0000 0.40421  0.93433  0.65774  Biso   1.000  C
  C396     1.0000 0.43814  0.01136  0.64340  Biso   1.000  C
  C397     1.0000 0.43519  0.04402  0.60520  Biso   1.000  C
  H365     1.0000 0.45300  0.04590  0.56740  Biso   1.000  H
  H366     1.0000 0.41380  0.04480  0.57810  Biso   1.000  H
  C398     1.0000 0.43710  0.07363  0.65730  Biso   1.000  C
  H367     1.0000 0.45810  0.07310  0.68470  Biso   1.000  H
  H368     1.0000 0.43570  0.09400  0.62780  Biso   1.000  H
  H369     1.0000 0.41870  0.07280  0.69310  Biso   1.000  H
  C399     1.0000 0.39546  0.99000  0.83880  Biso   1.000  C
  H370     1.0000 0.38550  0.97280  0.81030  Biso   1.000  H
  C400     1.0000 0.37452  0.00840  0.88530  Biso   1.000  C
  H371     1.0000 0.35150  0.00370  0.88550  Biso   1.000  H
  C401     1.0000 0.38537  0.03040  0.92580  Biso   1.000  C
  C402     1.0000 0.41730  0.04260  0.90610  Biso   1.000  C
  H372     1.0000 0.42510  0.06310  0.92540  Biso   1.000  H
  C403     1.0000 0.43676  0.02400  0.85870  Biso   1.000  C
  H373     1.0000 0.45800  0.03180  0.84470  Biso   1.000  H
  C404     1.0000 0.36326  0.04910  0.98040  Biso   1.000  C
  H374     1.0000 0.34480  0.03430  0.99480  Biso   1.000  H
  H375     1.0000 0.35350  0.06820  0.95340  Biso   1.000  H
  Mn30     1.0000 0.61303  0.02834  0.47155  Biso   1.000  Mn
  O88      1.0000 0.65139  0.00816  0.43979  Biso   1.000  O
  O89      1.0000 0.61478  0.94803  0.61755  Biso   1.000  O
  O90      1.0000 0.57224  0.04372  0.51537  Biso   1.000  O
  N78      1.0000 0.60570  0.99364  0.54514  Biso   1.000  N
  N79      1.0000 0.57551  0.99622  0.58485  Biso   1.000  N
  N80      1.0000 0.31063  0.10904  0.19627  Biso   1.000  N
  C405     1.0000 0.66841  0.98349  0.47180  Biso   1.000  C
  C406     1.0000 0.70008  0.97756  0.44400  Biso   1.000  C
  H376     1.0000 0.70830  0.99090  0.40420  Biso   1.000  H
  C407     1.0000 0.71987  0.95258  0.47300  Biso   1.000  C
  H377     1.0000 0.74130  0.94900  0.45300  Biso   1.000  H
  C408     1.0000 0.70839  0.93267  0.53160  Biso   1.000  C
  H378     1.0000 0.72190  0.91570  0.55190  Biso   1.000  H
  C409     1.0000 0.67717  0.93810  0.55940  Biso   1.000  C
  H379     1.0000 0.66910  0.92450  0.59880  Biso   1.000  H
  C410     1.0000 0.65678  0.96336  0.53090  Biso   1.000  C
  C411     1.0000 0.62422  0.96809  0.56610  Biso   1.000  C
  C412     1.0000 0.56028  0.02293  0.56480  Biso   1.000  C
  C413     1.0000 0.52832  0.03208  0.60200  Biso   1.000  C
  H380     1.0000 0.51820  0.01230  0.62510  Biso   1.000  H
  H381     1.0000 0.51270  0.04110  0.56440  Biso   1.000  H
  C414     1.0000 0.53570  0.05900  0.66450  Biso   1.000  C
  H382     1.0000 0.54880  0.04900  0.70490  Biso   1.000  H
  H383     1.0000 0.51480  0.06730  0.68500  Biso   1.000  H
  H384     1.0000 0.54810  0.07740  0.64230  Biso   1.000  H
  C415     1.0000 0.32805  0.08264  0.21630  Biso   1.000  C
  H385     1.0000 0.32570  0.07470  0.26620  Biso   1.000  H
  C416     1.0000 0.34938  0.06609  0.16920  Biso   1.000  C
  H386     1.0000 0.36110  0.04720  0.18620  Biso   1.000  H
  C417     1.0000 0.35333  0.07745  0.09730  Biso   1.000  C
  C418     1.0000 0.33550  0.10420  0.07620  Biso   1.000  C
  H387     1.0000 0.33780  0.11280  0.02690  Biso   1.000  H
  C419     1.0000 0.31371  0.11925  0.12590  Biso   1.000  C
  H388     1.0000 0.30070  0.13730  0.10900  Biso   1.000  H
  C420     1.0000 0.37740  0.06040  0.04350  Biso   1.000  C
  H389     1.0000 0.38790  0.04160  0.06990  Biso   1.000  H
  H390     1.0000 0.39500  0.07630  0.02980  Biso   1.000  H
  Mn31     1.0000 0.42602  0.54334  0.67375  Biso   1.000  Mn
  O91      1.0000 0.40473  0.51625  0.74371  Biso   1.000  O
  O92      1.0000 0.50485  0.52137  0.81384  Biso   1.000  O
  O93      1.0000 0.45477  0.56953  0.61000  Biso   1.000  O
  N81      1.0000 0.46793  0.53595  0.72356  Biso   1.000  N
  N82      1.0000 0.49541  0.55160  0.68903  Biso   1.000  N
  C421     1.0000 0.41634  0.50204  0.80320  Biso   1.000  C
  C422     1.0000 0.39387  0.48331  0.84760  Biso   1.000  C
  H391     1.0000 0.37200  0.47960  0.82980  Biso   1.000  H
  C423     1.0000 0.40332  0.47050  0.91590  Biso   1.000  C
  H392     1.0000 0.38790  0.45760  0.94340  Biso   1.000  H
  C424     1.0000 0.43420  0.47580  0.94580  Biso   1.000  C
  H393     1.0000 0.43940  0.46880  0.99530  Biso   1.000  H
  C425     1.0000 0.45798  0.49200  0.90020  Biso   1.000  C
  H394     1.0000 0.48010  0.49420  0.91740  Biso   1.000  H
  C426     1.0000 0.44917  0.50451  0.83040  Biso   1.000  C
  C427     1.0000 0.47525  0.52129  0.78770  Biso   1.000  C
  C428     1.0000 0.48600  0.56821  0.63011  Biso   1.000  C
  C429     1.0000 0.51126  0.58646  0.58490  Biso   1.000  C
  H395     1.0000 0.52490  0.59990  0.61950  Biso   1.000  H
  H396     1.0000 0.52600  0.57010  0.56070  Biso   1.000  H
  C430     1.0000 0.49777  0.60882  0.52520  Biso   1.000  C
  H397     1.0000 0.48620  0.62740  0.54880  Biso   1.000  H
  H398     1.0000 0.51600  0.61720  0.49440  Biso   1.000  H
  H399     1.0000 0.48230  0.59650  0.49350  Biso   1.000  H
  Mn32     1.0000 0.54183  0.53382  0.74688  Biso   1.000  Mn
  O94      1.0000 0.55100  0.57487  0.78854  Biso   1.000  O
  O95      1.0000 0.61528  0.56578  0.60115  Biso   1.000  O
  O96      1.0000 0.53915  0.49214  0.69439  Biso   1.000  O
  N83      1.0000 0.57689  0.53994  0.67403  Biso   1.000  N
  N84      1.0000 0.58236  0.51210  0.62757  Biso   1.000  N
  N85      1.0000 0.57450  0.50622  0.83110  Biso   1.000  N
  C431     1.0000 0.57313  0.59744  0.76950  Biso   1.000  C
  C432     1.0000 0.57517  0.62616  0.81470  Biso   1.000  C
  H400     1.0000 0.56090  0.62840  0.85680  Biso   1.000  H
  C433     1.0000 0.59740  0.65072  0.79860  Biso   1.000  C
  H401     1.0000 0.59810  0.66980  0.82970  Biso   1.000  H
  C434     1.0000 0.61887  0.64849  0.73810  Biso   1.000  C
  H402     1.0000 0.63430  0.66570  0.72800  Biso   1.000  H
  C435     1.0000 0.61743  0.62088  0.69290  Biso   1.000  C
  H403     1.0000 0.63210  0.61920  0.65140  Biso   1.000  H
  C436     1.0000 0.59470  0.59494  0.70690  Biso   1.000  C
  C437     1.0000 0.59579  0.56567  0.65774  Biso   1.000  C
  C438     1.0000 0.56186  0.48864  0.64340  Biso   1.000  C
  C439     1.0000 0.56481  0.45598  0.60520  Biso   1.000  C
  H404     1.0000 0.54700  0.45410  0.56740  Biso   1.000  H
  H405     1.0000 0.58620  0.45520  0.57810  Biso   1.000  H
  C440     1.0000 0.56290  0.42637  0.65730  Biso   1.000  C
  H406     1.0000 0.54190  0.42690  0.68470  Biso   1.000  H
  H407     1.0000 0.56430  0.40600  0.62780  Biso   1.000  H
  H408     1.0000 0.58130  0.42720  0.69310  Biso   1.000  H
  C441     1.0000 0.60454  0.51000  0.83880  Biso   1.000  C
  H409     1.0000 0.61450  0.52720  0.81030  Biso   1.000  H
  C442     1.0000 0.62548  0.49160  0.88530  Biso   1.000  C
  H410     1.0000 0.64850  0.49630  0.88550  Biso   1.000  H
  C443     1.0000 0.61463  0.46960  0.92580  Biso   1.000  C
  C444     1.0000 0.58270  0.45740  0.90610  Biso   1.000  C
  H411     1.0000 0.57490  0.43690  0.92540  Biso   1.000  H
  C445     1.0000 0.56324  0.47600  0.85870  Biso   1.000  C
  H412     1.0000 0.54200  0.46820  0.84470  Biso   1.000  H
  C446     1.0000 0.63674  0.45090  0.98040  Biso   1.000  C
  H413     1.0000 0.65520  0.46570  0.99480  Biso   1.000  H
  H414     1.0000 0.64650  0.43180  0.95340  Biso   1.000  H
  Mn33     1.0000 0.38697  0.47166  0.47155  Biso   1.000  Mn
  O97      1.0000 0.34861  0.49184  0.43979  Biso   1.000  O
  O98      1.0000 0.38522  0.55197  0.61755  Biso   1.000  O
  O99      1.0000 0.42776  0.45628  0.51537  Biso   1.000  O
  N86      1.0000 0.39430  0.50636  0.54514  Biso   1.000  N
  N87      1.0000 0.42449  0.50378  0.58485  Biso   1.000  N
  N88      1.0000 0.68937  0.39096  0.19627  Biso   1.000  N
  C447     1.0000 0.33159  0.51651  0.47180  Biso   1.000  C
  C448     1.0000 0.29992  0.52244  0.44400  Biso   1.000  C
  H415     1.0000 0.29170  0.50910  0.40420  Biso   1.000  H
  C449     1.0000 0.28013  0.54742  0.47300  Biso   1.000  C
  H416     1.0000 0.25870  0.55100  0.45300  Biso   1.000  H
  C450     1.0000 0.29161  0.56733  0.53160  Biso   1.000  C
  H417     1.0000 0.27810  0.58430  0.55190  Biso   1.000  H
  C451     1.0000 0.32283  0.56190  0.55940  Biso   1.000  C
  H418     1.0000 0.33090  0.57550  0.59880  Biso   1.000  H
  C452     1.0000 0.34322  0.53664  0.53090  Biso   1.000  C
  C453     1.0000 0.37578  0.53191  0.56610  Biso   1.000  C
  C454     1.0000 0.43972  0.47707  0.56480  Biso   1.000  C
  C455     1.0000 0.47168  0.46792  0.60200  Biso   1.000  C
  H419     1.0000 0.48180  0.48770  0.62510  Biso   1.000  H
  H420     1.0000 0.48730  0.45890  0.56440  Biso   1.000  H
  C456     1.0000 0.46430  0.44100  0.66450  Biso   1.000  C
  H421     1.0000 0.45120  0.45100  0.70490  Biso   1.000  H
  H422     1.0000 0.48520  0.43270  0.68500  Biso   1.000  H
  H423     1.0000 0.45190  0.42260  0.64230  Biso   1.000  H
  C457     1.0000 0.67195  0.41736  0.21630  Biso   1.000  C
  H424     1.0000 0.67430  0.42530  0.26620  Biso   1.000  H
  C458     1.0000 0.65062  0.43391  0.16920  Biso   1.000  C
  H425     1.0000 0.63890  0.45280  0.18620  Biso   1.000  H
  C459     1.0000 0.64667  0.42255  0.09730  Biso   1.000  C
  C460     1.0000 0.66450  0.39580  0.07620  Biso   1.000  C
  H426     1.0000 0.66220  0.38720  0.02690  Biso   1.000  H
  C461     1.0000 0.68629  0.38075  0.12590  Biso   1.000  C
  H427     1.0000 0.69930  0.36270  0.10900  Biso   1.000  H
  C462     1.0000 0.62260  0.43960  0.04350  Biso   1.000  C
  H428     1.0000 0.61210  0.45840  0.06990  Biso   1.000  H
  H429     1.0000 0.60500  0.42370  0.02980  Biso   1.000  H
  Mn34     1.0000 0.92602  0.04334  0.17375  Biso   1.000  Mn
  O100     1.0000 0.90473  0.01625  0.24371  Biso   1.000  O
  O101     1.0000 0.00485  0.02137  0.31384  Biso   1.000  O
  O102     1.0000 0.95477  0.06953  0.11000  Biso   1.000  O
  N89      1.0000 0.96793  0.03595  0.22356  Biso   1.000  N
  N90      1.0000 0.99541  0.05160  0.18903  Biso   1.000  N
  C463     1.0000 0.91634  0.00204  0.30320  Biso   1.000  C
  C464     1.0000 0.89387  0.98331  0.34760  Biso   1.000  C
  H430     1.0000 0.87200  0.97960  0.32980  Biso   1.000  H
  C465     1.0000 0.90332  0.97050  0.41590  Biso   1.000  C
  H431     1.0000 0.88790  0.95760  0.44340  Biso   1.000  H
  C466     1.0000 0.93420  0.97580  0.44580  Biso   1.000  C
  H432     1.0000 0.93940  0.96880  0.49530  Biso   1.000  H
  C467     1.0000 0.95798  0.99200  0.40020  Biso   1.000  C
  H433     1.0000 0.98010  0.99420  0.41740  Biso   1.000  H
  C468     1.0000 0.94917  0.00451  0.33040  Biso   1.000  C
  C469     1.0000 0.97525  0.02129  0.28770  Biso   1.000  C
  C470     1.0000 0.98600  0.06821  0.13011  Biso   1.000  C
  C471     1.0000 0.01126  0.08646  0.08490  Biso   1.000  C
  H434     1.0000 0.02490  0.09990  0.11950  Biso   1.000  H
  H435     1.0000 0.02600  0.07010  0.06070  Biso   1.000  H
  C472     1.0000 0.99777  0.10882  0.02520  Biso   1.000  C
  H436     1.0000 0.98620  0.12740  0.04880  Biso   1.000  H
  H437     1.0000 0.01600  0.11720  0.99440  Biso   1.000  H
  H438     1.0000 0.98230  0.09650  0.99350  Biso   1.000  H
  Mn35     1.0000 0.04183  0.03382  0.24688  Biso   1.000  Mn
  O103     1.0000 0.05100  0.07487  0.28854  Biso   1.000  O
  O104     1.0000 0.11528  0.06578  0.10115  Biso   1.000  O
  O105     1.0000 0.03915  0.99214  0.19439  Biso   1.000  O
  N91      1.0000 0.07689  0.03994  0.17403  Biso   1.000  N
  N92      1.0000 0.08236  0.01210  0.12757  Biso   1.000  N
  N93      1.0000 0.07450  0.00622  0.33110  Biso   1.000  N
  C473     1.0000 0.07313  0.09744  0.26950  Biso   1.000  C
  C474     1.0000 0.07517  0.12616  0.31470  Biso   1.000  C
  H439     1.0000 0.06090  0.12840  0.35680  Biso   1.000  H
  C475     1.0000 0.09740  0.15072  0.29860  Biso   1.000  C
  H440     1.0000 0.09810  0.16980  0.32970  Biso   1.000  H
  C476     1.0000 0.11887  0.14849  0.23810  Biso   1.000  C
  H441     1.0000 0.13430  0.16570  0.22800  Biso   1.000  H
  C477     1.0000 0.11743  0.12088  0.19290  Biso   1.000  C
  H442     1.0000 0.13210  0.11920  0.15140  Biso   1.000  H
  C478     1.0000 0.09470  0.09494  0.20690  Biso   1.000  C
  C479     1.0000 0.09579  0.06567  0.15774  Biso   1.000  C
  C480     1.0000 0.06186  0.98864  0.14340  Biso   1.000  C
  C481     1.0000 0.06481  0.95598  0.10520  Biso   1.000  C
  H443     1.0000 0.04700  0.95410  0.06740  Biso   1.000  H
  H444     1.0000 0.08620  0.95520  0.07810  Biso   1.000  H
  C482     1.0000 0.06290  0.92637  0.15730  Biso   1.000  C
  H445     1.0000 0.04190  0.92690  0.18470  Biso   1.000  H
  H446     1.0000 0.06430  0.90600  0.12780  Biso   1.000  H
  H447     1.0000 0.08130  0.92720  0.19310  Biso   1.000  H
  C483     1.0000 0.10454  0.01000  0.33880  Biso   1.000  C
  H448     1.0000 0.11450  0.02720  0.31030  Biso   1.000  H
  C484     1.0000 0.12548  0.99160  0.38530  Biso   1.000  C
  H449     1.0000 0.14850  0.99630  0.38550  Biso   1.000  H
  C485     1.0000 0.11463  0.96960  0.42580  Biso   1.000  C
  C486     1.0000 0.08270  0.95740  0.40610  Biso   1.000  C
  H450     1.0000 0.07490  0.93690  0.42540  Biso   1.000  H
  C487     1.0000 0.06324  0.97600  0.35870  Biso   1.000  C
  H451     1.0000 0.04200  0.96820  0.34470  Biso   1.000  H
  C488     1.0000 0.13674  0.95090  0.48040  Biso   1.000  C
  H452     1.0000 0.15520  0.96570  0.49480  Biso   1.000  H
  H453     1.0000 0.14650  0.93180  0.45340  Biso   1.000  H
  Mn36     1.0000 0.88697  0.97166  0.97155  Biso   1.000  Mn
  O106     1.0000 0.84861  0.99184  0.93979  Biso   1.000  O
  O107     1.0000 0.88522  0.05197  0.11755  Biso   1.000  O
  O108     1.0000 0.92776  0.95628  0.01537  Biso   1.000  O
  N94      1.0000 0.89430  0.00636  0.04514  Biso   1.000  N
  N95      1.0000 0.92449  0.00378  0.08485  Biso   1.000  N
  N96      1.0000 0.18937  0.89096  0.69627  Biso   1.000  N
  C489     1.0000 0.83159  0.01651  0.97180  Biso   1.000  C
  C490     1.0000 0.79992  0.02244  0.94400  Biso   1.000  C
  H454     1.0000 0.79170  0.00910  0.90420  Biso   1.000  H
  C491     1.0000 0.78013  0.04742  0.97300  Biso   1.000  C
  H455     1.0000 0.75870  0.05100  0.95300  Biso   1.000  H
  C492     1.0000 0.79161  0.06733  0.03160  Biso   1.000  C
  H456     1.0000 0.77810  0.08430  0.05190  Biso   1.000  H
  C493     1.0000 0.82283  0.06190  0.05940  Biso   1.000  C
  H457     1.0000 0.83090  0.07550  0.09880  Biso   1.000  H
  C494     1.0000 0.84322  0.03664  0.03090  Biso   1.000  C
  C495     1.0000 0.87578  0.03191  0.06610  Biso   1.000  C
  C496     1.0000 0.93972  0.97707  0.06480  Biso   1.000  C
  C497     1.0000 0.97168  0.96792  0.10200  Biso   1.000  C
  H458     1.0000 0.98180  0.98770  0.12510  Biso   1.000  H
  H459     1.0000 0.98730  0.95890  0.06440  Biso   1.000  H
  C498     1.0000 0.96430  0.94100  0.16450  Biso   1.000  C
  H460     1.0000 0.95120  0.95100  0.20490  Biso   1.000  H
  H461     1.0000 0.98520  0.93270  0.18500  Biso   1.000  H
  H462     1.0000 0.95190  0.92260  0.14230  Biso   1.000  H
  C499     1.0000 0.17195  0.91736  0.71630  Biso   1.000  C
  H463     1.0000 0.17430  0.92530  0.76620  Biso   1.000  H
  C500     1.0000 0.15062  0.93391  0.66920  Biso   1.000  C
  H464     1.0000 0.13890  0.95280  0.68620  Biso   1.000  H
  C501     1.0000 0.14667  0.92255  0.59730  Biso   1.000  C
  C502     1.0000 0.16450  0.89580  0.57620  Biso   1.000  C
  H465     1.0000 0.16220  0.88720  0.52690  Biso   1.000  H
  C503     1.0000 0.18629  0.88075  0.62590  Biso   1.000  C
  H466     1.0000 0.19930  0.86270  0.60900  Biso   1.000  H
  C504     1.0000 0.12260  0.93960  0.54350  Biso   1.000  C
  H467     1.0000 0.11210  0.95840  0.56990  Biso   1.000  H
  H468     1.0000 0.10500  0.92370  0.52980  Biso   1.000  H
  Mn37     1.0000 0.79334  0.82398  0.92375  Biso   1.000  Mn
  O109     1.0000 0.76625  0.84527  0.99371  Biso   1.000  O
  O110     1.0000 0.77137  0.74515  0.06384  Biso   1.000  O
  O111     1.0000 0.81953  0.79523  0.86000  Biso   1.000  O
  N97      1.0000 0.78595  0.78207  0.97356  Biso   1.000  N
  N98      1.0000 0.80160  0.75459  0.93903  Biso   1.000  N
  C505     1.0000 0.75204  0.83366  0.05320  Biso   1.000  C
  C506     1.0000 0.73331  0.85613  0.09760  Biso   1.000  C
  H469     1.0000 0.72960  0.87800  0.07980  Biso   1.000  H
  C507     1.0000 0.72050  0.84668  0.16590  Biso   1.000  C
  H470     1.0000 0.70760  0.86210  0.19340  Biso   1.000  H
  C508     1.0000 0.72580  0.81580  0.19580  Biso   1.000  C
  H471     1.0000 0.71880  0.81060  0.24530  Biso   1.000  H
  C509     1.0000 0.74200  0.79202  0.15020  Biso   1.000  C
  H472     1.0000 0.74420  0.76990  0.16740  Biso   1.000  H
  C510     1.0000 0.75451  0.80083  0.08040  Biso   1.000  C
  C511     1.0000 0.77129  0.77475  0.03770  Biso   1.000  C
  C512     1.0000 0.81821  0.76400  0.88011  Biso   1.000  C
  C513     1.0000 0.83646  0.73874  0.83490  Biso   1.000  C
  H473     1.0000 0.84990  0.72510  0.86950  Biso   1.000  H
  H474     1.0000 0.82010  0.72400  0.81070  Biso   1.000  H
  C514     1.0000 0.85882  0.75223  0.77520  Biso   1.000  C
  H475     1.0000 0.87740  0.76380  0.79880  Biso   1.000  H
  H476     1.0000 0.86720  0.73400  0.74440  Biso   1.000  H
  H477     1.0000 0.84650  0.76770  0.74350  Biso   1.000  H
  Mn38     1.0000 0.78382  0.70817  0.99688  Biso   1.000  Mn
  O112     1.0000 0.82487  0.69900  0.03854  Biso   1.000  O
  O113     1.0000 0.81578  0.63472  0.85115  Biso   1.000  O
  O114     1.0000 0.74214  0.71085  0.94439  Biso   1.000  O
  N99      1.0000 0.78994  0.67311  0.92403  Biso   1.000  N
  N100     1.0000 0.76210  0.66764  0.87757  Biso   1.000  N
  N101     1.0000 0.75622  0.67550  0.08110  Biso   1.000  N
  C515     1.0000 0.84744  0.67687  0.01950  Biso   1.000  C
  C516     1.0000 0.87616  0.67483  0.06470  Biso   1.000  C
  H478     1.0000 0.87840  0.68910  0.10680  Biso   1.000  H
  C517     1.0000 0.90072  0.65260  0.04860  Biso   1.000  C
  H479     1.0000 0.91980  0.65190  0.07970  Biso   1.000  H
  C518     1.0000 0.89849  0.63113  0.98810  Biso   1.000  C
  H480     1.0000 0.91570  0.61570  0.97800  Biso   1.000  H
  C519     1.0000 0.87088  0.63257  0.94290  Biso   1.000  C
  H481     1.0000 0.86920  0.61790  0.90140  Biso   1.000  H
  C520     1.0000 0.84494  0.65530  0.95690  Biso   1.000  C
  C521     1.0000 0.81567  0.65421  0.90774  Biso   1.000  C
  C522     1.0000 0.73864  0.68814  0.89340  Biso   1.000  C
  C523     1.0000 0.70598  0.68519  0.85520  Biso   1.000  C
  H482     1.0000 0.70410  0.70300  0.81740  Biso   1.000  H
  H483     1.0000 0.70520  0.66380  0.82810  Biso   1.000  H
  C524     1.0000 0.67637  0.68710  0.90730  Biso   1.000  C
  H484     1.0000 0.67690  0.70810  0.93470  Biso   1.000  H
  H485     1.0000 0.65600  0.68570  0.87780  Biso   1.000  H
  H486     1.0000 0.67720  0.66870  0.94310  Biso   1.000  H
  C525     1.0000 0.76000  0.64546  0.08880  Biso   1.000  C
  H487     1.0000 0.77720  0.63550  0.06030  Biso   1.000  H
  C526     1.0000 0.74160  0.62452  0.13530  Biso   1.000  C
  H488     1.0000 0.74630  0.60150  0.13550  Biso   1.000  H
  C527     1.0000 0.71960  0.63537  0.17580  Biso   1.000  C
  C528     1.0000 0.70740  0.66730  0.15610  Biso   1.000  C
  H489     1.0000 0.68690  0.67510  0.17540  Biso   1.000  H
  C529     1.0000 0.72600  0.68676  0.10870  Biso   1.000  C
  H490     1.0000 0.71820  0.70800  0.09470  Biso   1.000  H
  C530     1.0000 0.70090  0.61326  0.23040  Biso   1.000  C
  H491     1.0000 0.71570  0.59480  0.24480  Biso   1.000  H
  H492     1.0000 0.68180  0.60350  0.20340  Biso   1.000  H
  Mn39     1.0000 0.72166  0.86303  0.72155  Biso   1.000  Mn
  O115     1.0000 0.74184  0.90139  0.68979  Biso   1.000  O
  O116     1.0000 0.80197  0.86478  0.86755  Biso   1.000  O
  O117     1.0000 0.70628  0.82224  0.76537  Biso   1.000  O
  N102     1.0000 0.75636  0.85570  0.79514  Biso   1.000  N
  N103     1.0000 0.75378  0.82551  0.83485  Biso   1.000  N
  N104     1.0000 0.64096  0.56063  0.44627  Biso   1.000  N
  C531     1.0000 0.76651  0.91841  0.72180  Biso   1.000  C
  C532     1.0000 0.77244  0.95008  0.69400  Biso   1.000  C
  H493     1.0000 0.75910  0.95830  0.65420  Biso   1.000  H
  C533     1.0000 0.79742  0.96987  0.72300  Biso   1.000  C
  H494     1.0000 0.80100  0.99130  0.70300  Biso   1.000  H
  C534     1.0000 0.81733  0.95839  0.78160  Biso   1.000  C
  H495     1.0000 0.83430  0.97190  0.80190  Biso   1.000  H
  C535     1.0000 0.81190  0.92717  0.80940  Biso   1.000  C
  H496     1.0000 0.82550  0.91910  0.84880  Biso   1.000  H
  C536     1.0000 0.78664  0.90678  0.78090  Biso   1.000  C
  C537     1.0000 0.78191  0.87422  0.81610  Biso   1.000  C
  C538     1.0000 0.72707  0.81028  0.81480  Biso   1.000  C
  C539     1.0000 0.71792  0.77832  0.85200  Biso   1.000  C
  H497     1.0000 0.73770  0.76820  0.87510  Biso   1.000  H
  H498     1.0000 0.70890  0.76270  0.81440  Biso   1.000  H
  C540     1.0000 0.69100  0.78570  0.91450  Biso   1.000  C
  H499     1.0000 0.70100  0.79880  0.95490  Biso   1.000  H
  H500     1.0000 0.68270  0.76480  0.93500  Biso   1.000  H
  H501     1.0000 0.67260  0.79810  0.89230  Biso   1.000  H
  C541     1.0000 0.66736  0.57805  0.46630  Biso   1.000  C
  H502     1.0000 0.67530  0.57570  0.51620  Biso   1.000  H
  C542     1.0000 0.68391  0.59938  0.41920  Biso   1.000  C
  H503     1.0000 0.70280  0.61110  0.43620  Biso   1.000  H
  C543     1.0000 0.67255  0.60333  0.34730  Biso   1.000  C
  C544     1.0000 0.64580  0.58550  0.32620  Biso   1.000  C
  H504     1.0000 0.63720  0.58780  0.27690  Biso   1.000  H
  C545     1.0000 0.63075  0.56371  0.37590  Biso   1.000  C
  H505     1.0000 0.61270  0.55070  0.35900  Biso   1.000  H
  C546     1.0000 0.68960  0.62740  0.29350  Biso   1.000  C
  H506     1.0000 0.70840  0.63790  0.31990  Biso   1.000  H
  H507     1.0000 0.67370  0.64500  0.27980  Biso   1.000  H
  Mn40     1.0000 0.29334  0.32398  0.42375  Biso   1.000  Mn
  O118     1.0000 0.26625  0.34527  0.49371  Biso   1.000  O
  O119     1.0000 0.27137  0.24515  0.56384  Biso   1.000  O
  O120     1.0000 0.31953  0.29523  0.36000  Biso   1.000  O
  N105     1.0000 0.28595  0.28207  0.47356  Biso   1.000  N
  N106     1.0000 0.30160  0.25459  0.43903  Biso   1.000  N
  C547     1.0000 0.25204  0.33366  0.55320  Biso   1.000  C
  C548     1.0000 0.23331  0.35613  0.59760  Biso   1.000  C
  H508     1.0000 0.22960  0.37800  0.57980  Biso   1.000  H
  C549     1.0000 0.22050  0.34668  0.66590  Biso   1.000  C
  H509     1.0000 0.20760  0.36210  0.69340  Biso   1.000  H
  C550     1.0000 0.22580  0.31580  0.69580  Biso   1.000  C
  H510     1.0000 0.21880  0.31060  0.74530  Biso   1.000  H
  C551     1.0000 0.24200  0.29202  0.65020  Biso   1.000  C
  H511     1.0000 0.24420  0.26990  0.66740  Biso   1.000  H
  C552     1.0000 0.25451  0.30083  0.58040  Biso   1.000  C
  C553     1.0000 0.27129  0.27475  0.53770  Biso   1.000  C
  C554     1.0000 0.31821  0.26400  0.38011  Biso   1.000  C
  C555     1.0000 0.33646  0.23874  0.33490  Biso   1.000  C
  H512     1.0000 0.34990  0.22510  0.36950  Biso   1.000  H
  H513     1.0000 0.32010  0.22400  0.31070  Biso   1.000  H
  C556     1.0000 0.35882  0.25223  0.27520  Biso   1.000  C
  H514     1.0000 0.37740  0.26380  0.29880  Biso   1.000  H
  H515     1.0000 0.36720  0.23400  0.24440  Biso   1.000  H
  H516     1.0000 0.34650  0.26770  0.24350  Biso   1.000  H
  Mn41     1.0000 0.28382  0.20817  0.49688  Biso   1.000  Mn
  O121     1.0000 0.32487  0.19900  0.53854  Biso   1.000  O
  O122     1.0000 0.31578  0.13472  0.35115  Biso   1.000  O
  O123     1.0000 0.24214  0.21085  0.44439  Biso   1.000  O
  N107     1.0000 0.28994  0.17311  0.42403  Biso   1.000  N
  N108     1.0000 0.26210  0.16764  0.37757  Biso   1.000  N
  N109     1.0000 0.25622  0.17550  0.58110  Biso   1.000  N
  C557     1.0000 0.34744  0.17687  0.51950  Biso   1.000  C
  C558     1.0000 0.37616  0.17483  0.56470  Biso   1.000  C
  H517     1.0000 0.37840  0.18910  0.60680  Biso   1.000  H
  C559     1.0000 0.40072  0.15260  0.54860  Biso   1.000  C
  H518     1.0000 0.41980  0.15190  0.57970  Biso   1.000  H
  C560     1.0000 0.39849  0.13113  0.48810  Biso   1.000  C
  H519     1.0000 0.41570  0.11570  0.47800  Biso   1.000  H
  C561     1.0000 0.37088  0.13257  0.44290  Biso   1.000  C
  H520     1.0000 0.36920  0.11790  0.40140  Biso   1.000  H
  C562     1.0000 0.34494  0.15530  0.45690  Biso   1.000  C
  C563     1.0000 0.31567  0.15421  0.40774  Biso   1.000  C
  C564     1.0000 0.23864  0.18814  0.39340  Biso   1.000  C
  C565     1.0000 0.20598  0.18519  0.35520  Biso   1.000  C
  H521     1.0000 0.20410  0.20300  0.31740  Biso   1.000  H
  H522     1.0000 0.20520  0.16380  0.32810  Biso   1.000  H
  C566     1.0000 0.17637  0.18710  0.40730  Biso   1.000  C
  H523     1.0000 0.17690  0.20810  0.43470  Biso   1.000  H
  H524     1.0000 0.15600  0.18570  0.37780  Biso   1.000  H
  H525     1.0000 0.17720  0.16870  0.44310  Biso   1.000  H
  C567     1.0000 0.26000  0.14546  0.58880  Biso   1.000  C
  H526     1.0000 0.27720  0.13550  0.56030  Biso   1.000  H
  C568     1.0000 0.24160  0.12452  0.63530  Biso   1.000  C
  H527     1.0000 0.24630  0.10150  0.63550  Biso   1.000  H
  C569     1.0000 0.21960  0.13537  0.67580  Biso   1.000  C
  C570     1.0000 0.20740  0.16730  0.65610  Biso   1.000  C
  H528     1.0000 0.18690  0.17510  0.67540  Biso   1.000  H
  C571     1.0000 0.22600  0.18676  0.60870  Biso   1.000  C
  H529     1.0000 0.21820  0.20800  0.59470  Biso   1.000  H
  C572     1.0000 0.20090  0.11326  0.73040  Biso   1.000  C
  H530     1.0000 0.21570  0.09480  0.74480  Biso   1.000  H
  H531     1.0000 0.18180  0.10350  0.70340  Biso   1.000  H
  Mn42     1.0000 0.22166  0.36303  0.22155  Biso   1.000  Mn
  O124     1.0000 0.24184  0.40139  0.18979  Biso   1.000  O
  O125     1.0000 0.30197  0.36478  0.36755  Biso   1.000  O
  O126     1.0000 0.20628  0.32224  0.26537  Biso   1.000  O
  N110     1.0000 0.25636  0.35570  0.29514  Biso   1.000  N
  N111     1.0000 0.25378  0.32551  0.33485  Biso   1.000  N
  N112     1.0000 0.14096  0.06063  0.94627  Biso   1.000  N
  C573     1.0000 0.26651  0.41841  0.22180  Biso   1.000  C
  C574     1.0000 0.27244  0.45008  0.19400  Biso   1.000  C
  H532     1.0000 0.25910  0.45830  0.15420  Biso   1.000  H
  C575     1.0000 0.29742  0.46987  0.22300  Biso   1.000  C
  H533     1.0000 0.30100  0.49130  0.20300  Biso   1.000  H
  C576     1.0000 0.31733  0.45839  0.28160  Biso   1.000  C
  H534     1.0000 0.33430  0.47190  0.30190  Biso   1.000  H
  C577     1.0000 0.31190  0.42717  0.30940  Biso   1.000  C
  H535     1.0000 0.32550  0.41910  0.34880  Biso   1.000  H
  C578     1.0000 0.28664  0.40678  0.28090  Biso   1.000  C
  C579     1.0000 0.28191  0.37422  0.31610  Biso   1.000  C
  C580     1.0000 0.22707  0.31028  0.31480  Biso   1.000  C
  C581     1.0000 0.21792  0.27832  0.35200  Biso   1.000  C
  H536     1.0000 0.23770  0.26820  0.37510  Biso   1.000  H
  H537     1.0000 0.20890  0.26270  0.31440  Biso   1.000  H
  C582     1.0000 0.19100  0.28570  0.41450  Biso   1.000  C
  H538     1.0000 0.20100  0.29880  0.45490  Biso   1.000  H
  H539     1.0000 0.18270  0.26480  0.43500  Biso   1.000  H
  H540     1.0000 0.17260  0.29810  0.39230  Biso   1.000  H
  C583     1.0000 0.16736  0.07805  0.96630  Biso   1.000  C
  H541     1.0000 0.17530  0.07570  0.01620  Biso   1.000  H
  C584     1.0000 0.18391  0.09938  0.91920  Biso   1.000  C
  H542     1.0000 0.20280  0.11110  0.93620  Biso   1.000  H
  C585     1.0000 0.17255  0.10333  0.84730  Biso   1.000  C
  C586     1.0000 0.14580  0.08550  0.82620  Biso   1.000  C
  H543     1.0000 0.13720  0.08780  0.77690  Biso   1.000  H
  C587     1.0000 0.13075  0.06371  0.87590  Biso   1.000  C
  H544     1.0000 0.11270  0.05070  0.85900  Biso   1.000  H
  C588     1.0000 0.18960  0.12740  0.79350  Biso   1.000  C
  H545     1.0000 0.20840  0.13790  0.81990  Biso   1.000  H
  H546     1.0000 0.17370  0.14500  0.77980  Biso   1.000  H
  Mn43     1.0000 0.70666  0.17602  0.42375  Biso   1.000  Mn
  O127     1.0000 0.73375  0.15473  0.49371  Biso   1.000  O
  O128     1.0000 0.72863  0.25485  0.56384  Biso   1.000  O
  O129     1.0000 0.68047  0.20477  0.36000  Biso   1.000  O
  N113     1.0000 0.71405  0.21793  0.47356  Biso   1.000  N
  N114     1.0000 0.69840  0.24541  0.43903  Biso   1.000  N
  C589     1.0000 0.74796  0.16634  0.55320  Biso   1.000  C
  C590     1.0000 0.76669  0.14387  0.59760  Biso   1.000  C
  H547     1.0000 0.77040  0.12200  0.57980  Biso   1.000  H
  C591     1.0000 0.77950  0.15332  0.66590  Biso   1.000  C
  H548     1.0000 0.79240  0.13790  0.69340  Biso   1.000  H
  C592     1.0000 0.77420  0.18420  0.69580  Biso   1.000  C
  H549     1.0000 0.78120  0.18940  0.74530  Biso   1.000  H
  C593     1.0000 0.75800  0.20798  0.65020  Biso   1.000  C
  H550     1.0000 0.75580  0.23010  0.66740  Biso   1.000  H
  C594     1.0000 0.74549  0.19917  0.58040  Biso   1.000  C
  C595     1.0000 0.72871  0.22525  0.53770  Biso   1.000  C
  C596     1.0000 0.68179  0.23600  0.38011  Biso   1.000  C
  C597     1.0000 0.66354  0.26126  0.33490  Biso   1.000  C
  H551     1.0000 0.65010  0.27490  0.36950  Biso   1.000  H
  H552     1.0000 0.67990  0.27600  0.31070  Biso   1.000  H
  C598     1.0000 0.64118  0.24777  0.27520  Biso   1.000  C
  H553     1.0000 0.62260  0.23620  0.29880  Biso   1.000  H
  H554     1.0000 0.63280  0.26600  0.24440  Biso   1.000  H
  H555     1.0000 0.65350  0.23230  0.24350  Biso   1.000  H
  Mn44     1.0000 0.71618  0.29183  0.49688  Biso   1.000  Mn
  O130     1.0000 0.67513  0.30100  0.53854  Biso   1.000  O
  O131     1.0000 0.68422  0.36528  0.35115  Biso   1.000  O
  O132     1.0000 0.75786  0.28915  0.44439  Biso   1.000  O
  N115     1.0000 0.71006  0.32689  0.42403  Biso   1.000  N
  N116     1.0000 0.73790  0.33236  0.37757  Biso   1.000  N
  N117     1.0000 0.74378  0.32450  0.58110  Biso   1.000  N
  C599     1.0000 0.65256  0.32313  0.51950  Biso   1.000  C
  C600     1.0000 0.62384  0.32517  0.56470  Biso   1.000  C
  H556     1.0000 0.62160  0.31090  0.60680  Biso   1.000  H
  C601     1.0000 0.59928  0.34740  0.54860  Biso   1.000  C
  H557     1.0000 0.58020  0.34810  0.57970  Biso   1.000  H
  C602     1.0000 0.60151  0.36887  0.48810  Biso   1.000  C
  H558     1.0000 0.58430  0.38430  0.47800  Biso   1.000  H
  C603     1.0000 0.62912  0.36743  0.44290  Biso   1.000  C
  H559     1.0000 0.63080  0.38210  0.40140  Biso   1.000  H
  C604     1.0000 0.65506  0.34470  0.45690  Biso   1.000  C
  C605     1.0000 0.68433  0.34579  0.40774  Biso   1.000  C
  C606     1.0000 0.76136  0.31186  0.39340  Biso   1.000  C
  C607     1.0000 0.79402  0.31481  0.35520  Biso   1.000  C
  H560     1.0000 0.79590  0.29700  0.31740  Biso   1.000  H
  H561     1.0000 0.79480  0.33620  0.32810  Biso   1.000  H
  C608     1.0000 0.82363  0.31290  0.40730  Biso   1.000  C
  H562     1.0000 0.82310  0.29190  0.43470  Biso   1.000  H
  H563     1.0000 0.84400  0.31430  0.37780  Biso   1.000  H
  H564     1.0000 0.82280  0.33130  0.44310  Biso   1.000  H
  C609     1.0000 0.74000  0.35454  0.58880  Biso   1.000  C
  H565     1.0000 0.72280  0.36450  0.56030  Biso   1.000  H
  C610     1.0000 0.75840  0.37548  0.63530  Biso   1.000  C
  H566     1.0000 0.75370  0.39850  0.63550  Biso   1.000  H
  C611     1.0000 0.78040  0.36463  0.67580  Biso   1.000  C
  C612     1.0000 0.79260  0.33270  0.65610  Biso   1.000  C
  H567     1.0000 0.81310  0.32490  0.67540  Biso   1.000  H
  C613     1.0000 0.77400  0.31324  0.60870  Biso   1.000  C
  H568     1.0000 0.78180  0.29200  0.59470  Biso   1.000  H
  C614     1.0000 0.79910  0.38674  0.73040  Biso   1.000  C
  H569     1.0000 0.78430  0.40520  0.74480  Biso   1.000  H
  H570     1.0000 0.81820  0.39650  0.70340  Biso   1.000  H
  Mn45     1.0000 0.77834  0.13697  0.22155  Biso   1.000  Mn
  O133     1.0000 0.75816  0.09861  0.18979  Biso   1.000  O
  O134     1.0000 0.69803  0.13522  0.36755  Biso   1.000  O
  O135     1.0000 0.79372  0.17776  0.26537  Biso   1.000  O
  N118     1.0000 0.74364  0.14430  0.29514  Biso   1.000  N
  N119     1.0000 0.74622  0.17449  0.33485  Biso   1.000  N
  N120     1.0000 0.85904  0.43937  0.94627  Biso   1.000  N
  C615     1.0000 0.73349  0.08159  0.22180  Biso   1.000  C
  C616     1.0000 0.72756  0.04992  0.19400  Biso   1.000  C
  H571     1.0000 0.74090  0.04170  0.15420  Biso   1.000  H
  C617     1.0000 0.70258  0.03013  0.22300  Biso   1.000  C
  H572     1.0000 0.69900  0.00870  0.20300  Biso   1.000  H
  C618     1.0000 0.68267  0.04161  0.28160  Biso   1.000  C
  H573     1.0000 0.66570  0.02810  0.30190  Biso   1.000  H
  C619     1.0000 0.68810  0.07283  0.30940  Biso   1.000  C
  H574     1.0000 0.67450  0.08090  0.34880  Biso   1.000  H
  C620     1.0000 0.71336  0.09322  0.28090  Biso   1.000  C
  C621     1.0000 0.71809  0.12578  0.31610  Biso   1.000  C
  C622     1.0000 0.77293  0.18972  0.31480  Biso   1.000  C
  C623     1.0000 0.78208  0.22168  0.35200  Biso   1.000  C
  H575     1.0000 0.76230  0.23180  0.37510  Biso   1.000  H
  H576     1.0000 0.79110  0.23730  0.31440  Biso   1.000  H
  C624     1.0000 0.80900  0.21430  0.41450  Biso   1.000  C
  H577     1.0000 0.79900  0.20120  0.45490  Biso   1.000  H
  H578     1.0000 0.81730  0.23520  0.43500  Biso   1.000  H
  H579     1.0000 0.82740  0.20190  0.39230  Biso   1.000  H
  C625     1.0000 0.83264  0.42195  0.96630  Biso   1.000  C
  H580     1.0000 0.82470  0.42430  0.01620  Biso   1.000  H
  C626     1.0000 0.81609  0.40062  0.91920  Biso   1.000  C
  H581     1.0000 0.79720  0.38890  0.93620  Biso   1.000  H
  C627     1.0000 0.82745  0.39667  0.84730  Biso   1.000  C
  C628     1.0000 0.85420  0.41450  0.82620  Biso   1.000  C
  H582     1.0000 0.86280  0.41220  0.77690  Biso   1.000  H
  C629     1.0000 0.86925  0.43629  0.87590  Biso   1.000  C
  H583     1.0000 0.88730  0.44930  0.85900  Biso   1.000  H
  C630     1.0000 0.81040  0.37260  0.79350  Biso   1.000  C
  H584     1.0000 0.79160  0.36210  0.81990  Biso   1.000  H
  H585     1.0000 0.82630  0.35500  0.77980  Biso   1.000  H
  Mn46     1.0000 0.20666  0.67602  0.92375  Biso   1.000  Mn
  O136     1.0000 0.23375  0.65473  0.99371  Biso   1.000  O
  O137     1.0000 0.22863  0.75485  0.06384  Biso   1.000  O
  O138     1.0000 0.18047  0.70477  0.86000  Biso   1.000  O
  N121     1.0000 0.21405  0.71793  0.97356  Biso   1.000  N
  N122     1.0000 0.19840  0.74541  0.93903  Biso   1.000  N
  C631     1.0000 0.24796  0.66634  0.05320  Biso   1.000  C
  C632     1.0000 0.26669  0.64387  0.09760  Biso   1.000  C
  H586     1.0000 0.27040  0.62200  0.07980  Biso   1.000  H
  C633     1.0000 0.27950  0.65332  0.16590  Biso   1.000  C
  H587     1.0000 0.29240  0.63790  0.19340  Biso   1.000  H
  C634     1.0000 0.27420  0.68420  0.19580  Biso   1.000  C
  H588     1.0000 0.28120  0.68940  0.24530  Biso   1.000  H
  C635     1.0000 0.25800  0.70798  0.15020  Biso   1.000  C
  H589     1.0000 0.25580  0.73010  0.16740  Biso   1.000  H
  C636     1.0000 0.24549  0.69917  0.08040  Biso   1.000  C
  C637     1.0000 0.22871  0.72525  0.03770  Biso   1.000  C
  C638     1.0000 0.18179  0.73600  0.88011  Biso   1.000  C
  C639     1.0000 0.16354  0.76126  0.83490  Biso   1.000  C
  H590     1.0000 0.15010  0.77490  0.86950  Biso   1.000  H
  H591     1.0000 0.17990  0.77600  0.81070  Biso   1.000  H
  C640     1.0000 0.14118  0.74777  0.77520  Biso   1.000  C
  H592     1.0000 0.12260  0.73620  0.79880  Biso   1.000  H
  H593     1.0000 0.13280  0.76600  0.74440  Biso   1.000  H
  H594     1.0000 0.15350  0.73230  0.74350  Biso   1.000  H
  Mn47     1.0000 0.21618  0.79183  0.99688  Biso   1.000  Mn
  O139     1.0000 0.17513  0.80100  0.03854  Biso   1.000  O
  O140     1.0000 0.18422  0.86528  0.85115  Biso   1.000  O
  O141     1.0000 0.25786  0.78915  0.94439  Biso   1.000  O
  N123     1.0000 0.21006  0.82689  0.92403  Biso   1.000  N
  N124     1.0000 0.23790  0.83236  0.87757  Biso   1.000  N
  N125     1.0000 0.24378  0.82450  0.08110  Biso   1.000  N
  C641     1.0000 0.15256  0.82313  0.01950  Biso   1.000  C
  C642     1.0000 0.12384  0.82517  0.06470  Biso   1.000  C
  H595     1.0000 0.12160  0.81090  0.10680  Biso   1.000  H
  C643     1.0000 0.09928  0.84740  0.04860  Biso   1.000  C
  H596     1.0000 0.08020  0.84810  0.07970  Biso   1.000  H
  C644     1.0000 0.10151  0.86887  0.98810  Biso   1.000  C
  H597     1.0000 0.08430  0.88430  0.97800  Biso   1.000  H
  C645     1.0000 0.12912  0.86743  0.94290  Biso   1.000  C
  H598     1.0000 0.13080  0.88210  0.90140  Biso   1.000  H
  C646     1.0000 0.15506  0.84470  0.95690  Biso   1.000  C
  C647     1.0000 0.18433  0.84579  0.90774  Biso   1.000  C
  C648     1.0000 0.26136  0.81186  0.89340  Biso   1.000  C
  C649     1.0000 0.29402  0.81481  0.85520  Biso   1.000  C
  H599     1.0000 0.29590  0.79700  0.81740  Biso   1.000  H
  H600     1.0000 0.29480  0.83620  0.82810  Biso   1.000  H
  C650     1.0000 0.32363  0.81290  0.90730  Biso   1.000  C
  H601     1.0000 0.32310  0.79190  0.93470  Biso   1.000  H
  H602     1.0000 0.34400  0.81430  0.87780  Biso   1.000  H
  H603     1.0000 0.32280  0.83130  0.94310  Biso   1.000  H
  C651     1.0000 0.24000  0.85454  0.08880  Biso   1.000  C
  H604     1.0000 0.22280  0.86450  0.06030  Biso   1.000  H
  C652     1.0000 0.25840  0.87548  0.13530  Biso   1.000  C
  H605     1.0000 0.25370  0.89850  0.13550  Biso   1.000  H
  C653     1.0000 0.28040  0.86463  0.17580  Biso   1.000  C
  C654     1.0000 0.29260  0.83270  0.15610  Biso   1.000  C
  H606     1.0000 0.31310  0.82490  0.17540  Biso   1.000  H
  C655     1.0000 0.27400  0.81324  0.10870  Biso   1.000  C
  H607     1.0000 0.28180  0.79200  0.09470  Biso   1.000  H
  C656     1.0000 0.29910  0.88674  0.23040  Biso   1.000  C
  H608     1.0000 0.28430  0.90520  0.24480  Biso   1.000  H
  H609     1.0000 0.31820  0.89650  0.20340  Biso   1.000  H
  Mn48     1.0000 0.27834  0.63697  0.72155  Biso   1.000  Mn
  O142     1.0000 0.25816  0.59861  0.68979  Biso   1.000  O
  O143     1.0000 0.19803  0.63522  0.86755  Biso   1.000  O
  O144     1.0000 0.29372  0.67776  0.76537  Biso   1.000  O
  N126     1.0000 0.24364  0.64430  0.79514  Biso   1.000  N
  N127     1.0000 0.24622  0.67449  0.83485  Biso   1.000  N
  N128     1.0000 0.35904  0.93937  0.44627  Biso   1.000  N
  C657     1.0000 0.23349  0.58159  0.72180  Biso   1.000  C
  C658     1.0000 0.22756  0.54992  0.69400  Biso   1.000  C
  H610     1.0000 0.24090  0.54170  0.65420  Biso   1.000  H
  C659     1.0000 0.20258  0.53013  0.72300  Biso   1.000  C
  H611     1.0000 0.19900  0.50870  0.70300  Biso   1.000  H
  C660     1.0000 0.18267  0.54161  0.78160  Biso   1.000  C
  H612     1.0000 0.16570  0.52810  0.80190  Biso   1.000  H
  C661     1.0000 0.18810  0.57283  0.80940  Biso   1.000  C
  H613     1.0000 0.17450  0.58090  0.84880  Biso   1.000  H
  C662     1.0000 0.21336  0.59322  0.78090  Biso   1.000  C
  C663     1.0000 0.21809  0.62578  0.81610  Biso   1.000  C
  C664     1.0000 0.27293  0.68972  0.81480  Biso   1.000  C
  C665     1.0000 0.28208  0.72168  0.85200  Biso   1.000  C
  H614     1.0000 0.26230  0.73180  0.87510  Biso   1.000  H
  H615     1.0000 0.29110  0.73730  0.81440  Biso   1.000  H
  C666     1.0000 0.30900  0.71430  0.91450  Biso   1.000  C
  H616     1.0000 0.29900  0.70120  0.95490  Biso   1.000  H
  H617     1.0000 0.31730  0.73520  0.93500  Biso   1.000  H
  H618     1.0000 0.32740  0.70190  0.89230  Biso   1.000  H
  C667     1.0000 0.33264  0.92195  0.46630  Biso   1.000  C
  H619     1.0000 0.32470  0.92430  0.51620  Biso   1.000  H
  C668     1.0000 0.31609  0.90062  0.41920  Biso   1.000  C
  H620     1.0000 0.29720  0.88890  0.43620  Biso   1.000  H
  C669     1.0000 0.32745  0.89667  0.34730  Biso   1.000  C
  C670     1.0000 0.35420  0.91450  0.32620  Biso   1.000  C
  H621     1.0000 0.36280  0.91220  0.27690  Biso   1.000  H
  C671     1.0000 0.36925  0.93629  0.37590  Biso   1.000  C
  H622     1.0000 0.38730  0.94930  0.35900  Biso   1.000  H
  C672     1.0000 0.31040  0.87260  0.29350  Biso   1.000  C
  H623     1.0000 0.29160  0.86210  0.31990  Biso   1.000  H
  H624     1.0000 0.32630  0.85500  0.27980  Biso   1.000  H
