data_image0
_cell_length_a       40.5408
_cell_length_b       40.5408
_cell_length_c       17.6055
_cell_angle_alpha    90
_cell_angle_beta     90
_cell_angle_gamma    90

_symmetry_space_group_name_H-M    "P 1"
_symmetry_int_tables_number       1

loop_
  _symmetry_equiv_pos_as_xyz
  'x, y, z'

loop_
  _atom_site_label
  _atom_site_occupancy
  _atom_site_fract_x
  _atom_site_fract_y
  _atom_site_fract_z
  _atom_site_thermal_displace_type
  _atom_site_B_iso_or_equiv
  _atom_site_type_symbol
  Mn1      1.0000 0.57439  0.45518  0.32838  Biso   1.000  Mn
  O1       1.0000 0.59564  0.48175  0.25620  Biso   1.000  O
  O2       1.0000 0.49600  0.47497  0.18383  Biso   1.000  O
  O3       1.0000 0.54562  0.42969  0.39455  Biso   1.000  O
  N1       1.0000 0.53268  0.46152  0.27646  Biso   1.000  N
  N2       1.0000 0.50535  0.44557  0.31224  Biso   1.000  N
  C1       1.0000 0.58417  0.49710  0.19910  Biso   1.000  C
  C2       1.0000 0.60535  0.51721  0.15800  Biso   1.000  C
  H1       1.0000 0.62700  0.52070  0.17690  Biso   1.000  H
  C3       1.0000 0.59670  0.53200  0.09270  Biso   1.000  C
  H2       1.0000 0.61180  0.54650  0.06850  Biso   1.000  H
  C4       1.0000 0.56480  0.52640  0.05830  Biso   1.000  C
  H3       1.0000 0.55960  0.53400  0.00870  Biso   1.000  H
  C5       1.0000 0.54173  0.50860  0.10380  Biso   1.000  C
  H4       1.0000 0.51950  0.50700  0.08750  Biso   1.000  H
  C6       1.0000 0.55099  0.49404  0.17050  Biso   1.000  C
  C7       1.0000 0.52545  0.47642  0.21200  Biso   1.000  C
  C8       1.0000 0.51476  0.42998  0.37290  Biso   1.000  C
  C9       1.0000 0.48987  0.41220  0.41910  Biso   1.000  C
  H5       1.0000 0.47570  0.39920  0.38430  Biso   1.000  H
  H6       1.0000 0.47560  0.42880  0.44410  Biso   1.000  H
  C10      1.0000 0.50290  0.38952  0.47860  Biso   1.000  C
  H7       1.0000 0.51840  0.37390  0.45550  Biso   1.000  H
  H8       1.0000 0.48460  0.37730  0.50170  Biso   1.000  H
  H9       1.0000 0.51430  0.40240  0.51780  Biso   1.000  H
  Mn2      1.0000 0.45902  0.46272  0.25253  Biso   1.000  Mn
  O4       1.0000 0.44998  0.42109  0.21261  Biso   1.000  O
  O5       1.0000 0.38483  0.43293  0.39966  Biso   1.000  O
  O6       1.0000 0.46183  0.50500  0.30337  Biso   1.000  O
  N3       1.0000 0.42408  0.45735  0.32713  Biso   1.000  N
  N4       1.0000 0.41891  0.48558  0.37260  Biso   1.000  N
  N5       1.0000 0.42570  0.48829  0.16580  Biso   1.000  N
  C11      1.0000 0.42744  0.39900  0.23240  Biso   1.000  C
  C12      1.0000 0.42526  0.37026  0.18800  Biso   1.000  C
  H10      1.0000 0.43950  0.36750  0.14570  Biso   1.000  H
  C13      1.0000 0.40281  0.34635  0.20530  Biso   1.000  C
  H11      1.0000 0.40180  0.32700  0.17480  Biso   1.000  H
  C14      1.0000 0.38149  0.34955  0.26600  Biso   1.000  C
  H12      1.0000 0.36600  0.33260  0.27730  Biso   1.000  H
  C15      1.0000 0.38292  0.37740  0.30990  Biso   1.000  C
  H13      1.0000 0.36810  0.37970  0.35140  Biso   1.000  H
  C16      1.0000 0.40564  0.40256  0.29510  Biso   1.000  C
  C17      1.0000 0.40472  0.43209  0.34380  Biso   1.000  C
  C18      1.0000 0.43940  0.50888  0.35490  Biso   1.000  C
  C19      1.0000 0.43636  0.54208  0.39300  Biso   1.000  C
  H14      1.0000 0.41930  0.54050  0.43310  Biso   1.000  H
  H15      1.0000 0.45760  0.54730  0.41810  Biso   1.000  H
  C20      1.0000 0.42820  0.56830  0.34420  Biso   1.000  C
  H16      1.0000 0.44760  0.58230  0.33640  Biso   1.000  H
  H17      1.0000 0.41040  0.58140  0.36700  Biso   1.000  H
  H18      1.0000 0.42080  0.55950  0.29530  Biso   1.000  H
  C21      1.0000 0.43670  0.51940  0.14220  Biso   1.000  C
  H19      1.0000 0.45810  0.52700  0.15630  Biso   1.000  H
  C22      1.0000 0.41560  0.53980  0.09670  Biso   1.000  C
  H20      1.0000 0.42180  0.56170  0.08290  Biso   1.000  H
  C23      1.0000 0.38481  0.52570  0.07310  Biso   1.000  C
  C24      1.0000 0.37529  0.50460  0.11430  Biso   1.000  C
  H21      1.0000 0.35230  0.50020  0.11690  Biso   1.000  H
  C25      1.0000 0.39666  0.48620  0.15900  Biso   1.000  C
  H22      1.0000 0.38650  0.46940  0.18850  Biso   1.000  H
  C26      1.0000 0.36140  0.54450  0.01970  Biso   1.000  C
  H23      1.0000 0.34480  0.52880  0.99990  Biso   1.000  H
  H24      1.0000 0.34940  0.56130  0.04980  Biso   1.000  H
  Mn3      1.0000 0.61301  0.52921  0.52836  Biso   1.000  Mn
  O7       1.0000 0.65088  0.50868  0.56457  Biso   1.000  O
  O8       1.0000 0.61526  0.44753  0.38603  Biso   1.000  O
  O9       1.0000 0.57260  0.54440  0.48114  Biso   1.000  O
  N6       1.0000 0.60602  0.49361  0.45623  Biso   1.000  N
  N7       1.0000 0.57594  0.49608  0.41500  Biso   1.000  N
  N8       1.0000 0.31004  0.60828  0.80630  Biso   1.000  N
  C27      1.0000 0.66795  0.48388  0.53420  Biso   1.000  C
  C28      1.0000 0.69928  0.47760  0.56330  Biso   1.000  C
  H25      1.0000 0.70750  0.49110  0.60320  Biso   1.000  H
  C29      1.0000 0.71859  0.45259  0.53630  Biso   1.000  C
  H26      1.0000 0.73950  0.44870  0.55870  Biso   1.000  H
  C30      1.0000 0.70828  0.43295  0.47720  Biso   1.000  C
  H27      1.0000 0.72220  0.41610  0.45750  Biso   1.000  H
  C31      1.0000 0.67718  0.43823  0.44720  Biso   1.000  C
  H28      1.0000 0.66950  0.42420  0.40770  Biso   1.000  H
  C32      1.0000 0.65680  0.46353  0.47330  Biso   1.000  C
  C33      1.0000 0.62426  0.46807  0.43690  Biso   1.000  C
  C34      1.0000 0.56107  0.52342  0.43240  Biso   1.000  C
  C35      1.0000 0.52923  0.53168  0.39460  Biso   1.000  C
  H29      1.0000 0.52000  0.51200  0.36900  Biso   1.000  H
  H30      1.0000 0.51300  0.53960  0.43240  Biso   1.000  H
  C36      1.0000 0.32898  0.58336  0.78530  Biso   1.000  C
  H31      1.0000 0.32830  0.57660  0.73360  Biso   1.000  H
  C37      1.0000 0.34944  0.56686  0.83350  Biso   1.000  C
  H32      1.0000 0.36230  0.54890  0.81560  Biso   1.000  H
  C38      1.0000 0.35129  0.57629  0.90790  Biso   1.000  C
  C39      1.0000 0.33132  0.60153  0.93090  Biso   1.000  C
  H33      1.0000 0.33160  0.60850  0.98240  Biso   1.000  H
  C40      1.0000 0.31084  0.61694  0.87990  Biso   1.000  C
  H34      1.0000 0.29690  0.63420  0.89720  Biso   1.000  H
  C41      1.0000 0.37550  0.55920  0.96180  Biso   1.000  C
  H35      1.0000 0.38830  0.54270  0.93280  Biso   1.000  H
  H36      1.0000 0.39120  0.57590  0.98140  Biso   1.000  H
  Mn4      1.0000 0.07439  0.95518  0.82838  Biso   1.000  Mn
  O10      1.0000 0.09564  0.98175  0.75620  Biso   1.000  O
  O11      1.0000 0.99600  0.97497  0.68383  Biso   1.000  O
  O12      1.0000 0.04562  0.92969  0.89455  Biso   1.000  O
  N9       1.0000 0.03268  0.96152  0.77646  Biso   1.000  N
  N10      1.0000 0.00535  0.94557  0.81224  Biso   1.000  N
  C42      1.0000 0.08417  0.99710  0.69910  Biso   1.000  C
  C43      1.0000 0.10535  0.01721  0.65800  Biso   1.000  C
  H37      1.0000 0.12700  0.02070  0.67690  Biso   1.000  H
  C44      1.0000 0.09670  0.03200  0.59270  Biso   1.000  C
  H38      1.0000 0.11180  0.04650  0.56850  Biso   1.000  H
  C45      1.0000 0.06480  0.02640  0.55830  Biso   1.000  C
  H39      1.0000 0.05960  0.03400  0.50870  Biso   1.000  H
  C46      1.0000 0.04173  0.00860  0.60380  Biso   1.000  C
  H40      1.0000 0.01950  0.00700  0.58750  Biso   1.000  H
  C47      1.0000 0.05099  0.99404  0.67050  Biso   1.000  C
  C48      1.0000 0.02545  0.97642  0.71200  Biso   1.000  C
  C49      1.0000 0.01476  0.92998  0.87290  Biso   1.000  C
  C50      1.0000 0.98987  0.91220  0.91910  Biso   1.000  C
  H41      1.0000 0.97570  0.89920  0.88430  Biso   1.000  H
  H42      1.0000 0.97560  0.92880  0.94410  Biso   1.000  H
  C51      1.0000 0.00290  0.88952  0.97860  Biso   1.000  C
  H43      1.0000 0.01840  0.87390  0.95550  Biso   1.000  H
  H44      1.0000 0.98460  0.87730  0.00170  Biso   1.000  H
  H45      1.0000 0.01430  0.90240  0.01780  Biso   1.000  H
  Mn5      1.0000 0.95902  0.96272  0.75253  Biso   1.000  Mn
  O13      1.0000 0.94998  0.92109  0.71261  Biso   1.000  O
  O14      1.0000 0.88483  0.93293  0.89966  Biso   1.000  O
  O15      1.0000 0.96183  0.00500  0.80337  Biso   1.000  O
  N11      1.0000 0.92408  0.95735  0.82713  Biso   1.000  N
  N12      1.0000 0.91891  0.98558  0.87260  Biso   1.000  N
  N13      1.0000 0.92570  0.98829  0.66580  Biso   1.000  N
  C52      1.0000 0.92744  0.89900  0.73240  Biso   1.000  C
  C53      1.0000 0.92526  0.87026  0.68800  Biso   1.000  C
  H46      1.0000 0.93950  0.86750  0.64570  Biso   1.000  H
  C54      1.0000 0.90281  0.84635  0.70530  Biso   1.000  C
  H47      1.0000 0.90180  0.82700  0.67480  Biso   1.000  H
  C55      1.0000 0.88149  0.84955  0.76600  Biso   1.000  C
  H48      1.0000 0.86600  0.83260  0.77730  Biso   1.000  H
  C56      1.0000 0.88292  0.87740  0.80990  Biso   1.000  C
  H49      1.0000 0.86810  0.87970  0.85140  Biso   1.000  H
  C57      1.0000 0.90564  0.90256  0.79510  Biso   1.000  C
  C58      1.0000 0.90472  0.93209  0.84380  Biso   1.000  C
  C59      1.0000 0.93940  0.00888  0.85490  Biso   1.000  C
  C60      1.0000 0.93636  0.04208  0.89300  Biso   1.000  C
  H50      1.0000 0.91930  0.04050  0.93310  Biso   1.000  H
  H51      1.0000 0.95760  0.04730  0.91810  Biso   1.000  H
  C61      1.0000 0.92820  0.06830  0.84420  Biso   1.000  C
  H52      1.0000 0.94760  0.08230  0.83640  Biso   1.000  H
  H53      1.0000 0.91040  0.08140  0.86700  Biso   1.000  H
  H54      1.0000 0.92080  0.05950  0.79530  Biso   1.000  H
  C62      1.0000 0.93670  0.01940  0.64220  Biso   1.000  C
  H55      1.0000 0.95810  0.02700  0.65630  Biso   1.000  H
  C63      1.0000 0.91560  0.03980  0.59670  Biso   1.000  C
  H56      1.0000 0.92180  0.06170  0.58290  Biso   1.000  H
  C64      1.0000 0.88481  0.02570  0.57310  Biso   1.000  C
  C65      1.0000 0.87529  0.00460  0.61430  Biso   1.000  C
  H57      1.0000 0.85230  0.00020  0.61690  Biso   1.000  H
  C66      1.0000 0.89666  0.98620  0.65900  Biso   1.000  C
  H58      1.0000 0.88650  0.96940  0.68850  Biso   1.000  H
  C67      1.0000 0.86140  0.04450  0.51970  Biso   1.000  C
  H59      1.0000 0.84480  0.02880  0.49990  Biso   1.000  H
  H60      1.0000 0.84940  0.06130  0.54980  Biso   1.000  H
  Mn6      1.0000 0.11301  0.02921  0.02836  Biso   1.000  Mn
  O16      1.0000 0.15088  0.00868  0.06457  Biso   1.000  O
  O17      1.0000 0.11526  0.94753  0.88603  Biso   1.000  O
  O18      1.0000 0.07260  0.04440  0.98114  Biso   1.000  O
  N14      1.0000 0.10602  0.99361  0.95623  Biso   1.000  N
  N15      1.0000 0.07594  0.99608  0.91500  Biso   1.000  N
  N16      1.0000 0.81004  0.10828  0.30630  Biso   1.000  N
  C68      1.0000 0.16795  0.98388  0.03420  Biso   1.000  C
  C69      1.0000 0.19928  0.97760  0.06330  Biso   1.000  C
  H61      1.0000 0.20750  0.99110  0.10320  Biso   1.000  H
  C70      1.0000 0.21859  0.95259  0.03630  Biso   1.000  C
  H62      1.0000 0.23950  0.94870  0.05870  Biso   1.000  H
  C71      1.0000 0.20828  0.93295  0.97720  Biso   1.000  C
  H63      1.0000 0.22220  0.91610  0.95750  Biso   1.000  H
  C72      1.0000 0.17718  0.93823  0.94720  Biso   1.000  C
  H64      1.0000 0.16950  0.92420  0.90770  Biso   1.000  H
  C73      1.0000 0.15680  0.96353  0.97330  Biso   1.000  C
  C74      1.0000 0.12426  0.96807  0.93690  Biso   1.000  C
  C75      1.0000 0.06107  0.02342  0.93240  Biso   1.000  C
  C76      1.0000 0.02923  0.03168  0.89460  Biso   1.000  C
  H65      1.0000 0.02000  0.01200  0.86900  Biso   1.000  H
  H66      1.0000 0.01300  0.03960  0.93240  Biso   1.000  H
  C77      1.0000 0.82898  0.08336  0.28530  Biso   1.000  C
  H67      1.0000 0.82830  0.07660  0.23360  Biso   1.000  H
  C78      1.0000 0.84944  0.06686  0.33350  Biso   1.000  C
  H68      1.0000 0.86230  0.04890  0.31560  Biso   1.000  H
  C79      1.0000 0.85129  0.07629  0.40790  Biso   1.000  C
  C80      1.0000 0.83132  0.10153  0.43090  Biso   1.000  C
  H69      1.0000 0.83160  0.10850  0.48240  Biso   1.000  H
  C81      1.0000 0.81084  0.11694  0.37990  Biso   1.000  C
  H70      1.0000 0.79690  0.13420  0.39720  Biso   1.000  H
  C82      1.0000 0.87550  0.05920  0.46180  Biso   1.000  C
  H71      1.0000 0.88830  0.04270  0.43280  Biso   1.000  H
  H72      1.0000 0.89120  0.07590  0.48140  Biso   1.000  H
  Mn7      1.0000 0.92561  0.54482  0.82838  Biso   1.000  Mn
  O19      1.0000 0.90436  0.51825  0.75620  Biso   1.000  O
  O20      1.0000 0.00400  0.52503  0.68383  Biso   1.000  O
  O21      1.0000 0.95438  0.57031  0.89455  Biso   1.000  O
  N17      1.0000 0.96732  0.53848  0.77646  Biso   1.000  N
  N18      1.0000 0.99465  0.55443  0.81224  Biso   1.000  N
  C83      1.0000 0.91583  0.50290  0.69910  Biso   1.000  C
  C84      1.0000 0.89465  0.48279  0.65800  Biso   1.000  C
  H73      1.0000 0.87300  0.47930  0.67690  Biso   1.000  H
  C85      1.0000 0.90330  0.46800  0.59270  Biso   1.000  C
  H74      1.0000 0.88820  0.45350  0.56850  Biso   1.000  H
  C86      1.0000 0.93520  0.47360  0.55830  Biso   1.000  C
  H75      1.0000 0.94040  0.46600  0.50870  Biso   1.000  H
  C87      1.0000 0.95827  0.49140  0.60380  Biso   1.000  C
  H76      1.0000 0.98050  0.49300  0.58750  Biso   1.000  H
  C88      1.0000 0.94901  0.50596  0.67050  Biso   1.000  C
  C89      1.0000 0.97455  0.52358  0.71200  Biso   1.000  C
  C90      1.0000 0.98524  0.57002  0.87290  Biso   1.000  C
  C91      1.0000 0.01013  0.58780  0.91910  Biso   1.000  C
  H77      1.0000 0.02430  0.60080  0.88430  Biso   1.000  H
  H78      1.0000 0.02440  0.57120  0.94410  Biso   1.000  H
  C92      1.0000 0.99710  0.61048  0.97860  Biso   1.000  C
  H79      1.0000 0.98160  0.62610  0.95550  Biso   1.000  H
  H80      1.0000 0.01540  0.62270  0.00170  Biso   1.000  H
  H81      1.0000 0.98570  0.59760  0.01780  Biso   1.000  H
  Mn8      1.0000 0.04098  0.53728  0.75253  Biso   1.000  Mn
  O22      1.0000 0.05002  0.57891  0.71261  Biso   1.000  O
  O23      1.0000 0.11517  0.56707  0.89966  Biso   1.000  O
  O24      1.0000 0.03817  0.49500  0.80337  Biso   1.000  O
  N19      1.0000 0.07592  0.54265  0.82713  Biso   1.000  N
  N20      1.0000 0.08109  0.51442  0.87260  Biso   1.000  N
  N21      1.0000 0.07430  0.51171  0.66580  Biso   1.000  N
  C93      1.0000 0.07256  0.60100  0.73240  Biso   1.000  C
  C94      1.0000 0.07474  0.62974  0.68800  Biso   1.000  C
  H82      1.0000 0.06050  0.63250  0.64570  Biso   1.000  H
  C95      1.0000 0.09719  0.65365  0.70530  Biso   1.000  C
  H83      1.0000 0.09820  0.67300  0.67480  Biso   1.000  H
  C96      1.0000 0.11851  0.65045  0.76600  Biso   1.000  C
  H84      1.0000 0.13400  0.66740  0.77730  Biso   1.000  H
  C97      1.0000 0.11708  0.62260  0.80990  Biso   1.000  C
  H85      1.0000 0.13190  0.62030  0.85140  Biso   1.000  H
  C98      1.0000 0.09436  0.59744  0.79510  Biso   1.000  C
  C99      1.0000 0.09528  0.56791  0.84380  Biso   1.000  C
  C100     1.0000 0.06060  0.49112  0.85490  Biso   1.000  C
  C101     1.0000 0.06364  0.45792  0.89300  Biso   1.000  C
  H86      1.0000 0.08070  0.45950  0.93310  Biso   1.000  H
  H87      1.0000 0.04240  0.45270  0.91810  Biso   1.000  H
  C102     1.0000 0.07180  0.43170  0.84420  Biso   1.000  C
  H88      1.0000 0.05240  0.41770  0.83640  Biso   1.000  H
  H89      1.0000 0.08960  0.41860  0.86700  Biso   1.000  H
  H90      1.0000 0.07920  0.44050  0.79530  Biso   1.000  H
  C103     1.0000 0.06330  0.48060  0.64220  Biso   1.000  C
  H91      1.0000 0.04190  0.47300  0.65630  Biso   1.000  H
  C104     1.0000 0.08440  0.46020  0.59670  Biso   1.000  C
  H92      1.0000 0.07820  0.43830  0.58290  Biso   1.000  H
  C105     1.0000 0.11519  0.47430  0.57310  Biso   1.000  C
  C106     1.0000 0.12471  0.49540  0.61430  Biso   1.000  C
  H93      1.0000 0.14770  0.49980  0.61690  Biso   1.000  H
  C107     1.0000 0.10334  0.51380  0.65900  Biso   1.000  C
  H94      1.0000 0.11350  0.53060  0.68850  Biso   1.000  H
  C108     1.0000 0.13860  0.45550  0.51970  Biso   1.000  C
  H95      1.0000 0.15520  0.47120  0.49990  Biso   1.000  H
  H96      1.0000 0.15060  0.43870  0.54980  Biso   1.000  H
  Mn9      1.0000 0.88699  0.47079  0.02836  Biso   1.000  Mn
  O25      1.0000 0.84912  0.49132  0.06457  Biso   1.000  O
  O26      1.0000 0.88474  0.55247  0.88603  Biso   1.000  O
  O27      1.0000 0.92740  0.45560  0.98114  Biso   1.000  O
  N22      1.0000 0.89398  0.50639  0.95623  Biso   1.000  N
  N23      1.0000 0.92406  0.50392  0.91500  Biso   1.000  N
  N24      1.0000 0.18996  0.39172  0.30630  Biso   1.000  N
  C109     1.0000 0.83205  0.51612  0.03420  Biso   1.000  C
  C110     1.0000 0.80072  0.52240  0.06330  Biso   1.000  C
  H97      1.0000 0.79250  0.50890  0.10320  Biso   1.000  H
  C111     1.0000 0.78141  0.54741  0.03630  Biso   1.000  C
  H98      1.0000 0.76050  0.55130  0.05870  Biso   1.000  H
  C112     1.0000 0.79172  0.56705  0.97720  Biso   1.000  C
  H99      1.0000 0.77780  0.58390  0.95750  Biso   1.000  H
  C113     1.0000 0.82282  0.56177  0.94720  Biso   1.000  C
  H100     1.0000 0.83050  0.57580  0.90770  Biso   1.000  H
  C114     1.0000 0.84320  0.53647  0.97330  Biso   1.000  C
  C115     1.0000 0.87574  0.53193  0.93690  Biso   1.000  C
  C116     1.0000 0.93893  0.47658  0.93240  Biso   1.000  C
  C117     1.0000 0.97077  0.46832  0.89460  Biso   1.000  C
  H101     1.0000 0.98000  0.48800  0.86900  Biso   1.000  H
  H102     1.0000 0.98700  0.46040  0.93240  Biso   1.000  H
  C118     1.0000 0.17102  0.41664  0.28530  Biso   1.000  C
  H103     1.0000 0.17170  0.42340  0.23360  Biso   1.000  H
  C119     1.0000 0.15056  0.43314  0.33350  Biso   1.000  C
  H104     1.0000 0.13770  0.45110  0.31560  Biso   1.000  H
  C120     1.0000 0.14871  0.42371  0.40790  Biso   1.000  C
  C121     1.0000 0.16868  0.39847  0.43090  Biso   1.000  C
  H105     1.0000 0.16840  0.39150  0.48240  Biso   1.000  H
  C122     1.0000 0.18916  0.38306  0.37990  Biso   1.000  C
  H106     1.0000 0.20310  0.36580  0.39720  Biso   1.000  H
  C123     1.0000 0.12450  0.44080  0.46180  Biso   1.000  C
  H107     1.0000 0.11170  0.45730  0.43280  Biso   1.000  H
  H108     1.0000 0.10880  0.42410  0.48140  Biso   1.000  H
  Mn10     1.0000 0.42561  0.04482  0.32838  Biso   1.000  Mn
  O28      1.0000 0.40436  0.01825  0.25620  Biso   1.000  O
  O29      1.0000 0.50400  0.02503  0.18383  Biso   1.000  O
  O30      1.0000 0.45438  0.07031  0.39455  Biso   1.000  O
  N25      1.0000 0.46732  0.03848  0.27646  Biso   1.000  N
  N26      1.0000 0.49465  0.05443  0.31224  Biso   1.000  N
  C124     1.0000 0.41583  0.00290  0.19910  Biso   1.000  C
  C125     1.0000 0.39465  0.98279  0.15800  Biso   1.000  C
  H109     1.0000 0.37300  0.97930  0.17690  Biso   1.000  H
  C126     1.0000 0.40330  0.96800  0.09270  Biso   1.000  C
  H110     1.0000 0.38820  0.95350  0.06850  Biso   1.000  H
  C127     1.0000 0.43520  0.97360  0.05830  Biso   1.000  C
  H111     1.0000 0.44040  0.96600  0.00870  Biso   1.000  H
  C128     1.0000 0.45827  0.99140  0.10380  Biso   1.000  C
  H112     1.0000 0.48050  0.99300  0.08750  Biso   1.000  H
  C129     1.0000 0.44901  0.00596  0.17050  Biso   1.000  C
  C130     1.0000 0.47455  0.02358  0.21200  Biso   1.000  C
  C131     1.0000 0.48524  0.07002  0.37290  Biso   1.000  C
  C132     1.0000 0.51013  0.08780  0.41910  Biso   1.000  C
  H113     1.0000 0.52430  0.10080  0.38430  Biso   1.000  H
  H114     1.0000 0.52440  0.07120  0.44410  Biso   1.000  H
  C133     1.0000 0.49710  0.11048  0.47860  Biso   1.000  C
  H115     1.0000 0.48160  0.12610  0.45550  Biso   1.000  H
  H116     1.0000 0.51540  0.12270  0.50170  Biso   1.000  H
  H117     1.0000 0.48570  0.09760  0.51780  Biso   1.000  H
  Mn11     1.0000 0.54098  0.03728  0.25253  Biso   1.000  Mn
  O31      1.0000 0.55002  0.07891  0.21261  Biso   1.000  O
  O32      1.0000 0.61517  0.06707  0.39966  Biso   1.000  O
  O33      1.0000 0.53817  0.99500  0.30337  Biso   1.000  O
  N27      1.0000 0.57592  0.04265  0.32713  Biso   1.000  N
  N28      1.0000 0.58109  0.01442  0.37260  Biso   1.000  N
  N29      1.0000 0.57430  0.01171  0.16580  Biso   1.000  N
  C134     1.0000 0.57256  0.10100  0.23240  Biso   1.000  C
  C135     1.0000 0.57474  0.12974  0.18800  Biso   1.000  C
  H118     1.0000 0.56050  0.13250  0.14570  Biso   1.000  H
  C136     1.0000 0.59719  0.15365  0.20530  Biso   1.000  C
  H119     1.0000 0.59820  0.17300  0.17480  Biso   1.000  H
  C137     1.0000 0.61851  0.15045  0.26600  Biso   1.000  C
  H120     1.0000 0.63400  0.16740  0.27730  Biso   1.000  H
  C138     1.0000 0.61708  0.12260  0.30990  Biso   1.000  C
  H121     1.0000 0.63190  0.12030  0.35140  Biso   1.000  H
  C139     1.0000 0.59436  0.09744  0.29510  Biso   1.000  C
  C140     1.0000 0.59528  0.06791  0.34380  Biso   1.000  C
  C141     1.0000 0.56060  0.99112  0.35490  Biso   1.000  C
  C142     1.0000 0.56364  0.95792  0.39300  Biso   1.000  C
  H122     1.0000 0.58070  0.95950  0.43310  Biso   1.000  H
  H123     1.0000 0.54240  0.95270  0.41810  Biso   1.000  H
  C143     1.0000 0.57180  0.93170  0.34420  Biso   1.000  C
  H124     1.0000 0.55240  0.91770  0.33640  Biso   1.000  H
  H125     1.0000 0.58960  0.91860  0.36700  Biso   1.000  H
  H126     1.0000 0.57920  0.94050  0.29530  Biso   1.000  H
  C144     1.0000 0.56330  0.98060  0.14220  Biso   1.000  C
  H127     1.0000 0.54190  0.97300  0.15630  Biso   1.000  H
  C145     1.0000 0.58440  0.96020  0.09670  Biso   1.000  C
  H128     1.0000 0.57820  0.93830  0.08290  Biso   1.000  H
  C146     1.0000 0.61519  0.97430  0.07310  Biso   1.000  C
  C147     1.0000 0.62471  0.99540  0.11430  Biso   1.000  C
  H129     1.0000 0.64770  0.99980  0.11690  Biso   1.000  H
  C148     1.0000 0.60334  0.01380  0.15900  Biso   1.000  C
  H130     1.0000 0.61350  0.03060  0.18850  Biso   1.000  H
  C149     1.0000 0.63860  0.95550  0.01970  Biso   1.000  C
  H131     1.0000 0.65520  0.97120  0.99990  Biso   1.000  H
  H132     1.0000 0.65060  0.93870  0.04980  Biso   1.000  H
  Mn12     1.0000 0.38699  0.97079  0.52836  Biso   1.000  Mn
  O34      1.0000 0.34912  0.99132  0.56457  Biso   1.000  O
  O35      1.0000 0.38474  0.05247  0.38603  Biso   1.000  O
  O36      1.0000 0.42740  0.95560  0.48114  Biso   1.000  O
  N30      1.0000 0.39398  0.00639  0.45623  Biso   1.000  N
  N31      1.0000 0.42406  0.00392  0.41500  Biso   1.000  N
  N32      1.0000 0.68996  0.89172  0.80630  Biso   1.000  N
  C150     1.0000 0.33205  0.01612  0.53420  Biso   1.000  C
  C151     1.0000 0.30072  0.02240  0.56330  Biso   1.000  C
  H133     1.0000 0.29250  0.00890  0.60320  Biso   1.000  H
  C152     1.0000 0.28141  0.04741  0.53630  Biso   1.000  C
  H134     1.0000 0.26050  0.05130  0.55870  Biso   1.000  H
  C153     1.0000 0.29172  0.06705  0.47720  Biso   1.000  C
  H135     1.0000 0.27780  0.08390  0.45750  Biso   1.000  H
  C154     1.0000 0.32282  0.06177  0.44720  Biso   1.000  C
  H136     1.0000 0.33050  0.07580  0.40770  Biso   1.000  H
  C155     1.0000 0.34320  0.03647  0.47330  Biso   1.000  C
  C156     1.0000 0.37574  0.03193  0.43690  Biso   1.000  C
  C157     1.0000 0.43893  0.97658  0.43240  Biso   1.000  C
  C158     1.0000 0.47077  0.96832  0.39460  Biso   1.000  C
  H137     1.0000 0.48000  0.98800  0.36900  Biso   1.000  H
  H138     1.0000 0.48700  0.96040  0.43240  Biso   1.000  H
  C159     1.0000 0.67102  0.91664  0.78530  Biso   1.000  C
  H139     1.0000 0.67170  0.92340  0.73360  Biso   1.000  H
  C160     1.0000 0.65056  0.93314  0.83350  Biso   1.000  C
  H140     1.0000 0.63770  0.95110  0.81560  Biso   1.000  H
  C161     1.0000 0.64871  0.92371  0.90790  Biso   1.000  C
  C162     1.0000 0.66868  0.89847  0.93090  Biso   1.000  C
  H141     1.0000 0.66840  0.89150  0.98240  Biso   1.000  H
  C163     1.0000 0.68916  0.88306  0.87990  Biso   1.000  C
  H142     1.0000 0.70310  0.86580  0.89720  Biso   1.000  H
  C164     1.0000 0.62450  0.94080  0.96180  Biso   1.000  C
  H143     1.0000 0.61170  0.95730  0.93280  Biso   1.000  H
  H144     1.0000 0.60880  0.92410  0.98140  Biso   1.000  H
  Mn13     1.0000 0.29482  0.82439  0.57838  Biso   1.000  Mn
  O37      1.0000 0.26825  0.84564  0.50620  Biso   1.000  O
  O38      1.0000 0.27503  0.74600  0.43383  Biso   1.000  O
  O39      1.0000 0.32031  0.79562  0.64455  Biso   1.000  O
  N33      1.0000 0.28848  0.78268  0.52646  Biso   1.000  N
  N34      1.0000 0.30443  0.75535  0.56224  Biso   1.000  N
  C165     1.0000 0.25290  0.83417  0.44910  Biso   1.000  C
  C166     1.0000 0.23279  0.85535  0.40800  Biso   1.000  C
  H145     1.0000 0.22930  0.87700  0.42690  Biso   1.000  H
  C167     1.0000 0.21800  0.84670  0.34270  Biso   1.000  C
  H146     1.0000 0.20350  0.86180  0.31850  Biso   1.000  H
  C168     1.0000 0.22360  0.81480  0.30830  Biso   1.000  C
  H147     1.0000 0.21600  0.80960  0.25870  Biso   1.000  H
  C169     1.0000 0.24140  0.79173  0.35380  Biso   1.000  C
  H148     1.0000 0.24300  0.76950  0.33750  Biso   1.000  H
  C170     1.0000 0.25596  0.80099  0.42050  Biso   1.000  C
  C171     1.0000 0.27358  0.77545  0.46200  Biso   1.000  C
  C172     1.0000 0.32002  0.76476  0.62290  Biso   1.000  C
  C173     1.0000 0.33780  0.73987  0.66910  Biso   1.000  C
  H149     1.0000 0.35080  0.72570  0.63430  Biso   1.000  H
  H150     1.0000 0.32120  0.72560  0.69410  Biso   1.000  H
  C174     1.0000 0.36048  0.75290  0.72860  Biso   1.000  C
  H151     1.0000 0.37610  0.76840  0.70550  Biso   1.000  H
  H152     1.0000 0.37270  0.73460  0.75170  Biso   1.000  H
  H153     1.0000 0.34760  0.76430  0.76780  Biso   1.000  H
  Mn14     1.0000 0.28728  0.70902  0.50253  Biso   1.000  Mn
  O40      1.0000 0.32891  0.69998  0.46261  Biso   1.000  O
  O41      1.0000 0.31707  0.63483  0.64966  Biso   1.000  O
  O42      1.0000 0.24500  0.71183  0.55337  Biso   1.000  O
  N35      1.0000 0.29265  0.67408  0.57713  Biso   1.000  N
  N36      1.0000 0.26442  0.66891  0.62260  Biso   1.000  N
  N37      1.0000 0.26171  0.67570  0.41580  Biso   1.000  N
  C175     1.0000 0.35100  0.67744  0.48240  Biso   1.000  C
  C176     1.0000 0.37974  0.67526  0.43800  Biso   1.000  C
  H154     1.0000 0.38250  0.68950  0.39570  Biso   1.000  H
  C177     1.0000 0.40365  0.65281  0.45530  Biso   1.000  C
  H155     1.0000 0.42300  0.65180  0.42480  Biso   1.000  H
  C178     1.0000 0.40045  0.63149  0.51600  Biso   1.000  C
  H156     1.0000 0.41740  0.61600  0.52730  Biso   1.000  H
  C179     1.0000 0.37260  0.63292  0.55990  Biso   1.000  C
  H157     1.0000 0.37030  0.61810  0.60140  Biso   1.000  H
  C180     1.0000 0.34744  0.65564  0.54510  Biso   1.000  C
  C181     1.0000 0.31791  0.65472  0.59380  Biso   1.000  C
  C182     1.0000 0.24112  0.68940  0.60490  Biso   1.000  C
  C183     1.0000 0.20792  0.68636  0.64300  Biso   1.000  C
  H158     1.0000 0.20950  0.66930  0.68310  Biso   1.000  H
  H159     1.0000 0.20270  0.70760  0.66810  Biso   1.000  H
  C184     1.0000 0.18170  0.67820  0.59420  Biso   1.000  C
  H160     1.0000 0.16770  0.69760  0.58640  Biso   1.000  H
  H161     1.0000 0.16860  0.66040  0.61700  Biso   1.000  H
  H162     1.0000 0.19050  0.67080  0.54530  Biso   1.000  H
  C185     1.0000 0.23060  0.68670  0.39220  Biso   1.000  C
  H163     1.0000 0.22300  0.70810  0.40630  Biso   1.000  H
  C186     1.0000 0.21020  0.66560  0.34670  Biso   1.000  C
  H164     1.0000 0.18830  0.67180  0.33290  Biso   1.000  H
  C187     1.0000 0.22430  0.63481  0.32310  Biso   1.000  C
  C188     1.0000 0.24540  0.62529  0.36430  Biso   1.000  C
  H165     1.0000 0.24980  0.60230  0.36690  Biso   1.000  H
  C189     1.0000 0.26380  0.64666  0.40900  Biso   1.000  C
  H166     1.0000 0.28060  0.63650  0.43850  Biso   1.000  H
  C190     1.0000 0.20550  0.61140  0.26970  Biso   1.000  C
  H167     1.0000 0.22120  0.59480  0.24990  Biso   1.000  H
  H168     1.0000 0.18870  0.59940  0.29980  Biso   1.000  H
  Mn15     1.0000 0.22079  0.86301  0.77836  Biso   1.000  Mn
  O43      1.0000 0.24132  0.90088  0.81457  Biso   1.000  O
  O44      1.0000 0.30247  0.86526  0.63603  Biso   1.000  O
  O45      1.0000 0.20560  0.82260  0.73114  Biso   1.000  O
  N38      1.0000 0.25639  0.85602  0.70623  Biso   1.000  N
  N39      1.0000 0.25392  0.82594  0.66500  Biso   1.000  N
  N40      1.0000 0.14172  0.56004  0.05630  Biso   1.000  N
  C191     1.0000 0.26612  0.91795  0.78420  Biso   1.000  C
  C192     1.0000 0.27240  0.94928  0.81330  Biso   1.000  C
  H169     1.0000 0.25890  0.95750  0.85320  Biso   1.000  H
  C193     1.0000 0.29741  0.96859  0.78630  Biso   1.000  C
  H170     1.0000 0.30130  0.98950  0.80870  Biso   1.000  H
  C194     1.0000 0.31705  0.95828  0.72720  Biso   1.000  C
  H171     1.0000 0.33390  0.97220  0.70750  Biso   1.000  H
  C195     1.0000 0.31177  0.92718  0.69720  Biso   1.000  C
  H172     1.0000 0.32580  0.91950  0.65770  Biso   1.000  H
  C196     1.0000 0.28647  0.90680  0.72330  Biso   1.000  C
  C197     1.0000 0.28193  0.87426  0.68690  Biso   1.000  C
  C198     1.0000 0.22658  0.81107  0.68240  Biso   1.000  C
  C199     1.0000 0.21832  0.77923  0.64460  Biso   1.000  C
  H173     1.0000 0.23800  0.77000  0.61900  Biso   1.000  H
  H174     1.0000 0.21040  0.76300  0.68240  Biso   1.000  H
  C200     1.0000 0.16664  0.57898  0.03530  Biso   1.000  C
  H175     1.0000 0.17340  0.57830  0.98360  Biso   1.000  H
  C201     1.0000 0.18314  0.59944  0.08350  Biso   1.000  C
  H176     1.0000 0.20110  0.61230  0.06560  Biso   1.000  H
  C202     1.0000 0.17371  0.60129  0.15790  Biso   1.000  C
  C203     1.0000 0.14847  0.58132  0.18090  Biso   1.000  C
  H177     1.0000 0.14150  0.58160  0.23240  Biso   1.000  H
  C204     1.0000 0.13306  0.56084  0.12990  Biso   1.000  C
  H178     1.0000 0.11580  0.54690  0.14720  Biso   1.000  H
  C205     1.0000 0.19080  0.62550  0.21180  Biso   1.000  C
  H179     1.0000 0.20730  0.63830  0.18280  Biso   1.000  H
  H180     1.0000 0.17410  0.64120  0.23140  Biso   1.000  H
  Mn16     1.0000 0.79482  0.32439  0.07838  Biso   1.000  Mn
  O46      1.0000 0.76825  0.34564  0.00620  Biso   1.000  O
  O47      1.0000 0.77503  0.24600  0.93383  Biso   1.000  O
  O48      1.0000 0.82031  0.29562  0.14455  Biso   1.000  O
  N41      1.0000 0.78848  0.28268  0.02646  Biso   1.000  N
  N42      1.0000 0.80443  0.25535  0.06224  Biso   1.000  N
  C206     1.0000 0.75290  0.33417  0.94910  Biso   1.000  C
  C207     1.0000 0.73279  0.35535  0.90800  Biso   1.000  C
  H181     1.0000 0.72930  0.37700  0.92690  Biso   1.000  H
  C208     1.0000 0.71800  0.34670  0.84270  Biso   1.000  C
  H182     1.0000 0.70350  0.36180  0.81850  Biso   1.000  H
  C209     1.0000 0.72360  0.31480  0.80830  Biso   1.000  C
  H183     1.0000 0.71600  0.30960  0.75870  Biso   1.000  H
  C210     1.0000 0.74140  0.29173  0.85380  Biso   1.000  C
  H184     1.0000 0.74300  0.26950  0.83750  Biso   1.000  H
  C211     1.0000 0.75596  0.30099  0.92050  Biso   1.000  C
  C212     1.0000 0.77358  0.27545  0.96200  Biso   1.000  C
  C213     1.0000 0.82002  0.26476  0.12290  Biso   1.000  C
  C214     1.0000 0.83780  0.23987  0.16910  Biso   1.000  C
  H185     1.0000 0.85080  0.22570  0.13430  Biso   1.000  H
  H186     1.0000 0.82120  0.22560  0.19410  Biso   1.000  H
  C215     1.0000 0.86048  0.25290  0.22860  Biso   1.000  C
  H187     1.0000 0.87610  0.26840  0.20550  Biso   1.000  H
  H188     1.0000 0.87270  0.23460  0.25170  Biso   1.000  H
  H189     1.0000 0.84760  0.26430  0.26780  Biso   1.000  H
  Mn17     1.0000 0.78728  0.20902  0.00253  Biso   1.000  Mn
  O49      1.0000 0.82891  0.19998  0.96261  Biso   1.000  O
  O50      1.0000 0.81707  0.13483  0.14966  Biso   1.000  O
  O51      1.0000 0.74500  0.21183  0.05337  Biso   1.000  O
  N43      1.0000 0.79265  0.17408  0.07713  Biso   1.000  N
  N44      1.0000 0.76442  0.16891  0.12260  Biso   1.000  N
  N45      1.0000 0.76171  0.17570  0.91580  Biso   1.000  N
  C216     1.0000 0.85100  0.17744  0.98240  Biso   1.000  C
  C217     1.0000 0.87974  0.17526  0.93800  Biso   1.000  C
  H190     1.0000 0.88250  0.18950  0.89570  Biso   1.000  H
  C218     1.0000 0.90365  0.15281  0.95530  Biso   1.000  C
  H191     1.0000 0.92300  0.15180  0.92480  Biso   1.000  H
  C219     1.0000 0.90045  0.13149  0.01600  Biso   1.000  C
  H192     1.0000 0.91740  0.11600  0.02730  Biso   1.000  H
  C220     1.0000 0.87260  0.13292  0.05990  Biso   1.000  C
  H193     1.0000 0.87030  0.11810  0.10140  Biso   1.000  H
  C221     1.0000 0.84744  0.15564  0.04510  Biso   1.000  C
  C222     1.0000 0.81791  0.15472  0.09380  Biso   1.000  C
  C223     1.0000 0.74112  0.18940  0.10490  Biso   1.000  C
  C224     1.0000 0.70792  0.18636  0.14300  Biso   1.000  C
  H194     1.0000 0.70950  0.16930  0.18310  Biso   1.000  H
  H195     1.0000 0.70270  0.20760  0.16810  Biso   1.000  H
  C225     1.0000 0.68170  0.17820  0.09420  Biso   1.000  C
  H196     1.0000 0.66770  0.19760  0.08640  Biso   1.000  H
  H197     1.0000 0.66860  0.16040  0.11700  Biso   1.000  H
  H198     1.0000 0.69050  0.17080  0.04530  Biso   1.000  H
  C226     1.0000 0.73060  0.18670  0.89220  Biso   1.000  C
  H199     1.0000 0.72300  0.20810  0.90630  Biso   1.000  H
  C227     1.0000 0.71020  0.16560  0.84670  Biso   1.000  C
  H200     1.0000 0.68830  0.17180  0.83290  Biso   1.000  H
  C228     1.0000 0.72430  0.13481  0.82310  Biso   1.000  C
  C229     1.0000 0.74540  0.12529  0.86430  Biso   1.000  C
  H201     1.0000 0.74980  0.10230  0.86690  Biso   1.000  H
  C230     1.0000 0.76380  0.14666  0.90900  Biso   1.000  C
  H202     1.0000 0.78060  0.13650  0.93850  Biso   1.000  H
  C231     1.0000 0.70550  0.11140  0.76970  Biso   1.000  C
  H203     1.0000 0.72120  0.09480  0.74990  Biso   1.000  H
  H204     1.0000 0.68870  0.09940  0.79980  Biso   1.000  H
  Mn18     1.0000 0.72079  0.36301  0.27836  Biso   1.000  Mn
  O52      1.0000 0.74132  0.40088  0.31457  Biso   1.000  O
  O53      1.0000 0.80247  0.36526  0.13603  Biso   1.000  O
  O54      1.0000 0.70560  0.32260  0.23114  Biso   1.000  O
  N46      1.0000 0.75639  0.35602  0.20623  Biso   1.000  N
  N47      1.0000 0.75392  0.32594  0.16500  Biso   1.000  N
  N48      1.0000 0.64172  0.06004  0.55630  Biso   1.000  N
  C232     1.0000 0.76612  0.41795  0.28420  Biso   1.000  C
  C233     1.0000 0.77240  0.44928  0.31330  Biso   1.000  C
  H205     1.0000 0.75890  0.45750  0.35320  Biso   1.000  H
  C234     1.0000 0.79741  0.46859  0.28630  Biso   1.000  C
  H206     1.0000 0.80130  0.48950  0.30870  Biso   1.000  H
  C235     1.0000 0.81705  0.45828  0.22720  Biso   1.000  C
  H207     1.0000 0.83390  0.47220  0.20750  Biso   1.000  H
  C236     1.0000 0.81177  0.42718  0.19720  Biso   1.000  C
  H208     1.0000 0.82580  0.41950  0.15770  Biso   1.000  H
  C237     1.0000 0.78647  0.40680  0.22330  Biso   1.000  C
  C238     1.0000 0.78193  0.37426  0.18690  Biso   1.000  C
  C239     1.0000 0.72658  0.31107  0.18240  Biso   1.000  C
  C240     1.0000 0.71832  0.27923  0.14460  Biso   1.000  C
  H209     1.0000 0.73800  0.27000  0.11900  Biso   1.000  H
  H210     1.0000 0.71040  0.26300  0.18240  Biso   1.000  H
  C241     1.0000 0.66664  0.07898  0.53530  Biso   1.000  C
  H211     1.0000 0.67340  0.07830  0.48360  Biso   1.000  H
  C242     1.0000 0.68314  0.09944  0.58350  Biso   1.000  C
  H212     1.0000 0.70110  0.11230  0.56560  Biso   1.000  H
  C243     1.0000 0.67371  0.10129  0.65790  Biso   1.000  C
  C244     1.0000 0.64847  0.08132  0.68090  Biso   1.000  C
  H213     1.0000 0.64150  0.08160  0.73240  Biso   1.000  H
  C245     1.0000 0.63306  0.06084  0.62990  Biso   1.000  C
  H214     1.0000 0.61580  0.04690  0.64720  Biso   1.000  H
  C246     1.0000 0.69080  0.12550  0.71180  Biso   1.000  C
  H215     1.0000 0.70730  0.13830  0.68280  Biso   1.000  H
  H216     1.0000 0.67410  0.14120  0.73140  Biso   1.000  H
  Mn19     1.0000 0.20518  0.17561  0.07838  Biso   1.000  Mn
  O55      1.0000 0.23175  0.15436  0.00620  Biso   1.000  O
  O56      1.0000 0.22497  0.25400  0.93383  Biso   1.000  O
  O57      1.0000 0.17969  0.20438  0.14455  Biso   1.000  O
  N49      1.0000 0.21152  0.21732  0.02646  Biso   1.000  N
  N50      1.0000 0.19557  0.24465  0.06224  Biso   1.000  N
  C247     1.0000 0.24710  0.16583  0.94910  Biso   1.000  C
  C248     1.0000 0.26721  0.14465  0.90800  Biso   1.000  C
  H217     1.0000 0.27070  0.12300  0.92690  Biso   1.000  H
  C249     1.0000 0.28200  0.15330  0.84270  Biso   1.000  C
  H218     1.0000 0.29650  0.13820  0.81850  Biso   1.000  H
  C250     1.0000 0.27640  0.18520  0.80830  Biso   1.000  C
  H219     1.0000 0.28400  0.19040  0.75870  Biso   1.000  H
  C251     1.0000 0.25860  0.20827  0.85380  Biso   1.000  C
  H220     1.0000 0.25700  0.23050  0.83750  Biso   1.000  H
  C252     1.0000 0.24404  0.19901  0.92050  Biso   1.000  C
  C253     1.0000 0.22642  0.22455  0.96200  Biso   1.000  C
  C254     1.0000 0.17998  0.23524  0.12290  Biso   1.000  C
  C255     1.0000 0.16220  0.26013  0.16910  Biso   1.000  C
  H221     1.0000 0.14920  0.27430  0.13430  Biso   1.000  H
  H222     1.0000 0.17880  0.27440  0.19410  Biso   1.000  H
  C256     1.0000 0.13952  0.24710  0.22860  Biso   1.000  C
  H223     1.0000 0.12390  0.23160  0.20550  Biso   1.000  H
  H224     1.0000 0.12730  0.26540  0.25170  Biso   1.000  H
  H225     1.0000 0.15240  0.23570  0.26780  Biso   1.000  H
  Mn20     1.0000 0.21272  0.29098  0.00253  Biso   1.000  Mn
  O58      1.0000 0.17109  0.30002  0.96261  Biso   1.000  O
  O59      1.0000 0.18293  0.36517  0.14966  Biso   1.000  O
  O60      1.0000 0.25500  0.28817  0.05337  Biso   1.000  O
  N51      1.0000 0.20735  0.32592  0.07713  Biso   1.000  N
  N52      1.0000 0.23558  0.33109  0.12260  Biso   1.000  N
  N53      1.0000 0.23829  0.32430  0.91580  Biso   1.000  N
  C257     1.0000 0.14900  0.32256  0.98240  Biso   1.000  C
  C258     1.0000 0.12026  0.32474  0.93800  Biso   1.000  C
  H226     1.0000 0.11750  0.31050  0.89570  Biso   1.000  H
  C259     1.0000 0.09635  0.34719  0.95530  Biso   1.000  C
  H227     1.0000 0.07700  0.34820  0.92480  Biso   1.000  H
  C260     1.0000 0.09955  0.36851  0.01600  Biso   1.000  C
  H228     1.0000 0.08260  0.38400  0.02730  Biso   1.000  H
  C261     1.0000 0.12740  0.36708  0.05990  Biso   1.000  C
  H229     1.0000 0.12970  0.38190  0.10140  Biso   1.000  H
  C262     1.0000 0.15256  0.34436  0.04510  Biso   1.000  C
  C263     1.0000 0.18209  0.34528  0.09380  Biso   1.000  C
  C264     1.0000 0.25888  0.31060  0.10490  Biso   1.000  C
  C265     1.0000 0.29208  0.31364  0.14300  Biso   1.000  C
  H230     1.0000 0.29050  0.33070  0.18310  Biso   1.000  H
  H231     1.0000 0.29730  0.29240  0.16810  Biso   1.000  H
  C266     1.0000 0.31830  0.32180  0.09420  Biso   1.000  C
  H232     1.0000 0.33230  0.30240  0.08640  Biso   1.000  H
  H233     1.0000 0.33140  0.33960  0.11700  Biso   1.000  H
  H234     1.0000 0.30950  0.32920  0.04530  Biso   1.000  H
  C267     1.0000 0.26940  0.31330  0.89220  Biso   1.000  C
  H235     1.0000 0.27700  0.29190  0.90630  Biso   1.000  H
  C268     1.0000 0.28980  0.33440  0.84670  Biso   1.000  C
  H236     1.0000 0.31170  0.32820  0.83290  Biso   1.000  H
  C269     1.0000 0.27570  0.36519  0.82310  Biso   1.000  C
  C270     1.0000 0.25460  0.37471  0.86430  Biso   1.000  C
  H237     1.0000 0.25020  0.39770  0.86690  Biso   1.000  H
  C271     1.0000 0.23620  0.35334  0.90900  Biso   1.000  C
  H238     1.0000 0.21940  0.36350  0.93850  Biso   1.000  H
  C272     1.0000 0.29450  0.38860  0.76970  Biso   1.000  C
  H239     1.0000 0.27880  0.40520  0.74990  Biso   1.000  H
  H240     1.0000 0.31130  0.40060  0.79980  Biso   1.000  H
  Mn21     1.0000 0.27921  0.13699  0.27836  Biso   1.000  Mn
  O61      1.0000 0.25868  0.09912  0.31457  Biso   1.000  O
  O62      1.0000 0.19753  0.13474  0.13603  Biso   1.000  O
  O63      1.0000 0.29440  0.17740  0.23114  Biso   1.000  O
  N54      1.0000 0.24361  0.14398  0.20623  Biso   1.000  N
  N55      1.0000 0.24608  0.17406  0.16500  Biso   1.000  N
  N56      1.0000 0.35828  0.43996  0.55630  Biso   1.000  N
  C273     1.0000 0.23388  0.08205  0.28420  Biso   1.000  C
  C274     1.0000 0.22760  0.05072  0.31330  Biso   1.000  C
  H241     1.0000 0.24110  0.04250  0.35320  Biso   1.000  H
  C275     1.0000 0.20259  0.03141  0.28630  Biso   1.000  C
  H242     1.0000 0.19870  0.01050  0.30870  Biso   1.000  H
  C276     1.0000 0.18295  0.04172  0.22720  Biso   1.000  C
  H243     1.0000 0.16610  0.02780  0.20750  Biso   1.000  H
  C277     1.0000 0.18823  0.07282  0.19720  Biso   1.000  C
  H244     1.0000 0.17420  0.08050  0.15770  Biso   1.000  H
  C278     1.0000 0.21353  0.09320  0.22330  Biso   1.000  C
  C279     1.0000 0.21807  0.12574  0.18690  Biso   1.000  C
  C280     1.0000 0.27342  0.18893  0.18240  Biso   1.000  C
  C281     1.0000 0.28168  0.22077  0.14460  Biso   1.000  C
  H245     1.0000 0.26200  0.23000  0.11900  Biso   1.000  H
  H246     1.0000 0.28960  0.23700  0.18240  Biso   1.000  H
  C282     1.0000 0.33336  0.42102  0.53530  Biso   1.000  C
  H247     1.0000 0.32660  0.42170  0.48360  Biso   1.000  H
  C283     1.0000 0.31686  0.40056  0.58350  Biso   1.000  C
  H248     1.0000 0.29890  0.38770  0.56560  Biso   1.000  H
  C284     1.0000 0.32629  0.39871  0.65790  Biso   1.000  C
  C285     1.0000 0.35153  0.41868  0.68090  Biso   1.000  C
  H249     1.0000 0.35850  0.41840  0.73240  Biso   1.000  H
  C286     1.0000 0.36694  0.43916  0.62990  Biso   1.000  C
  H250     1.0000 0.38420  0.45310  0.64720  Biso   1.000  H
  C287     1.0000 0.30920  0.37450  0.71180  Biso   1.000  C
  H251     1.0000 0.29270  0.36170  0.68280  Biso   1.000  H
  H252     1.0000 0.32590  0.35880  0.73140  Biso   1.000  H
  Mn22     1.0000 0.70518  0.67561  0.57838  Biso   1.000  Mn
  O64      1.0000 0.73175  0.65436  0.50620  Biso   1.000  O
  O65      1.0000 0.72497  0.75400  0.43383  Biso   1.000  O
  O66      1.0000 0.67969  0.70438  0.64455  Biso   1.000  O
  N57      1.0000 0.71152  0.71732  0.52646  Biso   1.000  N
  N58      1.0000 0.69557  0.74465  0.56224  Biso   1.000  N
  C288     1.0000 0.74710  0.66583  0.44910  Biso   1.000  C
  C289     1.0000 0.76721  0.64465  0.40800  Biso   1.000  C
  H253     1.0000 0.77070  0.62300  0.42690  Biso   1.000  H
  C290     1.0000 0.78200  0.65330  0.34270  Biso   1.000  C
  H254     1.0000 0.79650  0.63820  0.31850  Biso   1.000  H
  C291     1.0000 0.77640  0.68520  0.30830  Biso   1.000  C
  H255     1.0000 0.78400  0.69040  0.25870  Biso   1.000  H
  C292     1.0000 0.75860  0.70827  0.35380  Biso   1.000  C
  H256     1.0000 0.75700  0.73050  0.33750  Biso   1.000  H
  C293     1.0000 0.74404  0.69901  0.42050  Biso   1.000  C
  C294     1.0000 0.72642  0.72455  0.46200  Biso   1.000  C
  C295     1.0000 0.67998  0.73524  0.62290  Biso   1.000  C
  C296     1.0000 0.66220  0.76013  0.66910  Biso   1.000  C
  H257     1.0000 0.64920  0.77430  0.63430  Biso   1.000  H
  H258     1.0000 0.67880  0.77440  0.69410  Biso   1.000  H
  C297     1.0000 0.63952  0.74710  0.72860  Biso   1.000  C
  H259     1.0000 0.62390  0.73160  0.70550  Biso   1.000  H
  H260     1.0000 0.62730  0.76540  0.75170  Biso   1.000  H
  H261     1.0000 0.65240  0.73570  0.76780  Biso   1.000  H
  Mn23     1.0000 0.71272  0.79098  0.50253  Biso   1.000  Mn
  O67      1.0000 0.67109  0.80002  0.46261  Biso   1.000  O
  O68      1.0000 0.68293  0.86517  0.64966  Biso   1.000  O
  O69      1.0000 0.75500  0.78817  0.55337  Biso   1.000  O
  N59      1.0000 0.70735  0.82592  0.57713  Biso   1.000  N
  N60      1.0000 0.73558  0.83109  0.62260  Biso   1.000  N
  N61      1.0000 0.73829  0.82430  0.41580  Biso   1.000  N
  C298     1.0000 0.64900  0.82256  0.48240  Biso   1.000  C
  C299     1.0000 0.62026  0.82474  0.43800  Biso   1.000  C
  H262     1.0000 0.61750  0.81050  0.39570  Biso   1.000  H
  C300     1.0000 0.59635  0.84719  0.45530  Biso   1.000  C
  H263     1.0000 0.57700  0.84820  0.42480  Biso   1.000  H
  C301     1.0000 0.59955  0.86851  0.51600  Biso   1.000  C
  H264     1.0000 0.58260  0.88400  0.52730  Biso   1.000  H
  C302     1.0000 0.62740  0.86708  0.55990  Biso   1.000  C
  H265     1.0000 0.62970  0.88190  0.60140  Biso   1.000  H
  C303     1.0000 0.65256  0.84436  0.54510  Biso   1.000  C
  C304     1.0000 0.68209  0.84528  0.59380  Biso   1.000  C
  C305     1.0000 0.75888  0.81060  0.60490  Biso   1.000  C
  C306     1.0000 0.79208  0.81364  0.64300  Biso   1.000  C
  H266     1.0000 0.79050  0.83070  0.68310  Biso   1.000  H
  H267     1.0000 0.79730  0.79240  0.66810  Biso   1.000  H
  C307     1.0000 0.81830  0.82180  0.59420  Biso   1.000  C
  H268     1.0000 0.83230  0.80240  0.58640  Biso   1.000  H
  H269     1.0000 0.83140  0.83960  0.61700  Biso   1.000  H
  H270     1.0000 0.80950  0.82920  0.54530  Biso   1.000  H
  C308     1.0000 0.76940  0.81330  0.39220  Biso   1.000  C
  H271     1.0000 0.77700  0.79190  0.40630  Biso   1.000  H
  C309     1.0000 0.78980  0.83440  0.34670  Biso   1.000  C
  H272     1.0000 0.81170  0.82820  0.33290  Biso   1.000  H
  C310     1.0000 0.77570  0.86519  0.32310  Biso   1.000  C
  C311     1.0000 0.75460  0.87471  0.36430  Biso   1.000  C
  H273     1.0000 0.75020  0.89770  0.36690  Biso   1.000  H
  C312     1.0000 0.73620  0.85334  0.40900  Biso   1.000  C
  H274     1.0000 0.71940  0.86350  0.43850  Biso   1.000  H
  C313     1.0000 0.79450  0.88860  0.26970  Biso   1.000  C
  H275     1.0000 0.77880  0.90520  0.24990  Biso   1.000  H
  H276     1.0000 0.81130  0.90060  0.29980  Biso   1.000  H
  Mn24     1.0000 0.77921  0.63699  0.77836  Biso   1.000  Mn
  O70      1.0000 0.75868  0.59912  0.81457  Biso   1.000  O
  O71      1.0000 0.69753  0.63474  0.63603  Biso   1.000  O
  O72      1.0000 0.79440  0.67740  0.73114  Biso   1.000  O
  N62      1.0000 0.74361  0.64398  0.70623  Biso   1.000  N
  N63      1.0000 0.74608  0.67406  0.66500  Biso   1.000  N
  N64      1.0000 0.85828  0.93996  0.05630  Biso   1.000  N
  C314     1.0000 0.73388  0.58205  0.78420  Biso   1.000  C
  C315     1.0000 0.72760  0.55072  0.81330  Biso   1.000  C
  H277     1.0000 0.74110  0.54250  0.85320  Biso   1.000  H
  C316     1.0000 0.70259  0.53141  0.78630  Biso   1.000  C
  H278     1.0000 0.69870  0.51050  0.80870  Biso   1.000  H
  C317     1.0000 0.68295  0.54172  0.72720  Biso   1.000  C
  H279     1.0000 0.66610  0.52780  0.70750  Biso   1.000  H
  C318     1.0000 0.68823  0.57282  0.69720  Biso   1.000  C
  H280     1.0000 0.67420  0.58050  0.65770  Biso   1.000  H
  C319     1.0000 0.71353  0.59320  0.72330  Biso   1.000  C
  C320     1.0000 0.71807  0.62574  0.68690  Biso   1.000  C
  C321     1.0000 0.77342  0.68893  0.68240  Biso   1.000  C
  C322     1.0000 0.78168  0.72077  0.64460  Biso   1.000  C
  H281     1.0000 0.76200  0.73000  0.61900  Biso   1.000  H
  H282     1.0000 0.78960  0.73700  0.68240  Biso   1.000  H
  C323     1.0000 0.83336  0.92102  0.03530  Biso   1.000  C
  H283     1.0000 0.82660  0.92170  0.98360  Biso   1.000  H
  C324     1.0000 0.81686  0.90056  0.08350  Biso   1.000  C
  H284     1.0000 0.79890  0.88770  0.06560  Biso   1.000  H
  C325     1.0000 0.82629  0.89871  0.15790  Biso   1.000  C
  C326     1.0000 0.85153  0.91868  0.18090  Biso   1.000  C
  H285     1.0000 0.85850  0.91840  0.23240  Biso   1.000  H
  C327     1.0000 0.86694  0.93916  0.12990  Biso   1.000  C
  H286     1.0000 0.88420  0.95310  0.14720  Biso   1.000  H
  C328     1.0000 0.80920  0.87450  0.21180  Biso   1.000  C
  H287     1.0000 0.79270  0.86170  0.18280  Biso   1.000  H
  H288     1.0000 0.82590  0.85880  0.23140  Biso   1.000  H
  Mn25     1.0000 0.42561  0.54482  0.67162  Biso   1.000  Mn
  O73      1.0000 0.40436  0.51825  0.74380  Biso   1.000  O
  O74      1.0000 0.50400  0.52503  0.81617  Biso   1.000  O
  O75      1.0000 0.45438  0.57031  0.60545  Biso   1.000  O
  N65      1.0000 0.46732  0.53848  0.72354  Biso   1.000  N
  N66      1.0000 0.49465  0.55443  0.68776  Biso   1.000  N
  C329     1.0000 0.41583  0.50290  0.80090  Biso   1.000  C
  C330     1.0000 0.39465  0.48279  0.84200  Biso   1.000  C
  H289     1.0000 0.37300  0.47930  0.82310  Biso   1.000  H
  C331     1.0000 0.40330  0.46800  0.90730  Biso   1.000  C
  H290     1.0000 0.38820  0.45350  0.93150  Biso   1.000  H
  C332     1.0000 0.43520  0.47360  0.94170  Biso   1.000  C
  H291     1.0000 0.44040  0.46600  0.99130  Biso   1.000  H
  C333     1.0000 0.45827  0.49140  0.89620  Biso   1.000  C
  H292     1.0000 0.48050  0.49300  0.91250  Biso   1.000  H
  C334     1.0000 0.44901  0.50596  0.82950  Biso   1.000  C
  C335     1.0000 0.47455  0.52358  0.78800  Biso   1.000  C
  C336     1.0000 0.48524  0.57002  0.62710  Biso   1.000  C
  C337     1.0000 0.51013  0.58780  0.58090  Biso   1.000  C
  H293     1.0000 0.52430  0.60080  0.61570  Biso   1.000  H
  H294     1.0000 0.52440  0.57120  0.55590  Biso   1.000  H
  C338     1.0000 0.49710  0.61048  0.52140  Biso   1.000  C
  H295     1.0000 0.48160  0.62610  0.54450  Biso   1.000  H
  H296     1.0000 0.51540  0.62270  0.49830  Biso   1.000  H
  H297     1.0000 0.48570  0.59760  0.48220  Biso   1.000  H
  Mn26     1.0000 0.54098  0.53728  0.74747  Biso   1.000  Mn
  O76      1.0000 0.55002  0.57891  0.78739  Biso   1.000  O
  O77      1.0000 0.61517  0.56707  0.60034  Biso   1.000  O
  O78      1.0000 0.53817  0.49500  0.69663  Biso   1.000  O
  N67      1.0000 0.57592  0.54265  0.67287  Biso   1.000  N
  N68      1.0000 0.58109  0.51442  0.62740  Biso   1.000  N
  N69      1.0000 0.57430  0.51171  0.83420  Biso   1.000  N
  C339     1.0000 0.57256  0.60100  0.76760  Biso   1.000  C
  C340     1.0000 0.57474  0.62974  0.81200  Biso   1.000  C
  H298     1.0000 0.56050  0.63250  0.85430  Biso   1.000  H
  C341     1.0000 0.59719  0.65365  0.79470  Biso   1.000  C
  H299     1.0000 0.59820  0.67300  0.82520  Biso   1.000  H
  C342     1.0000 0.61851  0.65045  0.73400  Biso   1.000  C
  H300     1.0000 0.63400  0.66740  0.72270  Biso   1.000  H
  C343     1.0000 0.61708  0.62260  0.69010  Biso   1.000  C
  H301     1.0000 0.63190  0.62030  0.64860  Biso   1.000  H
  C344     1.0000 0.59436  0.59744  0.70490  Biso   1.000  C
  C345     1.0000 0.59528  0.56791  0.65620  Biso   1.000  C
  C346     1.0000 0.56060  0.49112  0.64510  Biso   1.000  C
  C347     1.0000 0.56364  0.45792  0.60700  Biso   1.000  C
  H302     1.0000 0.58070  0.45950  0.56690  Biso   1.000  H
  H303     1.0000 0.54240  0.45270  0.58190  Biso   1.000  H
  C348     1.0000 0.57180  0.43170  0.65580  Biso   1.000  C
  H304     1.0000 0.55240  0.41770  0.66360  Biso   1.000  H
  H305     1.0000 0.58960  0.41860  0.63300  Biso   1.000  H
  H306     1.0000 0.57920  0.44050  0.70470  Biso   1.000  H
  C349     1.0000 0.56330  0.48060  0.85780  Biso   1.000  C
  H307     1.0000 0.54190  0.47300  0.84370  Biso   1.000  H
  C350     1.0000 0.58440  0.46020  0.90330  Biso   1.000  C
  H308     1.0000 0.57820  0.43830  0.91710  Biso   1.000  H
  C351     1.0000 0.61519  0.47430  0.92690  Biso   1.000  C
  C352     1.0000 0.62471  0.49540  0.88570  Biso   1.000  C
  H309     1.0000 0.64770  0.49980  0.88310  Biso   1.000  H
  C353     1.0000 0.60334  0.51380  0.84100  Biso   1.000  C
  H310     1.0000 0.61350  0.53060  0.81150  Biso   1.000  H
  C354     1.0000 0.63860  0.45550  0.98030  Biso   1.000  C
  H311     1.0000 0.65520  0.47120  0.00010  Biso   1.000  H
  H312     1.0000 0.65060  0.43870  0.95020  Biso   1.000  H
  Mn27     1.0000 0.38699  0.47079  0.47164  Biso   1.000  Mn
  O79      1.0000 0.34912  0.49132  0.43543  Biso   1.000  O
  O80      1.0000 0.38474  0.55247  0.61397  Biso   1.000  O
  O81      1.0000 0.42740  0.45560  0.51886  Biso   1.000  O
  N70      1.0000 0.39398  0.50639  0.54377  Biso   1.000  N
  N71      1.0000 0.42406  0.50392  0.58500  Biso   1.000  N
  N72      1.0000 0.68996  0.39172  0.19370  Biso   1.000  N
  C355     1.0000 0.33205  0.51612  0.46580  Biso   1.000  C
  C356     1.0000 0.30072  0.52240  0.43670  Biso   1.000  C
  H313     1.0000 0.29250  0.50890  0.39680  Biso   1.000  H
  C357     1.0000 0.28141  0.54741  0.46370  Biso   1.000  C
  H314     1.0000 0.26050  0.55130  0.44130  Biso   1.000  H
  C358     1.0000 0.29172  0.56705  0.52280  Biso   1.000  C
  H315     1.0000 0.27780  0.58390  0.54250  Biso   1.000  H
  C359     1.0000 0.32282  0.56177  0.55280  Biso   1.000  C
  H316     1.0000 0.33050  0.57580  0.59230  Biso   1.000  H
  C360     1.0000 0.34320  0.53647  0.52670  Biso   1.000  C
  C361     1.0000 0.37574  0.53193  0.56310  Biso   1.000  C
  C362     1.0000 0.43893  0.47658  0.56760  Biso   1.000  C
  C363     1.0000 0.47077  0.46832  0.60540  Biso   1.000  C
  H317     1.0000 0.48000  0.48800  0.63100  Biso   1.000  H
  H318     1.0000 0.48700  0.46040  0.56760  Biso   1.000  H
  C364     1.0000 0.67102  0.41664  0.21470  Biso   1.000  C
  H319     1.0000 0.67170  0.42340  0.26640  Biso   1.000  H
  C365     1.0000 0.65056  0.43314  0.16650  Biso   1.000  C
  H320     1.0000 0.63770  0.45110  0.18440  Biso   1.000  H
  C366     1.0000 0.64871  0.42371  0.09210  Biso   1.000  C
  C367     1.0000 0.66868  0.39847  0.06910  Biso   1.000  C
  H321     1.0000 0.66840  0.39150  0.01760  Biso   1.000  H
  C368     1.0000 0.68916  0.38306  0.12010  Biso   1.000  C
  H322     1.0000 0.70310  0.36580  0.10280  Biso   1.000  H
  C369     1.0000 0.62450  0.44080  0.03820  Biso   1.000  C
  H323     1.0000 0.61170  0.45730  0.06720  Biso   1.000  H
  H324     1.0000 0.60880  0.42410  0.01860  Biso   1.000  H
  Mn28     1.0000 0.92561  0.04482  0.17162  Biso   1.000  Mn
  O82      1.0000 0.90436  0.01825  0.24380  Biso   1.000  O
  O83      1.0000 0.00400  0.02503  0.31617  Biso   1.000  O
  O84      1.0000 0.95438  0.07031  0.10545  Biso   1.000  O
  N73      1.0000 0.96732  0.03848  0.22354  Biso   1.000  N
  N74      1.0000 0.99465  0.05443  0.18776  Biso   1.000  N
  C370     1.0000 0.91583  0.00290  0.30090  Biso   1.000  C
  C371     1.0000 0.89465  0.98279  0.34200  Biso   1.000  C
  H325     1.0000 0.87300  0.97930  0.32310  Biso   1.000  H
  C372     1.0000 0.90330  0.96800  0.40730  Biso   1.000  C
  H326     1.0000 0.88820  0.95350  0.43150  Biso   1.000  H
  C373     1.0000 0.93520  0.97360  0.44170  Biso   1.000  C
  H327     1.0000 0.94040  0.96600  0.49130  Biso   1.000  H
  C374     1.0000 0.95827  0.99140  0.39620  Biso   1.000  C
  H328     1.0000 0.98050  0.99300  0.41250  Biso   1.000  H
  C375     1.0000 0.94901  0.00596  0.32950  Biso   1.000  C
  C376     1.0000 0.97455  0.02358  0.28800  Biso   1.000  C
  C377     1.0000 0.98524  0.07002  0.12710  Biso   1.000  C
  C378     1.0000 0.01013  0.08780  0.08090  Biso   1.000  C
  H329     1.0000 0.02430  0.10080  0.11570  Biso   1.000  H
  H330     1.0000 0.02440  0.07120  0.05590  Biso   1.000  H
  C379     1.0000 0.99710  0.11048  0.02140  Biso   1.000  C
  H331     1.0000 0.98160  0.12610  0.04450  Biso   1.000  H
  H332     1.0000 0.01540  0.12270  0.99830  Biso   1.000  H
  H333     1.0000 0.98570  0.09760  0.98220  Biso   1.000  H
  Mn29     1.0000 0.04098  0.03728  0.24747  Biso   1.000  Mn
  O85      1.0000 0.05002  0.07891  0.28739  Biso   1.000  O
  O86      1.0000 0.11517  0.06707  0.10034  Biso   1.000  O
  O87      1.0000 0.03817  0.99500  0.19663  Biso   1.000  O
  N75      1.0000 0.07592  0.04265  0.17287  Biso   1.000  N
  N76      1.0000 0.08109  0.01442  0.12740  Biso   1.000  N
  N77      1.0000 0.07430  0.01171  0.33420  Biso   1.000  N
  C380     1.0000 0.07256  0.10100  0.26760  Biso   1.000  C
  C381     1.0000 0.07474  0.12974  0.31200  Biso   1.000  C
  H334     1.0000 0.06050  0.13250  0.35430  Biso   1.000  H
  C382     1.0000 0.09719  0.15365  0.29470  Biso   1.000  C
  H335     1.0000 0.09820  0.17300  0.32520  Biso   1.000  H
  C383     1.0000 0.11851  0.15045  0.23400  Biso   1.000  C
  H336     1.0000 0.13400  0.16740  0.22270  Biso   1.000  H
  C384     1.0000 0.11708  0.12260  0.19010  Biso   1.000  C
  H337     1.0000 0.13190  0.12030  0.14860  Biso   1.000  H
  C385     1.0000 0.09436  0.09744  0.20490  Biso   1.000  C
  C386     1.0000 0.09528  0.06791  0.15620  Biso   1.000  C
  C387     1.0000 0.06060  0.99112  0.14510  Biso   1.000  C
  C388     1.0000 0.06364  0.95792  0.10700  Biso   1.000  C
  H338     1.0000 0.08070  0.95950  0.06690  Biso   1.000  H
  H339     1.0000 0.04240  0.95270  0.08190  Biso   1.000  H
  C389     1.0000 0.07180  0.93170  0.15580  Biso   1.000  C
  H340     1.0000 0.05240  0.91770  0.16360  Biso   1.000  H
  H341     1.0000 0.08960  0.91860  0.13300  Biso   1.000  H
  H342     1.0000 0.07920  0.94050  0.20470  Biso   1.000  H
  C390     1.0000 0.06330  0.98060  0.35780  Biso   1.000  C
  H343     1.0000 0.04190  0.97300  0.34370  Biso   1.000  H
  C391     1.0000 0.08440  0.96020  0.40330  Biso   1.000  C
  H344     1.0000 0.07820  0.93830  0.41710  Biso   1.000  H
  C392     1.0000 0.11519  0.97430  0.42690  Biso   1.000  C
  C393     1.0000 0.12471  0.99540  0.38570  Biso   1.000  C
  H345     1.0000 0.14770  0.99980  0.38310  Biso   1.000  H
  C394     1.0000 0.10334  0.01380  0.34100  Biso   1.000  C
  H346     1.0000 0.11350  0.03060  0.31150  Biso   1.000  H
  C395     1.0000 0.13860  0.95550  0.48030  Biso   1.000  C
  H347     1.0000 0.15520  0.97120  0.50010  Biso   1.000  H
  H348     1.0000 0.15060  0.93870  0.45020  Biso   1.000  H
  Mn30     1.0000 0.88699  0.97079  0.97164  Biso   1.000  Mn
  O88      1.0000 0.84912  0.99132  0.93543  Biso   1.000  O
  O89      1.0000 0.88474  0.05247  0.11397  Biso   1.000  O
  O90      1.0000 0.92740  0.95560  0.01886  Biso   1.000  O
  N78      1.0000 0.89398  0.00639  0.04377  Biso   1.000  N
  N79      1.0000 0.92406  0.00392  0.08500  Biso   1.000  N
  N80      1.0000 0.18996  0.89172  0.69370  Biso   1.000  N
  C396     1.0000 0.83205  0.01612  0.96580  Biso   1.000  C
  C397     1.0000 0.80072  0.02240  0.93670  Biso   1.000  C
  H349     1.0000 0.79250  0.00890  0.89680  Biso   1.000  H
  C398     1.0000 0.78141  0.04741  0.96370  Biso   1.000  C
  H350     1.0000 0.76050  0.05130  0.94130  Biso   1.000  H
  C399     1.0000 0.79172  0.06705  0.02280  Biso   1.000  C
  H351     1.0000 0.77780  0.08390  0.04250  Biso   1.000  H
  C400     1.0000 0.82282  0.06177  0.05280  Biso   1.000  C
  H352     1.0000 0.83050  0.07580  0.09230  Biso   1.000  H
  C401     1.0000 0.84320  0.03647  0.02670  Biso   1.000  C
  C402     1.0000 0.87574  0.03193  0.06310  Biso   1.000  C
  C403     1.0000 0.93893  0.97658  0.06760  Biso   1.000  C
  C404     1.0000 0.97077  0.96832  0.10540  Biso   1.000  C
  H353     1.0000 0.98000  0.98800  0.13100  Biso   1.000  H
  H354     1.0000 0.98700  0.96040  0.06760  Biso   1.000  H
  C405     1.0000 0.17102  0.91664  0.71470  Biso   1.000  C
  H355     1.0000 0.17170  0.92340  0.76640  Biso   1.000  H
  C406     1.0000 0.15056  0.93314  0.66650  Biso   1.000  C
  H356     1.0000 0.13770  0.95110  0.68440  Biso   1.000  H
  C407     1.0000 0.14871  0.92371  0.59210  Biso   1.000  C
  C408     1.0000 0.16868  0.89847  0.56910  Biso   1.000  C
  H357     1.0000 0.16840  0.89150  0.51760  Biso   1.000  H
  C409     1.0000 0.18916  0.88306  0.62010  Biso   1.000  C
  H358     1.0000 0.20310  0.86580  0.60280  Biso   1.000  H
  C410     1.0000 0.12450  0.94080  0.53820  Biso   1.000  C
  H359     1.0000 0.11170  0.95730  0.56720  Biso   1.000  H
  H360     1.0000 0.10880  0.92410  0.51860  Biso   1.000  H
  Mn31     1.0000 0.07439  0.45518  0.17162  Biso   1.000  Mn
  O91      1.0000 0.09564  0.48175  0.24380  Biso   1.000  O
  O92      1.0000 0.99600  0.47497  0.31617  Biso   1.000  O
  O93      1.0000 0.04562  0.42969  0.10545  Biso   1.000  O
  N81      1.0000 0.03268  0.46152  0.22354  Biso   1.000  N
  N82      1.0000 0.00535  0.44557  0.18776  Biso   1.000  N
  C411     1.0000 0.08417  0.49710  0.30090  Biso   1.000  C
  C412     1.0000 0.10535  0.51721  0.34200  Biso   1.000  C
  H361     1.0000 0.12700  0.52070  0.32310  Biso   1.000  H
  C413     1.0000 0.09670  0.53200  0.40730  Biso   1.000  C
  H362     1.0000 0.11180  0.54650  0.43150  Biso   1.000  H
  C414     1.0000 0.06480  0.52640  0.44170  Biso   1.000  C
  H363     1.0000 0.05960  0.53400  0.49130  Biso   1.000  H
  C415     1.0000 0.04173  0.50860  0.39620  Biso   1.000  C
  H364     1.0000 0.01950  0.50700  0.41250  Biso   1.000  H
  C416     1.0000 0.05099  0.49404  0.32950  Biso   1.000  C
  C417     1.0000 0.02545  0.47642  0.28800  Biso   1.000  C
  C418     1.0000 0.01476  0.42998  0.12710  Biso   1.000  C
  C419     1.0000 0.98987  0.41220  0.08090  Biso   1.000  C
  H365     1.0000 0.97570  0.39920  0.11570  Biso   1.000  H
  H366     1.0000 0.97560  0.42880  0.05590  Biso   1.000  H
  C420     1.0000 0.00290  0.38952  0.02140  Biso   1.000  C
  H367     1.0000 0.01840  0.37390  0.04450  Biso   1.000  H
  H368     1.0000 0.98460  0.37730  0.99830  Biso   1.000  H
  H369     1.0000 0.01430  0.40240  0.98220  Biso   1.000  H
  Mn32     1.0000 0.95902  0.46272  0.24747  Biso   1.000  Mn
  O94      1.0000 0.94998  0.42109  0.28739  Biso   1.000  O
  O95      1.0000 0.88483  0.43293  0.10034  Biso   1.000  O
  O96      1.0000 0.96183  0.50500  0.19663  Biso   1.000  O
  N83      1.0000 0.92408  0.45735  0.17287  Biso   1.000  N
  N84      1.0000 0.91891  0.48558  0.12740  Biso   1.000  N
  N85      1.0000 0.92570  0.48829  0.33420  Biso   1.000  N
  C421     1.0000 0.92744  0.39900  0.26760  Biso   1.000  C
  C422     1.0000 0.92526  0.37026  0.31200  Biso   1.000  C
  H370     1.0000 0.93950  0.36750  0.35430  Biso   1.000  H
  C423     1.0000 0.90281  0.34635  0.29470  Biso   1.000  C
  H371     1.0000 0.90180  0.32700  0.32520  Biso   1.000  H
  C424     1.0000 0.88149  0.34955  0.23400  Biso   1.000  C
  H372     1.0000 0.86600  0.33260  0.22270  Biso   1.000  H
  C425     1.0000 0.88292  0.37740  0.19010  Biso   1.000  C
  H373     1.0000 0.86810  0.37970  0.14860  Biso   1.000  H
  C426     1.0000 0.90564  0.40256  0.20490  Biso   1.000  C
  C427     1.0000 0.90472  0.43209  0.15620  Biso   1.000  C
  C428     1.0000 0.93940  0.50888  0.14510  Biso   1.000  C
  C429     1.0000 0.93636  0.54208  0.10700  Biso   1.000  C
  H374     1.0000 0.91930  0.54050  0.06690  Biso   1.000  H
  H375     1.0000 0.95760  0.54730  0.08190  Biso   1.000  H
  C430     1.0000 0.92820  0.56830  0.15580  Biso   1.000  C
  H376     1.0000 0.94760  0.58230  0.16360  Biso   1.000  H
  H377     1.0000 0.91040  0.58140  0.13300  Biso   1.000  H
  H378     1.0000 0.92080  0.55950  0.20470  Biso   1.000  H
  C431     1.0000 0.93670  0.51940  0.35780  Biso   1.000  C
  H379     1.0000 0.95810  0.52700  0.34370  Biso   1.000  H
  C432     1.0000 0.91560  0.53980  0.40330  Biso   1.000  C
  H380     1.0000 0.92180  0.56170  0.41710  Biso   1.000  H
  C433     1.0000 0.88481  0.52570  0.42690  Biso   1.000  C
  C434     1.0000 0.87529  0.50460  0.38570  Biso   1.000  C
  H381     1.0000 0.85230  0.50020  0.38310  Biso   1.000  H
  C435     1.0000 0.89666  0.48620  0.34100  Biso   1.000  C
  H382     1.0000 0.88650  0.46940  0.31150  Biso   1.000  H
  C436     1.0000 0.86140  0.54450  0.48030  Biso   1.000  C
  H383     1.0000 0.84480  0.52880  0.50010  Biso   1.000  H
  H384     1.0000 0.84940  0.56130  0.45020  Biso   1.000  H
  Mn33     1.0000 0.11301  0.52921  0.97164  Biso   1.000  Mn
  O97      1.0000 0.15088  0.50868  0.93543  Biso   1.000  O
  O98      1.0000 0.11526  0.44753  0.11397  Biso   1.000  O
  O99      1.0000 0.07260  0.54440  0.01886  Biso   1.000  O
  N86      1.0000 0.10602  0.49361  0.04377  Biso   1.000  N
  N87      1.0000 0.07594  0.49608  0.08500  Biso   1.000  N
  N88      1.0000 0.81004  0.60828  0.69370  Biso   1.000  N
  C437     1.0000 0.16795  0.48388  0.96580  Biso   1.000  C
  C438     1.0000 0.19928  0.47760  0.93670  Biso   1.000  C
  H385     1.0000 0.20750  0.49110  0.89680  Biso   1.000  H
  C439     1.0000 0.21859  0.45259  0.96370  Biso   1.000  C
  H386     1.0000 0.23950  0.44870  0.94130  Biso   1.000  H
  C440     1.0000 0.20828  0.43295  0.02280  Biso   1.000  C
  H387     1.0000 0.22220  0.41610  0.04250  Biso   1.000  H
  C441     1.0000 0.17718  0.43823  0.05280  Biso   1.000  C
  H388     1.0000 0.16950  0.42420  0.09230  Biso   1.000  H
  C442     1.0000 0.15680  0.46353  0.02670  Biso   1.000  C
  C443     1.0000 0.12426  0.46807  0.06310  Biso   1.000  C
  C444     1.0000 0.06107  0.52342  0.06760  Biso   1.000  C
  C445     1.0000 0.02923  0.53168  0.10540  Biso   1.000  C
  H389     1.0000 0.02000  0.51200  0.13100  Biso   1.000  H
  H390     1.0000 0.01300  0.53960  0.06760  Biso   1.000  H
  C446     1.0000 0.82898  0.58336  0.71470  Biso   1.000  C
  H391     1.0000 0.82830  0.57660  0.76640  Biso   1.000  H
  C447     1.0000 0.84944  0.56686  0.66650  Biso   1.000  C
  H392     1.0000 0.86230  0.54890  0.68440  Biso   1.000  H
  C448     1.0000 0.85129  0.57629  0.59210  Biso   1.000  C
  C449     1.0000 0.83132  0.60153  0.56910  Biso   1.000  C
  H393     1.0000 0.83160  0.60850  0.51760  Biso   1.000  H
  C450     1.0000 0.81084  0.61694  0.62010  Biso   1.000  C
  H394     1.0000 0.79690  0.63420  0.60280  Biso   1.000  H
  C451     1.0000 0.87550  0.55920  0.53820  Biso   1.000  C
  H395     1.0000 0.88830  0.54270  0.56720  Biso   1.000  H
  H396     1.0000 0.89120  0.57590  0.51860  Biso   1.000  H
  Mn34     1.0000 0.57439  0.95518  0.67162  Biso   1.000  Mn
  O100     1.0000 0.59564  0.98175  0.74380  Biso   1.000  O
  O101     1.0000 0.49600  0.97497  0.81617  Biso   1.000  O
  O102     1.0000 0.54562  0.92969  0.60545  Biso   1.000  O
  N89      1.0000 0.53268  0.96152  0.72354  Biso   1.000  N
  N90      1.0000 0.50535  0.94557  0.68776  Biso   1.000  N
  C452     1.0000 0.58417  0.99710  0.80090  Biso   1.000  C
  C453     1.0000 0.60535  0.01721  0.84200  Biso   1.000  C
  H397     1.0000 0.62700  0.02070  0.82310  Biso   1.000  H
  C454     1.0000 0.59670  0.03200  0.90730  Biso   1.000  C
  H398     1.0000 0.61180  0.04650  0.93150  Biso   1.000  H
  C455     1.0000 0.56480  0.02640  0.94170  Biso   1.000  C
  H399     1.0000 0.55960  0.03400  0.99130  Biso   1.000  H
  C456     1.0000 0.54173  0.00860  0.89620  Biso   1.000  C
  H400     1.0000 0.51950  0.00700  0.91250  Biso   1.000  H
  C457     1.0000 0.55099  0.99404  0.82950  Biso   1.000  C
  C458     1.0000 0.52545  0.97642  0.78800  Biso   1.000  C
  C459     1.0000 0.51476  0.92998  0.62710  Biso   1.000  C
  C460     1.0000 0.48987  0.91220  0.58090  Biso   1.000  C
  H401     1.0000 0.47570  0.89920  0.61570  Biso   1.000  H
  H402     1.0000 0.47560  0.92880  0.55590  Biso   1.000  H
  C461     1.0000 0.50290  0.88952  0.52140  Biso   1.000  C
  H403     1.0000 0.51840  0.87390  0.54450  Biso   1.000  H
  H404     1.0000 0.48460  0.87730  0.49830  Biso   1.000  H
  H405     1.0000 0.51430  0.90240  0.48220  Biso   1.000  H
  Mn35     1.0000 0.45902  0.96272  0.74747  Biso   1.000  Mn
  O103     1.0000 0.44998  0.92109  0.78739  Biso   1.000  O
  O104     1.0000 0.38483  0.93293  0.60034  Biso   1.000  O
  O105     1.0000 0.46183  0.00500  0.69663  Biso   1.000  O
  N91      1.0000 0.42408  0.95735  0.67287  Biso   1.000  N
  N92      1.0000 0.41891  0.98558  0.62740  Biso   1.000  N
  N93      1.0000 0.42570  0.98829  0.83420  Biso   1.000  N
  C462     1.0000 0.42744  0.89900  0.76760  Biso   1.000  C
  C463     1.0000 0.42526  0.87026  0.81200  Biso   1.000  C
  H406     1.0000 0.43950  0.86750  0.85430  Biso   1.000  H
  C464     1.0000 0.40281  0.84635  0.79470  Biso   1.000  C
  H407     1.0000 0.40180  0.82700  0.82520  Biso   1.000  H
  C465     1.0000 0.38149  0.84955  0.73400  Biso   1.000  C
  H408     1.0000 0.36600  0.83260  0.72270  Biso   1.000  H
  C466     1.0000 0.38292  0.87740  0.69010  Biso   1.000  C
  H409     1.0000 0.36810  0.87970  0.64860  Biso   1.000  H
  C467     1.0000 0.40564  0.90256  0.70490  Biso   1.000  C
  C468     1.0000 0.40472  0.93209  0.65620  Biso   1.000  C
  C469     1.0000 0.43940  0.00888  0.64510  Biso   1.000  C
  C470     1.0000 0.43636  0.04208  0.60700  Biso   1.000  C
  H410     1.0000 0.41930  0.04050  0.56690  Biso   1.000  H
  H411     1.0000 0.45760  0.04730  0.58190  Biso   1.000  H
  C471     1.0000 0.42820  0.06830  0.65580  Biso   1.000  C
  H412     1.0000 0.44760  0.08230  0.66360  Biso   1.000  H
  H413     1.0000 0.41040  0.08140  0.63300  Biso   1.000  H
  H414     1.0000 0.42080  0.05950  0.70470  Biso   1.000  H
  C472     1.0000 0.43670  0.01940  0.85780  Biso   1.000  C
  H415     1.0000 0.45810  0.02700  0.84370  Biso   1.000  H
  C473     1.0000 0.41560  0.03980  0.90330  Biso   1.000  C
  H416     1.0000 0.42180  0.06170  0.91710  Biso   1.000  H
  C474     1.0000 0.38481  0.02570  0.92690  Biso   1.000  C
  C475     1.0000 0.37529  0.00460  0.88570  Biso   1.000  C
  H417     1.0000 0.35230  0.00020  0.88310  Biso   1.000  H
  C476     1.0000 0.39666  0.98620  0.84100  Biso   1.000  C
  H418     1.0000 0.38650  0.96940  0.81150  Biso   1.000  H
  C477     1.0000 0.36140  0.04450  0.98030  Biso   1.000  C
  H419     1.0000 0.34480  0.02880  0.00010  Biso   1.000  H
  H420     1.0000 0.34940  0.06130  0.95020  Biso   1.000  H
  Mn36     1.0000 0.61301  0.02921  0.47164  Biso   1.000  Mn
  O106     1.0000 0.65088  0.00868  0.43543  Biso   1.000  O
  O107     1.0000 0.61526  0.94753  0.61397  Biso   1.000  O
  O108     1.0000 0.57260  0.04440  0.51886  Biso   1.000  O
  N94      1.0000 0.60602  0.99361  0.54377  Biso   1.000  N
  N95      1.0000 0.57594  0.99608  0.58500  Biso   1.000  N
  N96      1.0000 0.31004  0.10828  0.19370  Biso   1.000  N
  C478     1.0000 0.66795  0.98388  0.46580  Biso   1.000  C
  C479     1.0000 0.69928  0.97760  0.43670  Biso   1.000  C
  H421     1.0000 0.70750  0.99110  0.39680  Biso   1.000  H
  C480     1.0000 0.71859  0.95259  0.46370  Biso   1.000  C
  H422     1.0000 0.73950  0.94870  0.44130  Biso   1.000  H
  C481     1.0000 0.70828  0.93295  0.52280  Biso   1.000  C
  H423     1.0000 0.72220  0.91610  0.54250  Biso   1.000  H
  C482     1.0000 0.67718  0.93823  0.55280  Biso   1.000  C
  H424     1.0000 0.66950  0.92420  0.59230  Biso   1.000  H
  C483     1.0000 0.65680  0.96353  0.52670  Biso   1.000  C
  C484     1.0000 0.62426  0.96807  0.56310  Biso   1.000  C
  C485     1.0000 0.56107  0.02342  0.56760  Biso   1.000  C
  C486     1.0000 0.52923  0.03168  0.60540  Biso   1.000  C
  H425     1.0000 0.52000  0.01200  0.63100  Biso   1.000  H
  H426     1.0000 0.51300  0.03960  0.56760  Biso   1.000  H
  C487     1.0000 0.32898  0.08336  0.21470  Biso   1.000  C
  H427     1.0000 0.32830  0.07660  0.26640  Biso   1.000  H
  C488     1.0000 0.34944  0.06686  0.16650  Biso   1.000  C
  H428     1.0000 0.36230  0.04890  0.18440  Biso   1.000  H
  C489     1.0000 0.35129  0.07629  0.09210  Biso   1.000  C
  C490     1.0000 0.33132  0.10153  0.06910  Biso   1.000  C
  H429     1.0000 0.33160  0.10850  0.01760  Biso   1.000  H
  C491     1.0000 0.31084  0.11694  0.12010  Biso   1.000  C
  H430     1.0000 0.29690  0.13420  0.10280  Biso   1.000  H
  C492     1.0000 0.37550  0.05920  0.03820  Biso   1.000  C
  H431     1.0000 0.38830  0.04270  0.06720  Biso   1.000  H
  H432     1.0000 0.39120  0.07590  0.01860  Biso   1.000  H
  Mn37     1.0000 0.70518  0.17561  0.42162  Biso   1.000  Mn
  O109     1.0000 0.73175  0.15436  0.49380  Biso   1.000  O
  O110     1.0000 0.72497  0.25400  0.56617  Biso   1.000  O
  O111     1.0000 0.67969  0.20438  0.35545  Biso   1.000  O
  N97      1.0000 0.71152  0.21732  0.47354  Biso   1.000  N
  N98      1.0000 0.69557  0.24465  0.43776  Biso   1.000  N
  C493     1.0000 0.74710  0.16583  0.55090  Biso   1.000  C
  C494     1.0000 0.76721  0.14465  0.59200  Biso   1.000  C
  H433     1.0000 0.77070  0.12300  0.57310  Biso   1.000  H
  C495     1.0000 0.78200  0.15330  0.65730  Biso   1.000  C
  H434     1.0000 0.79650  0.13820  0.68150  Biso   1.000  H
  C496     1.0000 0.77640  0.18520  0.69170  Biso   1.000  C
  H435     1.0000 0.78400  0.19040  0.74130  Biso   1.000  H
  C497     1.0000 0.75860  0.20827  0.64620  Biso   1.000  C
  H436     1.0000 0.75700  0.23050  0.66250  Biso   1.000  H
  C498     1.0000 0.74404  0.19901  0.57950  Biso   1.000  C
  C499     1.0000 0.72642  0.22455  0.53800  Biso   1.000  C
  C500     1.0000 0.67998  0.23524  0.37710  Biso   1.000  C
  C501     1.0000 0.66220  0.26013  0.33090  Biso   1.000  C
  H437     1.0000 0.64920  0.27430  0.36570  Biso   1.000  H
  H438     1.0000 0.67880  0.27440  0.30590  Biso   1.000  H
  C502     1.0000 0.63952  0.24710  0.27140  Biso   1.000  C
  H439     1.0000 0.62390  0.23160  0.29450  Biso   1.000  H
  H440     1.0000 0.62730  0.26540  0.24830  Biso   1.000  H
  H441     1.0000 0.65240  0.23570  0.23220  Biso   1.000  H
  Mn38     1.0000 0.71272  0.29098  0.49747  Biso   1.000  Mn
  O112     1.0000 0.67109  0.30002  0.53739  Biso   1.000  O
  O113     1.0000 0.68293  0.36517  0.35034  Biso   1.000  O
  O114     1.0000 0.75500  0.28817  0.44663  Biso   1.000  O
  N99      1.0000 0.70735  0.32592  0.42287  Biso   1.000  N
  N100     1.0000 0.73558  0.33109  0.37740  Biso   1.000  N
  N101     1.0000 0.73829  0.32430  0.58420  Biso   1.000  N
  C503     1.0000 0.64900  0.32256  0.51760  Biso   1.000  C
  C504     1.0000 0.62026  0.32474  0.56200  Biso   1.000  C
  H442     1.0000 0.61750  0.31050  0.60430  Biso   1.000  H
  C505     1.0000 0.59635  0.34719  0.54470  Biso   1.000  C
  H443     1.0000 0.57700  0.34820  0.57520  Biso   1.000  H
  C506     1.0000 0.59955  0.36851  0.48400  Biso   1.000  C
  H444     1.0000 0.58260  0.38400  0.47270  Biso   1.000  H
  C507     1.0000 0.62740  0.36708  0.44010  Biso   1.000  C
  H445     1.0000 0.62970  0.38190  0.39860  Biso   1.000  H
  C508     1.0000 0.65256  0.34436  0.45490  Biso   1.000  C
  C509     1.0000 0.68209  0.34528  0.40620  Biso   1.000  C
  C510     1.0000 0.75888  0.31060  0.39510  Biso   1.000  C
  C511     1.0000 0.79208  0.31364  0.35700  Biso   1.000  C
  H446     1.0000 0.79050  0.33070  0.31690  Biso   1.000  H
  H447     1.0000 0.79730  0.29240  0.33190  Biso   1.000  H
  C512     1.0000 0.81830  0.32180  0.40580  Biso   1.000  C
  H448     1.0000 0.83230  0.30240  0.41360  Biso   1.000  H
  H449     1.0000 0.83140  0.33960  0.38300  Biso   1.000  H
  H450     1.0000 0.80950  0.32920  0.45470  Biso   1.000  H
  C513     1.0000 0.76940  0.31330  0.60780  Biso   1.000  C
  H451     1.0000 0.77700  0.29190  0.59370  Biso   1.000  H
  C514     1.0000 0.78980  0.33440  0.65330  Biso   1.000  C
  H452     1.0000 0.81170  0.32820  0.66710  Biso   1.000  H
  C515     1.0000 0.77570  0.36519  0.67690  Biso   1.000  C
  C516     1.0000 0.75460  0.37471  0.63570  Biso   1.000  C
  H453     1.0000 0.75020  0.39770  0.63310  Biso   1.000  H
  C517     1.0000 0.73620  0.35334  0.59100  Biso   1.000  C
  H454     1.0000 0.71940  0.36350  0.56150  Biso   1.000  H
  C518     1.0000 0.79450  0.38860  0.73030  Biso   1.000  C
  H455     1.0000 0.77880  0.40520  0.75010  Biso   1.000  H
  H456     1.0000 0.81130  0.40060  0.70020  Biso   1.000  H
  Mn39     1.0000 0.77921  0.13699  0.22164  Biso   1.000  Mn
  O115     1.0000 0.75868  0.09912  0.18543  Biso   1.000  O
  O116     1.0000 0.69753  0.13474  0.36397  Biso   1.000  O
  O117     1.0000 0.79440  0.17740  0.26886  Biso   1.000  O
  N102     1.0000 0.74361  0.14398  0.29377  Biso   1.000  N
  N103     1.0000 0.74608  0.17406  0.33500  Biso   1.000  N
  N104     1.0000 0.85828  0.43996  0.94370  Biso   1.000  N
  C519     1.0000 0.73388  0.08205  0.21580  Biso   1.000  C
  C520     1.0000 0.72760  0.05072  0.18670  Biso   1.000  C
  H457     1.0000 0.74110  0.04250  0.14680  Biso   1.000  H
  C521     1.0000 0.70259  0.03141  0.21370  Biso   1.000  C
  H458     1.0000 0.69870  0.01050  0.19130  Biso   1.000  H
  C522     1.0000 0.68295  0.04172  0.27280  Biso   1.000  C
  H459     1.0000 0.66610  0.02780  0.29250  Biso   1.000  H
  C523     1.0000 0.68823  0.07282  0.30280  Biso   1.000  C
  H460     1.0000 0.67420  0.08050  0.34230  Biso   1.000  H
  C524     1.0000 0.71353  0.09320  0.27670  Biso   1.000  C
  C525     1.0000 0.71807  0.12574  0.31310  Biso   1.000  C
  C526     1.0000 0.77342  0.18893  0.31760  Biso   1.000  C
  C527     1.0000 0.78168  0.22077  0.35540  Biso   1.000  C
  H461     1.0000 0.76200  0.23000  0.38100  Biso   1.000  H
  H462     1.0000 0.78960  0.23700  0.31760  Biso   1.000  H
  C528     1.0000 0.83336  0.42102  0.96470  Biso   1.000  C
  H463     1.0000 0.82660  0.42170  0.01640  Biso   1.000  H
  C529     1.0000 0.81686  0.40056  0.91650  Biso   1.000  C
  H464     1.0000 0.79890  0.38770  0.93440  Biso   1.000  H
  C530     1.0000 0.82629  0.39871  0.84210  Biso   1.000  C
  C531     1.0000 0.85153  0.41868  0.81910  Biso   1.000  C
  H465     1.0000 0.85850  0.41840  0.76760  Biso   1.000  H
  C532     1.0000 0.86694  0.43916  0.87010  Biso   1.000  C
  H466     1.0000 0.88420  0.45310  0.85280  Biso   1.000  H
  C533     1.0000 0.80920  0.37450  0.78820  Biso   1.000  C
  H467     1.0000 0.79270  0.36170  0.81720  Biso   1.000  H
  H468     1.0000 0.82590  0.35880  0.76860  Biso   1.000  H
  Mn40     1.0000 0.20518  0.67561  0.92162  Biso   1.000  Mn
  O118     1.0000 0.23175  0.65436  0.99380  Biso   1.000  O
  O119     1.0000 0.22497  0.75400  0.06617  Biso   1.000  O
  O120     1.0000 0.17969  0.70438  0.85545  Biso   1.000  O
  N105     1.0000 0.21152  0.71732  0.97354  Biso   1.000  N
  N106     1.0000 0.19557  0.74465  0.93776  Biso   1.000  N
  C534     1.0000 0.24710  0.66583  0.05090  Biso   1.000  C
  C535     1.0000 0.26721  0.64465  0.09200  Biso   1.000  C
  H469     1.0000 0.27070  0.62300  0.07310  Biso   1.000  H
  C536     1.0000 0.28200  0.65330  0.15730  Biso   1.000  C
  H470     1.0000 0.29650  0.63820  0.18150  Biso   1.000  H
  C537     1.0000 0.27640  0.68520  0.19170  Biso   1.000  C
  H471     1.0000 0.28400  0.69040  0.24130  Biso   1.000  H
  C538     1.0000 0.25860  0.70827  0.14620  Biso   1.000  C
  H472     1.0000 0.25700  0.73050  0.16250  Biso   1.000  H
  C539     1.0000 0.24404  0.69901  0.07950  Biso   1.000  C
  C540     1.0000 0.22642  0.72455  0.03800  Biso   1.000  C
  C541     1.0000 0.17998  0.73524  0.87710  Biso   1.000  C
  C542     1.0000 0.16220  0.76013  0.83090  Biso   1.000  C
  H473     1.0000 0.14920  0.77430  0.86570  Biso   1.000  H
  H474     1.0000 0.17880  0.77440  0.80590  Biso   1.000  H
  C543     1.0000 0.13952  0.74710  0.77140  Biso   1.000  C
  H475     1.0000 0.12390  0.73160  0.79450  Biso   1.000  H
  H476     1.0000 0.12730  0.76540  0.74830  Biso   1.000  H
  H477     1.0000 0.15240  0.73570  0.73220  Biso   1.000  H
  Mn41     1.0000 0.21272  0.79098  0.99747  Biso   1.000  Mn
  O121     1.0000 0.17109  0.80002  0.03739  Biso   1.000  O
  O122     1.0000 0.18293  0.86517  0.85034  Biso   1.000  O
  O123     1.0000 0.25500  0.78817  0.94663  Biso   1.000  O
  N107     1.0000 0.20735  0.82592  0.92287  Biso   1.000  N
  N108     1.0000 0.23558  0.83109  0.87740  Biso   1.000  N
  N109     1.0000 0.23829  0.82430  0.08420  Biso   1.000  N
  C544     1.0000 0.14900  0.82256  0.01760  Biso   1.000  C
  C545     1.0000 0.12026  0.82474  0.06200  Biso   1.000  C
  H478     1.0000 0.11750  0.81050  0.10430  Biso   1.000  H
  C546     1.0000 0.09635  0.84719  0.04470  Biso   1.000  C
  H479     1.0000 0.07700  0.84820  0.07520  Biso   1.000  H
  C547     1.0000 0.09955  0.86851  0.98400  Biso   1.000  C
  H480     1.0000 0.08260  0.88400  0.97270  Biso   1.000  H
  C548     1.0000 0.12740  0.86708  0.94010  Biso   1.000  C
  H481     1.0000 0.12970  0.88190  0.89860  Biso   1.000  H
  C549     1.0000 0.15256  0.84436  0.95490  Biso   1.000  C
  C550     1.0000 0.18209  0.84528  0.90620  Biso   1.000  C
  C551     1.0000 0.25888  0.81060  0.89510  Biso   1.000  C
  C552     1.0000 0.29208  0.81364  0.85700  Biso   1.000  C
  H482     1.0000 0.29050  0.83070  0.81690  Biso   1.000  H
  H483     1.0000 0.29730  0.79240  0.83190  Biso   1.000  H
  C553     1.0000 0.31830  0.82180  0.90580  Biso   1.000  C
  H484     1.0000 0.33230  0.80240  0.91360  Biso   1.000  H
  H485     1.0000 0.33140  0.83960  0.88300  Biso   1.000  H
  H486     1.0000 0.30950  0.82920  0.95470  Biso   1.000  H
  C554     1.0000 0.26940  0.81330  0.10780  Biso   1.000  C
  H487     1.0000 0.27700  0.79190  0.09370  Biso   1.000  H
  C555     1.0000 0.28980  0.83440  0.15330  Biso   1.000  C
  H488     1.0000 0.31170  0.82820  0.16710  Biso   1.000  H
  C556     1.0000 0.27570  0.86519  0.17690  Biso   1.000  C
  C557     1.0000 0.25460  0.87471  0.13570  Biso   1.000  C
  H489     1.0000 0.25020  0.89770  0.13310  Biso   1.000  H
  C558     1.0000 0.23620  0.85334  0.09100  Biso   1.000  C
  H490     1.0000 0.21940  0.86350  0.06150  Biso   1.000  H
  C559     1.0000 0.29450  0.88860  0.23030  Biso   1.000  C
  H491     1.0000 0.27880  0.90520  0.25010  Biso   1.000  H
  H492     1.0000 0.31130  0.90060  0.20020  Biso   1.000  H
  Mn42     1.0000 0.27921  0.63699  0.72164  Biso   1.000  Mn
  O124     1.0000 0.25868  0.59912  0.68543  Biso   1.000  O
  O125     1.0000 0.19753  0.63474  0.86397  Biso   1.000  O
  O126     1.0000 0.29440  0.67740  0.76886  Biso   1.000  O
  N110     1.0000 0.24361  0.64398  0.79377  Biso   1.000  N
  N111     1.0000 0.24608  0.67406  0.83500  Biso   1.000  N
  N112     1.0000 0.35828  0.93996  0.44370  Biso   1.000  N
  C560     1.0000 0.23388  0.58205  0.71580  Biso   1.000  C
  C561     1.0000 0.22760  0.55072  0.68670  Biso   1.000  C
  H493     1.0000 0.24110  0.54250  0.64680  Biso   1.000  H
  C562     1.0000 0.20259  0.53141  0.71370  Biso   1.000  C
  H494     1.0000 0.19870  0.51050  0.69130  Biso   1.000  H
  C563     1.0000 0.18295  0.54172  0.77280  Biso   1.000  C
  H495     1.0000 0.16610  0.52780  0.79250  Biso   1.000  H
  C564     1.0000 0.18823  0.57282  0.80280  Biso   1.000  C
  H496     1.0000 0.17420  0.58050  0.84230  Biso   1.000  H
  C565     1.0000 0.21353  0.59320  0.77670  Biso   1.000  C
  C566     1.0000 0.21807  0.62574  0.81310  Biso   1.000  C
  C567     1.0000 0.27342  0.68893  0.81760  Biso   1.000  C
  C568     1.0000 0.28168  0.72077  0.85540  Biso   1.000  C
  H497     1.0000 0.26200  0.73000  0.88100  Biso   1.000  H
  H498     1.0000 0.28960  0.73700  0.81760  Biso   1.000  H
  C569     1.0000 0.33336  0.92102  0.46470  Biso   1.000  C
  H499     1.0000 0.32660  0.92170  0.51640  Biso   1.000  H
  C570     1.0000 0.31686  0.90056  0.41650  Biso   1.000  C
  H500     1.0000 0.29890  0.88770  0.43440  Biso   1.000  H
  C571     1.0000 0.32629  0.89871  0.34210  Biso   1.000  C
  C572     1.0000 0.35153  0.91868  0.31910  Biso   1.000  C
  H501     1.0000 0.35850  0.91840  0.26760  Biso   1.000  H
  C573     1.0000 0.36694  0.93916  0.37010  Biso   1.000  C
  H502     1.0000 0.38420  0.95310  0.35280  Biso   1.000  H
  C574     1.0000 0.30920  0.87450  0.28820  Biso   1.000  C
  H503     1.0000 0.29270  0.86170  0.31720  Biso   1.000  H
  H504     1.0000 0.32590  0.85880  0.26860  Biso   1.000  H
  Mn43     1.0000 0.79482  0.82439  0.92162  Biso   1.000  Mn
  O127     1.0000 0.76825  0.84564  0.99380  Biso   1.000  O
  O128     1.0000 0.77503  0.74600  0.06617  Biso   1.000  O
  O129     1.0000 0.82031  0.79562  0.85545  Biso   1.000  O
  N113     1.0000 0.78848  0.78268  0.97354  Biso   1.000  N
  N114     1.0000 0.80443  0.75535  0.93776  Biso   1.000  N
  C575     1.0000 0.75290  0.83417  0.05090  Biso   1.000  C
  C576     1.0000 0.73279  0.85535  0.09200  Biso   1.000  C
  H505     1.0000 0.72930  0.87700  0.07310  Biso   1.000  H
  C577     1.0000 0.71800  0.84670  0.15730  Biso   1.000  C
  H506     1.0000 0.70350  0.86180  0.18150  Biso   1.000  H
  C578     1.0000 0.72360  0.81480  0.19170  Biso   1.000  C
  H507     1.0000 0.71600  0.80960  0.24130  Biso   1.000  H
  C579     1.0000 0.74140  0.79173  0.14620  Biso   1.000  C
  H508     1.0000 0.74300  0.76950  0.16250  Biso   1.000  H
  C580     1.0000 0.75596  0.80099  0.07950  Biso   1.000  C
  C581     1.0000 0.77358  0.77545  0.03800  Biso   1.000  C
  C582     1.0000 0.82002  0.76476  0.87710  Biso   1.000  C
  C583     1.0000 0.83780  0.73987  0.83090  Biso   1.000  C
  H509     1.0000 0.85080  0.72570  0.86570  Biso   1.000  H
  H510     1.0000 0.82120  0.72560  0.80590  Biso   1.000  H
  C584     1.0000 0.86048  0.75290  0.77140  Biso   1.000  C
  H511     1.0000 0.87610  0.76840  0.79450  Biso   1.000  H
  H512     1.0000 0.87270  0.73460  0.74830  Biso   1.000  H
  H513     1.0000 0.84760  0.76430  0.73220  Biso   1.000  H
  Mn44     1.0000 0.78728  0.70902  0.99747  Biso   1.000  Mn
  O130     1.0000 0.82891  0.69998  0.03739  Biso   1.000  O
  O131     1.0000 0.81707  0.63483  0.85034  Biso   1.000  O
  O132     1.0000 0.74500  0.71183  0.94663  Biso   1.000  O
  N115     1.0000 0.79265  0.67408  0.92287  Biso   1.000  N
  N116     1.0000 0.76442  0.66891  0.87740  Biso   1.000  N
  N117     1.0000 0.76171  0.67570  0.08420  Biso   1.000  N
  C585     1.0000 0.85100  0.67744  0.01760  Biso   1.000  C
  C586     1.0000 0.87974  0.67526  0.06200  Biso   1.000  C
  H514     1.0000 0.88250  0.68950  0.10430  Biso   1.000  H
  C587     1.0000 0.90365  0.65281  0.04470  Biso   1.000  C
  H515     1.0000 0.92300  0.65180  0.07520  Biso   1.000  H
  C588     1.0000 0.90045  0.63149  0.98400  Biso   1.000  C
  H516     1.0000 0.91740  0.61600  0.97270  Biso   1.000  H
  C589     1.0000 0.87260  0.63292  0.94010  Biso   1.000  C
  H517     1.0000 0.87030  0.61810  0.89860  Biso   1.000  H
  C590     1.0000 0.84744  0.65564  0.95490  Biso   1.000  C
  C591     1.0000 0.81791  0.65472  0.90620  Biso   1.000  C
  C592     1.0000 0.74112  0.68940  0.89510  Biso   1.000  C
  C593     1.0000 0.70792  0.68636  0.85700  Biso   1.000  C
  H518     1.0000 0.70950  0.66930  0.81690  Biso   1.000  H
  H519     1.0000 0.70270  0.70760  0.83190  Biso   1.000  H
  C594     1.0000 0.68170  0.67820  0.90580  Biso   1.000  C
  H520     1.0000 0.66770  0.69760  0.91360  Biso   1.000  H
  H521     1.0000 0.66860  0.66040  0.88300  Biso   1.000  H
  H522     1.0000 0.69050  0.67080  0.95470  Biso   1.000  H
  C595     1.0000 0.73060  0.68670  0.10780  Biso   1.000  C
  H523     1.0000 0.72300  0.70810  0.09370  Biso   1.000  H
  C596     1.0000 0.71020  0.66560  0.15330  Biso   1.000  C
  H524     1.0000 0.68830  0.67180  0.16710  Biso   1.000  H
  C597     1.0000 0.72430  0.63481  0.17690  Biso   1.000  C
  C598     1.0000 0.74540  0.62529  0.13570  Biso   1.000  C
  H525     1.0000 0.74980  0.60230  0.13310  Biso   1.000  H
  C599     1.0000 0.76380  0.64666  0.09100  Biso   1.000  C
  H526     1.0000 0.78060  0.63650  0.06150  Biso   1.000  H
  C600     1.0000 0.70550  0.61140  0.23030  Biso   1.000  C
  H527     1.0000 0.72120  0.59480  0.25010  Biso   1.000  H
  H528     1.0000 0.68870  0.59940  0.20020  Biso   1.000  H
  Mn45     1.0000 0.72079  0.86301  0.72164  Biso   1.000  Mn
  O133     1.0000 0.74132  0.90088  0.68543  Biso   1.000  O
  O134     1.0000 0.80247  0.86526  0.86397  Biso   1.000  O
  O135     1.0000 0.70560  0.82260  0.76886  Biso   1.000  O
  N118     1.0000 0.75639  0.85602  0.79377  Biso   1.000  N
  N119     1.0000 0.75392  0.82594  0.83500  Biso   1.000  N
  N120     1.0000 0.64172  0.56004  0.44370  Biso   1.000  N
  C601     1.0000 0.76612  0.91795  0.71580  Biso   1.000  C
  C602     1.0000 0.77240  0.94928  0.68670  Biso   1.000  C
  H529     1.0000 0.75890  0.95750  0.64680  Biso   1.000  H
  C603     1.0000 0.79741  0.96859  0.71370  Biso   1.000  C
  H530     1.0000 0.80130  0.98950  0.69130  Biso   1.000  H
  C604     1.0000 0.81705  0.95828  0.77280  Biso   1.000  C
  H531     1.0000 0.83390  0.97220  0.79250  Biso   1.000  H
  C605     1.0000 0.81177  0.92718  0.80280  Biso   1.000  C
  H532     1.0000 0.82580  0.91950  0.84230  Biso   1.000  H
  C606     1.0000 0.78647  0.90680  0.77670  Biso   1.000  C
  C607     1.0000 0.78193  0.87426  0.81310  Biso   1.000  C
  C608     1.0000 0.72658  0.81107  0.81760  Biso   1.000  C
  C609     1.0000 0.71832  0.77923  0.85540  Biso   1.000  C
  H533     1.0000 0.73800  0.77000  0.88100  Biso   1.000  H
  H534     1.0000 0.71040  0.76300  0.81760  Biso   1.000  H
  C610     1.0000 0.66664  0.57898  0.46470  Biso   1.000  C
  H535     1.0000 0.67340  0.57830  0.51640  Biso   1.000  H
  C611     1.0000 0.68314  0.59944  0.41650  Biso   1.000  C
  H536     1.0000 0.70110  0.61230  0.43440  Biso   1.000  H
  C612     1.0000 0.67371  0.60129  0.34210  Biso   1.000  C
  C613     1.0000 0.64847  0.58132  0.31910  Biso   1.000  C
  H537     1.0000 0.64150  0.58160  0.26760  Biso   1.000  H
  C614     1.0000 0.63306  0.56084  0.37010  Biso   1.000  C
  H538     1.0000 0.61580  0.54690  0.35280  Biso   1.000  H
  C615     1.0000 0.69080  0.62550  0.28820  Biso   1.000  C
  H539     1.0000 0.70730  0.63830  0.31720  Biso   1.000  H
  H540     1.0000 0.67410  0.64120  0.26860  Biso   1.000  H
  Mn46     1.0000 0.29482  0.32439  0.42162  Biso   1.000  Mn
  O136     1.0000 0.26825  0.34564  0.49380  Biso   1.000  O
  O137     1.0000 0.27503  0.24600  0.56617  Biso   1.000  O
  O138     1.0000 0.32031  0.29562  0.35545  Biso   1.000  O
  N121     1.0000 0.28848  0.28268  0.47354  Biso   1.000  N
  N122     1.0000 0.30443  0.25535  0.43776  Biso   1.000  N
  C616     1.0000 0.25290  0.33417  0.55090  Biso   1.000  C
  C617     1.0000 0.23279  0.35535  0.59200  Biso   1.000  C
  H541     1.0000 0.22930  0.37700  0.57310  Biso   1.000  H
  C618     1.0000 0.21800  0.34670  0.65730  Biso   1.000  C
  H542     1.0000 0.20350  0.36180  0.68150  Biso   1.000  H
  C619     1.0000 0.22360  0.31480  0.69170  Biso   1.000  C
  H543     1.0000 0.21600  0.30960  0.74130  Biso   1.000  H
  C620     1.0000 0.24140  0.29173  0.64620  Biso   1.000  C
  H544     1.0000 0.24300  0.26950  0.66250  Biso   1.000  H
  C621     1.0000 0.25596  0.30099  0.57950  Biso   1.000  C
  C622     1.0000 0.27358  0.27545  0.53800  Biso   1.000  C
  C623     1.0000 0.32002  0.26476  0.37710  Biso   1.000  C
  C624     1.0000 0.33780  0.23987  0.33090  Biso   1.000  C
  H545     1.0000 0.35080  0.22570  0.36570  Biso   1.000  H
  H546     1.0000 0.32120  0.22560  0.30590  Biso   1.000  H
  C625     1.0000 0.36048  0.25290  0.27140  Biso   1.000  C
  H547     1.0000 0.37610  0.26840  0.29450  Biso   1.000  H
  H548     1.0000 0.37270  0.23460  0.24830  Biso   1.000  H
  H549     1.0000 0.34760  0.26430  0.23220  Biso   1.000  H
  Mn47     1.0000 0.28728  0.20902  0.49747  Biso   1.000  Mn
  O139     1.0000 0.32891  0.19998  0.53739  Biso   1.000  O
  O140     1.0000 0.31707  0.13483  0.35034  Biso   1.000  O
  O141     1.0000 0.24500  0.21183  0.44663  Biso   1.000  O
  N123     1.0000 0.29265  0.17408  0.42287  Biso   1.000  N
  N124     1.0000 0.26442  0.16891  0.37740  Biso   1.000  N
  N125     1.0000 0.26171  0.17570  0.58420  Biso   1.000  N
  C626     1.0000 0.35100  0.17744  0.51760  Biso   1.000  C
  C627     1.0000 0.37974  0.17526  0.56200  Biso   1.000  C
  H550     1.0000 0.38250  0.18950  0.60430  Biso   1.000  H
  C628     1.0000 0.40365  0.15281  0.54470  Biso   1.000  C
  H551     1.0000 0.42300  0.15180  0.57520  Biso   1.000  H
  C629     1.0000 0.40045  0.13149  0.48400  Biso   1.000  C
  H552     1.0000 0.41740  0.11600  0.47270  Biso   1.000  H
  C630     1.0000 0.37260  0.13292  0.44010  Biso   1.000  C
  H553     1.0000 0.37030  0.11810  0.39860  Biso   1.000  H
  C631     1.0000 0.34744  0.15564  0.45490  Biso   1.000  C
  C632     1.0000 0.31791  0.15472  0.40620  Biso   1.000  C
  C633     1.0000 0.24112  0.18940  0.39510  Biso   1.000  C
  C634     1.0000 0.20792  0.18636  0.35700  Biso   1.000  C
  H554     1.0000 0.20950  0.16930  0.31690  Biso   1.000  H
  H555     1.0000 0.20270  0.20760  0.33190  Biso   1.000  H
  C635     1.0000 0.18170  0.17820  0.40580  Biso   1.000  C
  H556     1.0000 0.16770  0.19760  0.41360  Biso   1.000  H
  H557     1.0000 0.16860  0.16040  0.38300  Biso   1.000  H
  H558     1.0000 0.19050  0.17080  0.45470  Biso   1.000  H
  C636     1.0000 0.23060  0.18670  0.60780  Biso   1.000  C
  H559     1.0000 0.22300  0.20810  0.59370  Biso   1.000  H
  C637     1.0000 0.21020  0.16560  0.65330  Biso   1.000  C
  H560     1.0000 0.18830  0.17180  0.66710  Biso   1.000  H
  C638     1.0000 0.22430  0.13481  0.67690  Biso   1.000  C
  C639     1.0000 0.24540  0.12529  0.63570  Biso   1.000  C
  H561     1.0000 0.24980  0.10230  0.63310  Biso   1.000  H
  C640     1.0000 0.26380  0.14666  0.59100  Biso   1.000  C
  H562     1.0000 0.28060  0.13650  0.56150  Biso   1.000  H
  C641     1.0000 0.20550  0.11140  0.73030  Biso   1.000  C
  H563     1.0000 0.22120  0.09480  0.75010  Biso   1.000  H
  H564     1.0000 0.18870  0.09940  0.70020  Biso   1.000  H
  Mn48     1.0000 0.22079  0.36301  0.22164  Biso   1.000  Mn
  O142     1.0000 0.24132  0.40088  0.18543  Biso   1.000  O
  O143     1.0000 0.30247  0.36526  0.36397  Biso   1.000  O
  O144     1.0000 0.20560  0.32260  0.26886  Biso   1.000  O
  N126     1.0000 0.25639  0.35602  0.29377  Biso   1.000  N
  N127     1.0000 0.25392  0.32594  0.33500  Biso   1.000  N
  N128     1.0000 0.14172  0.06004  0.94370  Biso   1.000  N
  C642     1.0000 0.26612  0.41795  0.21580  Biso   1.000  C
  C643     1.0000 0.27240  0.44928  0.18670  Biso   1.000  C
  H565     1.0000 0.25890  0.45750  0.14680  Biso   1.000  H
  C644     1.0000 0.29741  0.46859  0.21370  Biso   1.000  C
  H566     1.0000 0.30130  0.48950  0.19130  Biso   1.000  H
  C645     1.0000 0.31705  0.45828  0.27280  Biso   1.000  C
  H567     1.0000 0.33390  0.47220  0.29250  Biso   1.000  H
  C646     1.0000 0.31177  0.42718  0.30280  Biso   1.000  C
  H568     1.0000 0.32580  0.41950  0.34230  Biso   1.000  H
  C647     1.0000 0.28647  0.40680  0.27670  Biso   1.000  C
  C648     1.0000 0.28193  0.37426  0.31310  Biso   1.000  C
  C649     1.0000 0.22658  0.31107  0.31760  Biso   1.000  C
  C650     1.0000 0.21832  0.27923  0.35540  Biso   1.000  C
  H569     1.0000 0.23800  0.27000  0.38100  Biso   1.000  H
  H570     1.0000 0.21040  0.26300  0.31760  Biso   1.000  H
  C651     1.0000 0.16664  0.07898  0.96470  Biso   1.000  C
  H571     1.0000 0.17340  0.07830  0.01640  Biso   1.000  H
  C652     1.0000 0.18314  0.09944  0.91650  Biso   1.000  C
  H572     1.0000 0.20110  0.11230  0.93440  Biso   1.000  H
  C653     1.0000 0.17371  0.10129  0.84210  Biso   1.000  C
  C654     1.0000 0.14847  0.08132  0.81910  Biso   1.000  C
  H573     1.0000 0.14150  0.08160  0.76760  Biso   1.000  H
  C655     1.0000 0.13306  0.06084  0.87010  Biso   1.000  C
  H574     1.0000 0.11580  0.04690  0.85280  Biso   1.000  H
  C656     1.0000 0.19080  0.12550  0.78820  Biso   1.000  C
  H575     1.0000 0.20730  0.13830  0.81720  Biso   1.000  H
  H576     1.0000 0.17410  0.14120  0.76860  Biso   1.000  H
