data_image0
_cell_length_a       40.376
_cell_length_b       40.376
_cell_length_c       17.567
_cell_angle_alpha    90
_cell_angle_beta     90
_cell_angle_gamma    90

_symmetry_space_group_name_H-M    "P 1"
_symmetry_int_tables_number       1

loop_
  _symmetry_equiv_pos_as_xyz
  'x, y, z'

loop_
  _atom_site_label
  _atom_site_occupancy
  _atom_site_fract_x
  _atom_site_fract_y
  _atom_site_fract_z
  _atom_site_thermal_displace_type
  _atom_site_B_iso_or_equiv
  _atom_site_type_symbol
  Mn1      1.0000 0.72027  0.13581  0.27818  Biso   1.000  Mn
  O1       1.0000 0.74032  0.09797  0.31305  Biso   1.000  O
  O2       1.0000 0.80300  0.13408  0.13892  Biso   1.000  O
  O3       1.0000 0.70545  0.17652  0.23101  Biso   1.000  O
  N1       1.0000 0.75612  0.14303  0.20730  Biso   1.000  N
  N2       1.0000 0.75394  0.17329  0.16470  Biso   1.000  N
  N3       1.0000 0.68864  0.10813  0.19240  Biso   1.000  N
  C1       1.0000 0.76590  0.08064  0.28460  Biso   1.000  C
  C2       1.0000 0.77264  0.04953  0.31600  Biso   1.000  C
  H1       1.0000 0.75910  0.04130  0.35610  Biso   1.000  H
  C3       1.0000 0.79848  0.03068  0.28970  Biso   1.000  C
  H2       1.0000 0.80280  0.00980  0.31240  Biso   1.000  H
  C4       1.0000 0.81824  0.04152  0.23070  Biso   1.000  C
  H3       1.0000 0.83540  0.02790  0.21120  Biso   1.000  H
  C5       1.0000 0.81267  0.07219  0.20090  Biso   1.000  C
  H4       1.0000 0.82700  0.08010  0.16210  Biso   1.000  H
  C6       1.0000 0.78651  0.09253  0.22530  Biso   1.000  C
  C7       1.0000 0.78200  0.12477  0.18850  Biso   1.000  C
  C8       1.0000 0.72638  0.18801  0.18200  Biso   1.000  C
  C9       1.0000 0.71712  0.22021  0.14350  Biso   1.000  C
  H5       1.0000 0.73670  0.22990  0.11800  Biso   1.000  H
  H6       1.0000 0.70900  0.23630  0.18170  Biso   1.000  H
  C10      1.0000 0.66827  0.08454  0.21280  Biso   1.000  C
  H7       1.0000 0.66780  0.07860  0.26510  Biso   1.000  H
  C11      1.0000 0.64753  0.06779  0.16450  Biso   1.000  C
  H8       1.0000 0.63450  0.04980  0.18200  Biso   1.000  H
  C12      1.0000 0.64624  0.07799  0.08940  Biso   1.000  C
  C13      1.0000 0.66779  0.10253  0.06880  Biso   1.000  C
  H9       1.0000 0.66800  0.11000  0.01760  Biso   1.000  H
  C14      1.0000 0.68831  0.11611  0.11840  Biso   1.000  C
  H10      1.0000 0.70350  0.13230  0.10070  Biso   1.000  H
  C15      1.0000 0.62281  0.06170  0.03430  Biso   1.000  C
  H11      1.0000 0.60400  0.05200  0.06300  Biso   1.000  H
  H12      1.0000 0.61380  0.07870  0.99940  Biso   1.000  H
  Mn2      1.0000 0.79573  0.17531  0.08203  Biso   1.000  Mn
  O4       1.0000 0.77028  0.15369  0.00840  Biso   1.000  O
  O5       1.0000 0.77569  0.25408  0.93783  Biso   1.000  O
  O6       1.0000 0.82068  0.20431  0.14907  Biso   1.000  O
  N4       1.0000 0.78911  0.21690  0.03020  Biso   1.000  N
  N5       1.0000 0.80507  0.24448  0.06572  Biso   1.000  N
  C16      1.0000 0.75357  0.16624  0.95070  Biso   1.000  C
  C17      1.0000 0.73320  0.14370  0.91030  Biso   1.000  C
  H13      1.0000 0.73220  0.12130  0.92610  Biso   1.000  H
  C18      1.0000 0.71570  0.15340  0.85170  Biso   1.000  C
  H14      1.0000 0.69710  0.14090  0.83530  Biso   1.000  H
  C19      1.0000 0.72480  0.18230  0.81380  Biso   1.000  C
  H15      1.0000 0.72270  0.18480  0.76020  Biso   1.000  H
  C20      1.0000 0.73780  0.20810  0.86240  Biso   1.000  C
  H16      1.0000 0.73450  0.23090  0.85100  Biso   1.000  H
  C21      1.0000 0.75529  0.19827  0.92620  Biso   1.000  C
  C22      1.0000 0.77468  0.22437  0.96640  Biso   1.000  C
  C23      1.0000 0.82043  0.23458  0.12630  Biso   1.000  C
  C24      1.0000 0.83815  0.26056  0.17280  Biso   1.000  C
  H17      1.0000 0.82140  0.27490  0.19740  Biso   1.000  H
  H18      1.0000 0.85140  0.27460  0.13810  Biso   1.000  H
  C25      1.0000 0.86110  0.24650  0.23450  Biso   1.000  C
  H19      1.0000 0.84820  0.23280  0.26980  Biso   1.000  H
  H20      1.0000 0.87140  0.26480  0.26250  Biso   1.000  H
  H21      1.0000 0.87840  0.23300  0.21060  Biso   1.000  H
  Mn3      1.0000 0.71151  0.20922  0.49449  Biso   1.000  Mn
  O7       1.0000 0.66935  0.20132  0.53273  Biso   1.000  O
  O8       1.0000 0.68229  0.13381  0.34906  Biso   1.000  O
  O9       1.0000 0.75423  0.21141  0.44491  Biso   1.000  O
  N6       1.0000 0.70671  0.17387  0.42132  Biso   1.000  N
  N7       1.0000 0.73522  0.16787  0.37690  Biso   1.000  N
  C26      1.0000 0.64693  0.17926  0.51130  Biso   1.000  C
  C27      1.0000 0.61668  0.17889  0.55040  Biso   1.000  C
  H22      1.0000 0.61310  0.19440  0.59030  Biso   1.000  H
  C28      1.0000 0.59190  0.15660  0.53230  Biso   1.000  C
  H23      1.0000 0.57150  0.15710  0.55940  Biso   1.000  H
  C29      1.0000 0.59651  0.13412  0.47640  Biso   1.000  C
  H24      1.0000 0.57990  0.11810  0.46590  Biso   1.000  H
  C30      1.0000 0.62534  0.13464  0.43480  Biso   1.000  C
  H25      1.0000 0.62780  0.11950  0.39380  Biso   1.000  H
  C31      1.0000 0.65114  0.15665  0.45100  Biso   1.000  C
  C32      1.0000 0.68084  0.15461  0.40430  Biso   1.000  C
  C33      1.0000 0.75811  0.18874  0.39370  Biso   1.000  C
  C34      1.0000 0.79165  0.18558  0.35740  Biso   1.000  C
  H26      1.0000 0.79570  0.20510  0.32480  Biso   1.000  H
  H27      1.0000 0.79190  0.16570  0.32450  Biso   1.000  H
  C35      1.0000 0.81888  0.18290  0.41510  Biso   1.000  C
  H28      1.0000 0.81570  0.16280  0.44560  Biso   1.000  H
  H29      1.0000 0.84030  0.18170  0.38890  Biso   1.000  H
  H30      1.0000 0.81850  0.20240  0.44840  Biso   1.000  H
  N8       1.0000 0.57408  0.98651  0.83140  Biso   1.000  N
  C36      1.0000 0.56372  0.01699  0.86030  Biso   1.000  C
  H31      1.0000 0.54180  0.02460  0.85100  Biso   1.000  H
  C37      1.0000 0.58560  0.03640  0.90300  Biso   1.000  C
  H32      1.0000 0.58170  0.05920  0.91230  Biso   1.000  H
  C38      1.0000 0.61550  0.01910  0.93310  Biso   1.000  C
  C39      1.0000 0.62430  0.99500  0.89550  Biso   1.000  C
  H33      1.0000 0.64580  0.98580  0.90150  Biso   1.000  H
  C40      1.0000 0.60210  0.98190  0.84440  Biso   1.000  C
  H34      1.0000 0.61170  0.96550  0.81260  Biso   1.000  H
  C41      1.0000 0.63850  0.03580  0.98960  Biso   1.000  C
  H35      1.0000 0.65740  0.04550  0.96160  Biso   1.000  H
  H36      1.0000 0.64740  0.01880  0.02470  Biso   1.000  H
  Mn4      1.0000 0.22027  0.63581  0.77818  Biso   1.000  Mn
  O10      1.0000 0.24032  0.59797  0.81305  Biso   1.000  O
  O11      1.0000 0.30300  0.63408  0.63892  Biso   1.000  O
  O12      1.0000 0.20545  0.67652  0.73101  Biso   1.000  O
  N9       1.0000 0.25612  0.64303  0.70730  Biso   1.000  N
  N10      1.0000 0.25394  0.67329  0.66470  Biso   1.000  N
  N11      1.0000 0.18864  0.60813  0.69240  Biso   1.000  N
  C42      1.0000 0.26590  0.58064  0.78460  Biso   1.000  C
  C43      1.0000 0.27264  0.54953  0.81600  Biso   1.000  C
  H37      1.0000 0.25910  0.54130  0.85610  Biso   1.000  H
  C44      1.0000 0.29848  0.53068  0.78970  Biso   1.000  C
  H38      1.0000 0.30280  0.50980  0.81240  Biso   1.000  H
  C45      1.0000 0.31824  0.54152  0.73070  Biso   1.000  C
  H39      1.0000 0.33540  0.52790  0.71120  Biso   1.000  H
  C46      1.0000 0.31267  0.57219  0.70090  Biso   1.000  C
  H40      1.0000 0.32700  0.58010  0.66210  Biso   1.000  H
  C47      1.0000 0.28651  0.59253  0.72530  Biso   1.000  C
  C48      1.0000 0.28200  0.62477  0.68850  Biso   1.000  C
  C49      1.0000 0.22638  0.68801  0.68200  Biso   1.000  C
  C50      1.0000 0.21712  0.72021  0.64350  Biso   1.000  C
  H41      1.0000 0.23670  0.72990  0.61800  Biso   1.000  H
  H42      1.0000 0.20900  0.73630  0.68170  Biso   1.000  H
  C51      1.0000 0.16827  0.58454  0.71280  Biso   1.000  C
  H43      1.0000 0.16780  0.57860  0.76510  Biso   1.000  H
  C52      1.0000 0.14753  0.56779  0.66450  Biso   1.000  C
  H44      1.0000 0.13450  0.54980  0.68200  Biso   1.000  H
  C53      1.0000 0.14624  0.57799  0.58940  Biso   1.000  C
  C54      1.0000 0.16779  0.60253  0.56880  Biso   1.000  C
  H45      1.0000 0.16800  0.61000  0.51760  Biso   1.000  H
  C55      1.0000 0.18831  0.61611  0.61840  Biso   1.000  C
  H46      1.0000 0.20350  0.63230  0.60070  Biso   1.000  H
  C56      1.0000 0.12281  0.56170  0.53430  Biso   1.000  C
  H47      1.0000 0.10400  0.55200  0.56300  Biso   1.000  H
  H48      1.0000 0.11380  0.57870  0.49940  Biso   1.000  H
  Mn5      1.0000 0.29573  0.67531  0.58203  Biso   1.000  Mn
  O13      1.0000 0.27028  0.65369  0.50840  Biso   1.000  O
  O14      1.0000 0.27569  0.75408  0.43783  Biso   1.000  O
  O15      1.0000 0.32068  0.70431  0.64907  Biso   1.000  O
  N12      1.0000 0.28911  0.71690  0.53020  Biso   1.000  N
  N13      1.0000 0.30507  0.74448  0.56572  Biso   1.000  N
  C57      1.0000 0.25357  0.66624  0.45070  Biso   1.000  C
  C58      1.0000 0.23320  0.64370  0.41030  Biso   1.000  C
  H49      1.0000 0.23220  0.62130  0.42610  Biso   1.000  H
  C59      1.0000 0.21570  0.65340  0.35170  Biso   1.000  C
  H50      1.0000 0.19710  0.64090  0.33530  Biso   1.000  H
  C60      1.0000 0.22480  0.68230  0.31380  Biso   1.000  C
  H51      1.0000 0.22270  0.68480  0.26020  Biso   1.000  H
  C61      1.0000 0.23780  0.70810  0.36240  Biso   1.000  C
  H52      1.0000 0.23450  0.73090  0.35100  Biso   1.000  H
  C62      1.0000 0.25529  0.69827  0.42620  Biso   1.000  C
  C63      1.0000 0.27468  0.72437  0.46640  Biso   1.000  C
  C64      1.0000 0.32043  0.73458  0.62630  Biso   1.000  C
  C65      1.0000 0.33815  0.76056  0.67280  Biso   1.000  C
  H53      1.0000 0.32140  0.77490  0.69740  Biso   1.000  H
  H54      1.0000 0.35140  0.77460  0.63810  Biso   1.000  H
  C66      1.0000 0.36110  0.74650  0.73450  Biso   1.000  C
  H55      1.0000 0.34820  0.73280  0.76980  Biso   1.000  H
  H56      1.0000 0.37140  0.76480  0.76250  Biso   1.000  H
  H57      1.0000 0.37840  0.73300  0.71060  Biso   1.000  H
  Mn6      1.0000 0.21151  0.70922  0.99449  Biso   1.000  Mn
  O16      1.0000 0.16935  0.70132  0.03273  Biso   1.000  O
  O17      1.0000 0.18229  0.63381  0.84906  Biso   1.000  O
  O18      1.0000 0.25423  0.71141  0.94491  Biso   1.000  O
  N14      1.0000 0.20671  0.67387  0.92132  Biso   1.000  N
  N15      1.0000 0.23522  0.66787  0.87690  Biso   1.000  N
  C67      1.0000 0.14693  0.67926  0.01130  Biso   1.000  C
  C68      1.0000 0.11668  0.67889  0.05040  Biso   1.000  C
  H58      1.0000 0.11310  0.69440  0.09030  Biso   1.000  H
  C69      1.0000 0.09190  0.65660  0.03230  Biso   1.000  C
  H59      1.0000 0.07150  0.65710  0.05940  Biso   1.000  H
  C70      1.0000 0.09651  0.63412  0.97640  Biso   1.000  C
  H60      1.0000 0.07990  0.61810  0.96590  Biso   1.000  H
  C71      1.0000 0.12534  0.63464  0.93480  Biso   1.000  C
  H61      1.0000 0.12780  0.61950  0.89380  Biso   1.000  H
  C72      1.0000 0.15114  0.65665  0.95100  Biso   1.000  C
  C73      1.0000 0.18084  0.65461  0.90430  Biso   1.000  C
  C74      1.0000 0.25811  0.68874  0.89370  Biso   1.000  C
  C75      1.0000 0.29165  0.68558  0.85740  Biso   1.000  C
  H62      1.0000 0.29570  0.70510  0.82480  Biso   1.000  H
  H63      1.0000 0.29190  0.66570  0.82450  Biso   1.000  H
  C76      1.0000 0.31888  0.68290  0.91510  Biso   1.000  C
  H64      1.0000 0.31570  0.66280  0.94560  Biso   1.000  H
  H65      1.0000 0.34030  0.68170  0.88890  Biso   1.000  H
  H66      1.0000 0.31850  0.70240  0.94840  Biso   1.000  H
  N16      1.0000 0.07408  0.48651  0.33140  Biso   1.000  N
  C77      1.0000 0.06372  0.51699  0.36030  Biso   1.000  C
  H67      1.0000 0.04180  0.52460  0.35100  Biso   1.000  H
  C78      1.0000 0.08560  0.53640  0.40300  Biso   1.000  C
  H68      1.0000 0.08170  0.55920  0.41230  Biso   1.000  H
  C79      1.0000 0.11550  0.51910  0.43310  Biso   1.000  C
  C80      1.0000 0.12430  0.49500  0.39550  Biso   1.000  C
  H69      1.0000 0.14580  0.48580  0.40150  Biso   1.000  H
  C81      1.0000 0.10210  0.48190  0.34440  Biso   1.000  C
  H70      1.0000 0.11170  0.46550  0.31260  Biso   1.000  H
  C82      1.0000 0.13850  0.53580  0.48960  Biso   1.000  C
  H71      1.0000 0.15740  0.54550  0.46160  Biso   1.000  H
  H72      1.0000 0.14740  0.51880  0.52470  Biso   1.000  H
  Mn7      1.0000 0.77973  0.86419  0.77818  Biso   1.000  Mn
  O19      1.0000 0.75968  0.90203  0.81305  Biso   1.000  O
  O20      1.0000 0.69700  0.86592  0.63892  Biso   1.000  O
  O21      1.0000 0.79455  0.82348  0.73101  Biso   1.000  O
  N17      1.0000 0.74388  0.85697  0.70730  Biso   1.000  N
  N18      1.0000 0.74606  0.82671  0.66470  Biso   1.000  N
  N19      1.0000 0.81136  0.89187  0.69240  Biso   1.000  N
  C83      1.0000 0.73410  0.91936  0.78460  Biso   1.000  C
  C84      1.0000 0.72736  0.95047  0.81600  Biso   1.000  C
  H73      1.0000 0.74090  0.95870  0.85610  Biso   1.000  H
  C85      1.0000 0.70152  0.96932  0.78970  Biso   1.000  C
  H74      1.0000 0.69720  0.99020  0.81240  Biso   1.000  H
  C86      1.0000 0.68176  0.95848  0.73070  Biso   1.000  C
  H75      1.0000 0.66460  0.97210  0.71120  Biso   1.000  H
  C87      1.0000 0.68733  0.92781  0.70090  Biso   1.000  C
  H76      1.0000 0.67300  0.91990  0.66210  Biso   1.000  H
  C88      1.0000 0.71349  0.90747  0.72530  Biso   1.000  C
  C89      1.0000 0.71800  0.87523  0.68850  Biso   1.000  C
  C90      1.0000 0.77362  0.81199  0.68200  Biso   1.000  C
  C91      1.0000 0.78288  0.77979  0.64350  Biso   1.000  C
  H77      1.0000 0.76330  0.77010  0.61800  Biso   1.000  H
  H78      1.0000 0.79100  0.76370  0.68170  Biso   1.000  H
  C92      1.0000 0.83173  0.91546  0.71280  Biso   1.000  C
  H79      1.0000 0.83220  0.92140  0.76510  Biso   1.000  H
  C93      1.0000 0.85247  0.93221  0.66450  Biso   1.000  C
  H80      1.0000 0.86550  0.95020  0.68200  Biso   1.000  H
  C94      1.0000 0.85376  0.92201  0.58940  Biso   1.000  C
  C95      1.0000 0.83221  0.89747  0.56880  Biso   1.000  C
  H81      1.0000 0.83200  0.89000  0.51760  Biso   1.000  H
  C96      1.0000 0.81169  0.88389  0.61840  Biso   1.000  C
  H82      1.0000 0.79650  0.86770  0.60070  Biso   1.000  H
  C97      1.0000 0.87719  0.93830  0.53430  Biso   1.000  C
  H83      1.0000 0.89600  0.94800  0.56300  Biso   1.000  H
  H84      1.0000 0.88620  0.92130  0.49940  Biso   1.000  H
  Mn8      1.0000 0.70427  0.82469  0.58203  Biso   1.000  Mn
  O22      1.0000 0.72972  0.84631  0.50840  Biso   1.000  O
  O23      1.0000 0.72431  0.74592  0.43783  Biso   1.000  O
  O24      1.0000 0.67932  0.79569  0.64907  Biso   1.000  O
  N20      1.0000 0.71089  0.78310  0.53020  Biso   1.000  N
  N21      1.0000 0.69493  0.75552  0.56572  Biso   1.000  N
  C98      1.0000 0.74643  0.83376  0.45070  Biso   1.000  C
  C99      1.0000 0.76680  0.85630  0.41030  Biso   1.000  C
  H85      1.0000 0.76780  0.87870  0.42610  Biso   1.000  H
  C100     1.0000 0.78430  0.84660  0.35170  Biso   1.000  C
  H86      1.0000 0.80290  0.85910  0.33530  Biso   1.000  H
  C101     1.0000 0.77520  0.81770  0.31380  Biso   1.000  C
  H87      1.0000 0.77730  0.81520  0.26020  Biso   1.000  H
  C102     1.0000 0.76220  0.79190  0.36240  Biso   1.000  C
  H88      1.0000 0.76550  0.76910  0.35100  Biso   1.000  H
  C103     1.0000 0.74471  0.80173  0.42620  Biso   1.000  C
  C104     1.0000 0.72532  0.77563  0.46640  Biso   1.000  C
  C105     1.0000 0.67957  0.76542  0.62630  Biso   1.000  C
  C106     1.0000 0.66185  0.73944  0.67280  Biso   1.000  C
  H89      1.0000 0.67860  0.72510  0.69740  Biso   1.000  H
  H90      1.0000 0.64860  0.72540  0.63810  Biso   1.000  H
  C107     1.0000 0.63890  0.75350  0.73450  Biso   1.000  C
  H91      1.0000 0.65180  0.76720  0.76980  Biso   1.000  H
  H92      1.0000 0.62860  0.73520  0.76250  Biso   1.000  H
  H93      1.0000 0.62160  0.76700  0.71060  Biso   1.000  H
  Mn9      1.0000 0.78849  0.79078  0.99449  Biso   1.000  Mn
  O25      1.0000 0.83065  0.79868  0.03273  Biso   1.000  O
  O26      1.0000 0.81771  0.86619  0.84906  Biso   1.000  O
  O27      1.0000 0.74577  0.78859  0.94491  Biso   1.000  O
  N22      1.0000 0.79329  0.82613  0.92132  Biso   1.000  N
  N23      1.0000 0.76478  0.83213  0.87690  Biso   1.000  N
  C108     1.0000 0.85307  0.82074  0.01130  Biso   1.000  C
  C109     1.0000 0.88332  0.82111  0.05040  Biso   1.000  C
  H94      1.0000 0.88690  0.80560  0.09030  Biso   1.000  H
  C110     1.0000 0.90810  0.84340  0.03230  Biso   1.000  C
  H95      1.0000 0.92850  0.84290  0.05940  Biso   1.000  H
  C111     1.0000 0.90349  0.86588  0.97640  Biso   1.000  C
  H96      1.0000 0.92010  0.88190  0.96590  Biso   1.000  H
  C112     1.0000 0.87466  0.86536  0.93480  Biso   1.000  C
  H97      1.0000 0.87220  0.88050  0.89380  Biso   1.000  H
  C113     1.0000 0.84886  0.84335  0.95100  Biso   1.000  C
  C114     1.0000 0.81916  0.84539  0.90430  Biso   1.000  C
  C115     1.0000 0.74189  0.81126  0.89370  Biso   1.000  C
  C116     1.0000 0.70835  0.81442  0.85740  Biso   1.000  C
  H98      1.0000 0.70430  0.79490  0.82480  Biso   1.000  H
  H99      1.0000 0.70810  0.83430  0.82450  Biso   1.000  H
  C117     1.0000 0.68112  0.81710  0.91510  Biso   1.000  C
  H100     1.0000 0.68430  0.83720  0.94560  Biso   1.000  H
  H101     1.0000 0.65970  0.81830  0.88890  Biso   1.000  H
  H102     1.0000 0.68150  0.79760  0.94840  Biso   1.000  H
  N24      1.0000 0.92592  0.01349  0.33140  Biso   1.000  N
  C118     1.0000 0.93628  0.98301  0.36030  Biso   1.000  C
  H103     1.0000 0.95820  0.97540  0.35100  Biso   1.000  H
  C119     1.0000 0.91440  0.96360  0.40300  Biso   1.000  C
  H104     1.0000 0.91830  0.94080  0.41230  Biso   1.000  H
  C120     1.0000 0.88450  0.98090  0.43310  Biso   1.000  C
  C121     1.0000 0.87570  0.00500  0.39550  Biso   1.000  C
  H105     1.0000 0.85420  0.01420  0.40150  Biso   1.000  H
  C122     1.0000 0.89790  0.01810  0.34440  Biso   1.000  C
  H106     1.0000 0.88830  0.03450  0.31260  Biso   1.000  H
  C123     1.0000 0.86150  0.96420  0.48960  Biso   1.000  C
  H107     1.0000 0.84260  0.95450  0.46160  Biso   1.000  H
  H108     1.0000 0.85260  0.98120  0.52470  Biso   1.000  H
  Mn10     1.0000 0.27973  0.36419  0.27818  Biso   1.000  Mn
  O28      1.0000 0.25968  0.40203  0.31305  Biso   1.000  O
  O29      1.0000 0.19700  0.36592  0.13892  Biso   1.000  O
  O30      1.0000 0.29455  0.32348  0.23101  Biso   1.000  O
  N25      1.0000 0.24388  0.35697  0.20730  Biso   1.000  N
  N26      1.0000 0.24606  0.32671  0.16470  Biso   1.000  N
  N27      1.0000 0.31136  0.39187  0.19240  Biso   1.000  N
  C124     1.0000 0.23410  0.41936  0.28460  Biso   1.000  C
  C125     1.0000 0.22736  0.45047  0.31600  Biso   1.000  C
  H109     1.0000 0.24090  0.45870  0.35610  Biso   1.000  H
  C126     1.0000 0.20152  0.46932  0.28970  Biso   1.000  C
  H110     1.0000 0.19720  0.49020  0.31240  Biso   1.000  H
  C127     1.0000 0.18176  0.45848  0.23070  Biso   1.000  C
  H111     1.0000 0.16460  0.47210  0.21120  Biso   1.000  H
  C128     1.0000 0.18733  0.42781  0.20090  Biso   1.000  C
  H112     1.0000 0.17300  0.41990  0.16210  Biso   1.000  H
  C129     1.0000 0.21349  0.40747  0.22530  Biso   1.000  C
  C130     1.0000 0.21800  0.37523  0.18850  Biso   1.000  C
  C131     1.0000 0.27362  0.31199  0.18200  Biso   1.000  C
  C132     1.0000 0.28288  0.27979  0.14350  Biso   1.000  C
  H113     1.0000 0.26330  0.27010  0.11800  Biso   1.000  H
  H114     1.0000 0.29100  0.26370  0.18170  Biso   1.000  H
  C133     1.0000 0.33173  0.41546  0.21280  Biso   1.000  C
  H115     1.0000 0.33220  0.42140  0.26510  Biso   1.000  H
  C134     1.0000 0.35247  0.43221  0.16450  Biso   1.000  C
  H116     1.0000 0.36550  0.45020  0.18200  Biso   1.000  H
  C135     1.0000 0.35376  0.42201  0.08940  Biso   1.000  C
  C136     1.0000 0.33221  0.39747  0.06880  Biso   1.000  C
  H117     1.0000 0.33200  0.39000  0.01760  Biso   1.000  H
  C137     1.0000 0.31169  0.38389  0.11840  Biso   1.000  C
  H118     1.0000 0.29650  0.36770  0.10070  Biso   1.000  H
  C138     1.0000 0.37719  0.43830  0.03430  Biso   1.000  C
  H119     1.0000 0.39600  0.44800  0.06300  Biso   1.000  H
  H120     1.0000 0.38620  0.42130  0.99940  Biso   1.000  H
  Mn11     1.0000 0.20427  0.32469  0.08203  Biso   1.000  Mn
  O31      1.0000 0.22972  0.34631  0.00840  Biso   1.000  O
  O32      1.0000 0.22431  0.24592  0.93783  Biso   1.000  O
  O33      1.0000 0.17932  0.29569  0.14907  Biso   1.000  O
  N28      1.0000 0.21089  0.28310  0.03020  Biso   1.000  N
  N29      1.0000 0.19493  0.25552  0.06572  Biso   1.000  N
  C139     1.0000 0.24643  0.33376  0.95070  Biso   1.000  C
  C140     1.0000 0.26680  0.35630  0.91030  Biso   1.000  C
  H121     1.0000 0.26780  0.37870  0.92610  Biso   1.000  H
  C141     1.0000 0.28430  0.34660  0.85170  Biso   1.000  C
  H122     1.0000 0.30290  0.35910  0.83530  Biso   1.000  H
  C142     1.0000 0.27520  0.31770  0.81380  Biso   1.000  C
  H123     1.0000 0.27730  0.31520  0.76020  Biso   1.000  H
  C143     1.0000 0.26220  0.29190  0.86240  Biso   1.000  C
  H124     1.0000 0.26550  0.26910  0.85100  Biso   1.000  H
  C144     1.0000 0.24471  0.30173  0.92620  Biso   1.000  C
  C145     1.0000 0.22532  0.27563  0.96640  Biso   1.000  C
  C146     1.0000 0.17957  0.26542  0.12630  Biso   1.000  C
  C147     1.0000 0.16185  0.23944  0.17280  Biso   1.000  C
  H125     1.0000 0.17860  0.22510  0.19740  Biso   1.000  H
  H126     1.0000 0.14860  0.22540  0.13810  Biso   1.000  H
  C148     1.0000 0.13890  0.25350  0.23450  Biso   1.000  C
  H127     1.0000 0.15180  0.26720  0.26980  Biso   1.000  H
  H128     1.0000 0.12860  0.23520  0.26250  Biso   1.000  H
  H129     1.0000 0.12160  0.26700  0.21060  Biso   1.000  H
  Mn12     1.0000 0.28849  0.29078  0.49449  Biso   1.000  Mn
  O34      1.0000 0.33065  0.29868  0.53273  Biso   1.000  O
  O35      1.0000 0.31771  0.36619  0.34906  Biso   1.000  O
  O36      1.0000 0.24577  0.28859  0.44491  Biso   1.000  O
  N30      1.0000 0.29329  0.32613  0.42132  Biso   1.000  N
  N31      1.0000 0.26478  0.33213  0.37690  Biso   1.000  N
  C149     1.0000 0.35307  0.32074  0.51130  Biso   1.000  C
  C150     1.0000 0.38332  0.32111  0.55040  Biso   1.000  C
  H130     1.0000 0.38690  0.30560  0.59030  Biso   1.000  H
  C151     1.0000 0.40810  0.34340  0.53230  Biso   1.000  C
  H131     1.0000 0.42850  0.34290  0.55940  Biso   1.000  H
  C152     1.0000 0.40349  0.36588  0.47640  Biso   1.000  C
  H132     1.0000 0.42010  0.38190  0.46590  Biso   1.000  H
  C153     1.0000 0.37466  0.36536  0.43480  Biso   1.000  C
  H133     1.0000 0.37220  0.38050  0.39380  Biso   1.000  H
  C154     1.0000 0.34886  0.34335  0.45100  Biso   1.000  C
  C155     1.0000 0.31916  0.34539  0.40430  Biso   1.000  C
  C156     1.0000 0.24189  0.31126  0.39370  Biso   1.000  C
  C157     1.0000 0.20835  0.31442  0.35740  Biso   1.000  C
  H134     1.0000 0.20430  0.29490  0.32480  Biso   1.000  H
  H135     1.0000 0.20810  0.33430  0.32450  Biso   1.000  H
  C158     1.0000 0.18112  0.31710  0.41510  Biso   1.000  C
  H136     1.0000 0.18430  0.33720  0.44560  Biso   1.000  H
  H137     1.0000 0.15970  0.31830  0.38890  Biso   1.000  H
  H138     1.0000 0.18150  0.29760  0.44840  Biso   1.000  H
  N32      1.0000 0.42592  0.51349  0.83140  Biso   1.000  N
  C159     1.0000 0.43628  0.48301  0.86030  Biso   1.000  C
  H139     1.0000 0.45820  0.47540  0.85100  Biso   1.000  H
  C160     1.0000 0.41440  0.46360  0.90300  Biso   1.000  C
  H140     1.0000 0.41830  0.44080  0.91230  Biso   1.000  H
  C161     1.0000 0.38450  0.48090  0.93310  Biso   1.000  C
  C162     1.0000 0.37570  0.50500  0.89550  Biso   1.000  C
  H141     1.0000 0.35420  0.51420  0.90150  Biso   1.000  H
  C163     1.0000 0.39790  0.51810  0.84440  Biso   1.000  C
  H142     1.0000 0.38830  0.53450  0.81260  Biso   1.000  H
  C164     1.0000 0.36150  0.46420  0.98960  Biso   1.000  C
  H143     1.0000 0.34260  0.45450  0.96160  Biso   1.000  H
  H144     1.0000 0.35260  0.48120  0.02470  Biso   1.000  H
  Mn13     1.0000 0.61419  0.97027  0.52818  Biso   1.000  Mn
  O37      1.0000 0.65203  0.99032  0.56305  Biso   1.000  O
  O38      1.0000 0.61592  0.05300  0.38892  Biso   1.000  O
  O39      1.0000 0.57348  0.95545  0.48101  Biso   1.000  O
  N33      1.0000 0.60697  0.00612  0.45730  Biso   1.000  N
  N34      1.0000 0.57671  0.00394  0.41470  Biso   1.000  N
  N35      1.0000 0.64187  0.93864  0.44240  Biso   1.000  N
  C165     1.0000 0.66936  0.01590  0.53460  Biso   1.000  C
  C166     1.0000 0.70047  0.02264  0.56600  Biso   1.000  C
  H145     1.0000 0.70870  0.00910  0.60610  Biso   1.000  H
  C167     1.0000 0.71932  0.04848  0.53970  Biso   1.000  C
  H146     1.0000 0.74020  0.05280  0.56240  Biso   1.000  H
  C168     1.0000 0.70848  0.06824  0.48070  Biso   1.000  C
  H147     1.0000 0.72210  0.08540  0.46120  Biso   1.000  H
  C169     1.0000 0.67781  0.06267  0.45090  Biso   1.000  C
  H148     1.0000 0.66990  0.07700  0.41210  Biso   1.000  H
  C170     1.0000 0.65747  0.03651  0.47530  Biso   1.000  C
  C171     1.0000 0.62523  0.03200  0.43850  Biso   1.000  C
  C172     1.0000 0.56199  0.97638  0.43200  Biso   1.000  C
  C173     1.0000 0.52979  0.96712  0.39350  Biso   1.000  C
  H149     1.0000 0.52010  0.98670  0.36800  Biso   1.000  H
  H150     1.0000 0.51370  0.95900  0.43170  Biso   1.000  H
  C174     1.0000 0.66546  0.91827  0.46280  Biso   1.000  C
  H151     1.0000 0.67140  0.91780  0.51510  Biso   1.000  H
  C175     1.0000 0.68221  0.89753  0.41450  Biso   1.000  C
  H152     1.0000 0.70020  0.88450  0.43200  Biso   1.000  H
  C176     1.0000 0.67201  0.89624  0.33940  Biso   1.000  C
  C177     1.0000 0.64747  0.91779  0.31880  Biso   1.000  C
  H153     1.0000 0.64000  0.91800  0.26760  Biso   1.000  H
  C178     1.0000 0.63389  0.93831  0.36840  Biso   1.000  C
  H154     1.0000 0.61770  0.95350  0.35070  Biso   1.000  H
  C179     1.0000 0.68830  0.87281  0.28430  Biso   1.000  C
  H155     1.0000 0.69800  0.85400  0.31300  Biso   1.000  H
  H156     1.0000 0.67130  0.86380  0.24940  Biso   1.000  H
  Mn14     1.0000 0.57469  0.04573  0.33203  Biso   1.000  Mn
  O40      1.0000 0.59631  0.02028  0.25840  Biso   1.000  O
  O41      1.0000 0.49592  0.02569  0.18783  Biso   1.000  O
  O42      1.0000 0.54569  0.07068  0.39907  Biso   1.000  O
  N36      1.0000 0.53310  0.03911  0.28020  Biso   1.000  N
  N37      1.0000 0.50552  0.05507  0.31572  Biso   1.000  N
  C180     1.0000 0.58376  0.00357  0.20070  Biso   1.000  C
  C181     1.0000 0.60630  0.98320  0.16030  Biso   1.000  C
  H157     1.0000 0.62870  0.98220  0.17610  Biso   1.000  H
  C182     1.0000 0.59660  0.96570  0.10170  Biso   1.000  C
  H158     1.0000 0.60910  0.94710  0.08530  Biso   1.000  H
  C183     1.0000 0.56770  0.97480  0.06380  Biso   1.000  C
  H159     1.0000 0.56520  0.97270  0.01020  Biso   1.000  H
  C184     1.0000 0.54190  0.98780  0.11240  Biso   1.000  C
  H160     1.0000 0.51910  0.98450  0.10100  Biso   1.000  H
  C185     1.0000 0.55173  0.00529  0.17620  Biso   1.000  C
  C186     1.0000 0.52563  0.02468  0.21640  Biso   1.000  C
  C187     1.0000 0.51542  0.07043  0.37630  Biso   1.000  C
  C188     1.0000 0.48944  0.08815  0.42280  Biso   1.000  C
  H161     1.0000 0.47510  0.07140  0.44740  Biso   1.000  H
  H162     1.0000 0.47540  0.10140  0.38810  Biso   1.000  H
  C189     1.0000 0.50350  0.11110  0.48450  Biso   1.000  C
  H163     1.0000 0.51720  0.09820  0.51980  Biso   1.000  H
  H164     1.0000 0.48520  0.12140  0.51250  Biso   1.000  H
  H165     1.0000 0.51700  0.12840  0.46060  Biso   1.000  H
  Mn15     1.0000 0.54078  0.96151  0.74449  Biso   1.000  Mn
  O43      1.0000 0.54868  0.91935  0.78273  Biso   1.000  O
  O44      1.0000 0.61619  0.93229  0.59906  Biso   1.000  O
  O45      1.0000 0.53859  0.00423  0.69491  Biso   1.000  O
  N38      1.0000 0.57613  0.95671  0.67132  Biso   1.000  N
  N39      1.0000 0.58213  0.98522  0.62690  Biso   1.000  N
  C190     1.0000 0.57074  0.89693  0.76130  Biso   1.000  C
  C191     1.0000 0.57111  0.86668  0.80040  Biso   1.000  C
  H166     1.0000 0.55560  0.86310  0.84030  Biso   1.000  H
  C192     1.0000 0.59340  0.84190  0.78230  Biso   1.000  C
  H167     1.0000 0.59290  0.82150  0.80940  Biso   1.000  H
  C193     1.0000 0.61588  0.84651  0.72640  Biso   1.000  C
  H168     1.0000 0.63190  0.82990  0.71590  Biso   1.000  H
  C194     1.0000 0.61536  0.87534  0.68480  Biso   1.000  C
  H169     1.0000 0.63050  0.87780  0.64380  Biso   1.000  H
  C195     1.0000 0.59335  0.90114  0.70100  Biso   1.000  C
  C196     1.0000 0.59539  0.93084  0.65430  Biso   1.000  C
  C197     1.0000 0.56126  0.00811  0.64370  Biso   1.000  C
  C198     1.0000 0.56442  0.04165  0.60740  Biso   1.000  C
  H170     1.0000 0.54490  0.04570  0.57480  Biso   1.000  H
  H171     1.0000 0.58430  0.04190  0.57450  Biso   1.000  H
  C199     1.0000 0.56710  0.06888  0.66510  Biso   1.000  C
  H172     1.0000 0.58720  0.06570  0.69560  Biso   1.000  H
  H173     1.0000 0.56830  0.09030  0.63890  Biso   1.000  H
  H174     1.0000 0.54760  0.06850  0.69840  Biso   1.000  H
  N40      1.0000 0.76349  0.82408  0.08140  Biso   1.000  N
  C200     1.0000 0.73301  0.81372  0.11030  Biso   1.000  C
  H175     1.0000 0.72540  0.79180  0.10100  Biso   1.000  H
  C201     1.0000 0.71360  0.83560  0.15300  Biso   1.000  C
  H176     1.0000 0.69080  0.83170  0.16230  Biso   1.000  H
  C202     1.0000 0.73090  0.86550  0.18310  Biso   1.000  C
  C203     1.0000 0.75500  0.87430  0.14550  Biso   1.000  C
  H177     1.0000 0.76420  0.89580  0.15150  Biso   1.000  H
  C204     1.0000 0.76810  0.85210  0.09440  Biso   1.000  C
  H178     1.0000 0.78450  0.86170  0.06260  Biso   1.000  H
  C205     1.0000 0.71420  0.88850  0.23960  Biso   1.000  C
  H179     1.0000 0.70450  0.90740  0.21160  Biso   1.000  H
  H180     1.0000 0.73120  0.89740  0.27470  Biso   1.000  H
  Mn16     1.0000 0.11419  0.47027  0.02818  Biso   1.000  Mn
  O46      1.0000 0.15203  0.49032  0.06305  Biso   1.000  O
  O47      1.0000 0.11592  0.55300  0.88892  Biso   1.000  O
  O48      1.0000 0.07348  0.45545  0.98101  Biso   1.000  O
  N41      1.0000 0.10697  0.50612  0.95730  Biso   1.000  N
  N42      1.0000 0.07671  0.50394  0.91470  Biso   1.000  N
  N43      1.0000 0.14187  0.43864  0.94240  Biso   1.000  N
  C206     1.0000 0.16936  0.51590  0.03460  Biso   1.000  C
  C207     1.0000 0.20047  0.52264  0.06600  Biso   1.000  C
  H181     1.0000 0.20870  0.50910  0.10610  Biso   1.000  H
  C208     1.0000 0.21932  0.54848  0.03970  Biso   1.000  C
  H182     1.0000 0.24020  0.55280  0.06240  Biso   1.000  H
  C209     1.0000 0.20848  0.56824  0.98070  Biso   1.000  C
  H183     1.0000 0.22210  0.58540  0.96120  Biso   1.000  H
  C210     1.0000 0.17781  0.56267  0.95090  Biso   1.000  C
  H184     1.0000 0.16990  0.57700  0.91210  Biso   1.000  H
  C211     1.0000 0.15747  0.53651  0.97530  Biso   1.000  C
  C212     1.0000 0.12523  0.53200  0.93850  Biso   1.000  C
  C213     1.0000 0.06199  0.47638  0.93200  Biso   1.000  C
  C214     1.0000 0.02979  0.46712  0.89350  Biso   1.000  C
  H185     1.0000 0.02010  0.48670  0.86800  Biso   1.000  H
  H186     1.0000 0.01370  0.45900  0.93170  Biso   1.000  H
  C215     1.0000 0.16546  0.41827  0.96280  Biso   1.000  C
  H187     1.0000 0.17140  0.41780  0.01510  Biso   1.000  H
  C216     1.0000 0.18221  0.39753  0.91450  Biso   1.000  C
  H188     1.0000 0.20020  0.38450  0.93200  Biso   1.000  H
  C217     1.0000 0.17201  0.39624  0.83940  Biso   1.000  C
  C218     1.0000 0.14747  0.41779  0.81880  Biso   1.000  C
  H189     1.0000 0.14000  0.41800  0.76760  Biso   1.000  H
  C219     1.0000 0.13389  0.43831  0.86840  Biso   1.000  C
  H190     1.0000 0.11770  0.45350  0.85070  Biso   1.000  H
  C220     1.0000 0.18830  0.37281  0.78430  Biso   1.000  C
  H191     1.0000 0.19800  0.35400  0.81300  Biso   1.000  H
  H192     1.0000 0.17130  0.36380  0.74940  Biso   1.000  H
  Mn17     1.0000 0.07469  0.54573  0.83203  Biso   1.000  Mn
  O49      1.0000 0.09631  0.52028  0.75840  Biso   1.000  O
  O50      1.0000 0.99592  0.52569  0.68783  Biso   1.000  O
  O51      1.0000 0.04569  0.57068  0.89907  Biso   1.000  O
  N44      1.0000 0.03310  0.53911  0.78020  Biso   1.000  N
  N45      1.0000 0.00552  0.55507  0.81572  Biso   1.000  N
  C221     1.0000 0.08376  0.50357  0.70070  Biso   1.000  C
  C222     1.0000 0.10630  0.48320  0.66030  Biso   1.000  C
  H193     1.0000 0.12870  0.48220  0.67610  Biso   1.000  H
  C223     1.0000 0.09660  0.46570  0.60170  Biso   1.000  C
  H194     1.0000 0.10910  0.44710  0.58530  Biso   1.000  H
  C224     1.0000 0.06770  0.47480  0.56380  Biso   1.000  C
  H195     1.0000 0.06520  0.47270  0.51020  Biso   1.000  H
  C225     1.0000 0.04190  0.48780  0.61240  Biso   1.000  C
  H196     1.0000 0.01910  0.48450  0.60100  Biso   1.000  H
  C226     1.0000 0.05173  0.50529  0.67620  Biso   1.000  C
  C227     1.0000 0.02563  0.52468  0.71640  Biso   1.000  C
  C228     1.0000 0.01542  0.57043  0.87630  Biso   1.000  C
  C229     1.0000 0.98944  0.58815  0.92280  Biso   1.000  C
  H197     1.0000 0.97510  0.57140  0.94740  Biso   1.000  H
  H198     1.0000 0.97540  0.60140  0.88810  Biso   1.000  H
  C230     1.0000 0.00350  0.61110  0.98450  Biso   1.000  C
  H199     1.0000 0.01720  0.59820  0.01980  Biso   1.000  H
  H200     1.0000 0.98520  0.62140  0.01250  Biso   1.000  H
  H201     1.0000 0.01700  0.62840  0.96060  Biso   1.000  H
  Mn18     1.0000 0.04078  0.46151  0.24449  Biso   1.000  Mn
  O52      1.0000 0.04868  0.41935  0.28273  Biso   1.000  O
  O53      1.0000 0.11619  0.43229  0.09906  Biso   1.000  O
  O54      1.0000 0.03859  0.50423  0.19491  Biso   1.000  O
  N46      1.0000 0.07613  0.45671  0.17132  Biso   1.000  N
  N47      1.0000 0.08213  0.48522  0.12690  Biso   1.000  N
  C231     1.0000 0.07074  0.39693  0.26130  Biso   1.000  C
  C232     1.0000 0.07111  0.36668  0.30040  Biso   1.000  C
  H202     1.0000 0.05560  0.36310  0.34030  Biso   1.000  H
  C233     1.0000 0.09340  0.34190  0.28230  Biso   1.000  C
  H203     1.0000 0.09290  0.32150  0.30940  Biso   1.000  H
  C234     1.0000 0.11588  0.34651  0.22640  Biso   1.000  C
  H204     1.0000 0.13190  0.32990  0.21590  Biso   1.000  H
  C235     1.0000 0.11536  0.37534  0.18480  Biso   1.000  C
  H205     1.0000 0.13050  0.37780  0.14380  Biso   1.000  H
  C236     1.0000 0.09335  0.40114  0.20100  Biso   1.000  C
  C237     1.0000 0.09539  0.43084  0.15430  Biso   1.000  C
  C238     1.0000 0.06126  0.50811  0.14370  Biso   1.000  C
  C239     1.0000 0.06442  0.54165  0.10740  Biso   1.000  C
  H206     1.0000 0.04490  0.54570  0.07480  Biso   1.000  H
  H207     1.0000 0.08430  0.54190  0.07450  Biso   1.000  H
  C240     1.0000 0.06710  0.56888  0.16510  Biso   1.000  C
  H208     1.0000 0.08720  0.56570  0.19560  Biso   1.000  H
  H209     1.0000 0.06830  0.59030  0.13890  Biso   1.000  H
  H210     1.0000 0.04760  0.56850  0.19840  Biso   1.000  H
  N48      1.0000 0.26349  0.32408  0.58140  Biso   1.000  N
  C241     1.0000 0.23301  0.31372  0.61030  Biso   1.000  C
  H211     1.0000 0.22540  0.29180  0.60100  Biso   1.000  H
  C242     1.0000 0.21360  0.33560  0.65300  Biso   1.000  C
  H212     1.0000 0.19080  0.33170  0.66230  Biso   1.000  H
  C243     1.0000 0.23090  0.36550  0.68310  Biso   1.000  C
  C244     1.0000 0.25500  0.37430  0.64550  Biso   1.000  C
  H213     1.0000 0.26420  0.39580  0.65150  Biso   1.000  H
  C245     1.0000 0.26810  0.35210  0.59440  Biso   1.000  C
  H214     1.0000 0.28450  0.36170  0.56260  Biso   1.000  H
  C246     1.0000 0.21420  0.38850  0.73960  Biso   1.000  C
  H215     1.0000 0.20450  0.40740  0.71160  Biso   1.000  H
  H216     1.0000 0.23120  0.39740  0.77470  Biso   1.000  H
  Mn19     1.0000 0.88581  0.02973  0.02818  Biso   1.000  Mn
  O55      1.0000 0.84797  0.00968  0.06305  Biso   1.000  O
  O56      1.0000 0.88408  0.94700  0.88892  Biso   1.000  O
  O57      1.0000 0.92652  0.04455  0.98101  Biso   1.000  O
  N49      1.0000 0.89303  0.99388  0.95730  Biso   1.000  N
  N50      1.0000 0.92329  0.99606  0.91470  Biso   1.000  N
  N51      1.0000 0.85813  0.06136  0.94240  Biso   1.000  N
  C247     1.0000 0.83064  0.98410  0.03460  Biso   1.000  C
  C248     1.0000 0.79953  0.97736  0.06600  Biso   1.000  C
  H217     1.0000 0.79130  0.99090  0.10610  Biso   1.000  H
  C249     1.0000 0.78068  0.95152  0.03970  Biso   1.000  C
  H218     1.0000 0.75980  0.94720  0.06240  Biso   1.000  H
  C250     1.0000 0.79152  0.93176  0.98070  Biso   1.000  C
  H219     1.0000 0.77790  0.91460  0.96120  Biso   1.000  H
  C251     1.0000 0.82219  0.93733  0.95090  Biso   1.000  C
  H220     1.0000 0.83010  0.92300  0.91210  Biso   1.000  H
  C252     1.0000 0.84253  0.96349  0.97530  Biso   1.000  C
  C253     1.0000 0.87477  0.96800  0.93850  Biso   1.000  C
  C254     1.0000 0.93801  0.02362  0.93200  Biso   1.000  C
  C255     1.0000 0.97021  0.03288  0.89350  Biso   1.000  C
  H221     1.0000 0.97990  0.01330  0.86800  Biso   1.000  H
  H222     1.0000 0.98630  0.04100  0.93170  Biso   1.000  H
  C256     1.0000 0.83454  0.08173  0.96280  Biso   1.000  C
  H223     1.0000 0.82860  0.08220  0.01510  Biso   1.000  H
  C257     1.0000 0.81779  0.10247  0.91450  Biso   1.000  C
  H224     1.0000 0.79980  0.11550  0.93200  Biso   1.000  H
  C258     1.0000 0.82799  0.10376  0.83940  Biso   1.000  C
  C259     1.0000 0.85253  0.08221  0.81880  Biso   1.000  C
  H225     1.0000 0.86000  0.08200  0.76760  Biso   1.000  H
  C260     1.0000 0.86611  0.06169  0.86840  Biso   1.000  C
  H226     1.0000 0.88230  0.04650  0.85070  Biso   1.000  H
  C261     1.0000 0.81170  0.12719  0.78430  Biso   1.000  C
  H227     1.0000 0.80200  0.14600  0.81300  Biso   1.000  H
  H228     1.0000 0.82870  0.13620  0.74940  Biso   1.000  H
  Mn20     1.0000 0.92531  0.95427  0.83203  Biso   1.000  Mn
  O58      1.0000 0.90369  0.97972  0.75840  Biso   1.000  O
  O59      1.0000 0.00408  0.97431  0.68783  Biso   1.000  O
  O60      1.0000 0.95431  0.92932  0.89907  Biso   1.000  O
  N52      1.0000 0.96690  0.96089  0.78020  Biso   1.000  N
  N53      1.0000 0.99448  0.94493  0.81572  Biso   1.000  N
  C262     1.0000 0.91624  0.99643  0.70070  Biso   1.000  C
  C263     1.0000 0.89370  0.01680  0.66030  Biso   1.000  C
  H229     1.0000 0.87130  0.01780  0.67610  Biso   1.000  H
  C264     1.0000 0.90340  0.03430  0.60170  Biso   1.000  C
  H230     1.0000 0.89090  0.05290  0.58530  Biso   1.000  H
  C265     1.0000 0.93230  0.02520  0.56380  Biso   1.000  C
  H231     1.0000 0.93480  0.02730  0.51020  Biso   1.000  H
  C266     1.0000 0.95810  0.01220  0.61240  Biso   1.000  C
  H232     1.0000 0.98090  0.01550  0.60100  Biso   1.000  H
  C267     1.0000 0.94827  0.99471  0.67620  Biso   1.000  C
  C268     1.0000 0.97437  0.97532  0.71640  Biso   1.000  C
  C269     1.0000 0.98458  0.92957  0.87630  Biso   1.000  C
  C270     1.0000 0.01056  0.91185  0.92280  Biso   1.000  C
  H233     1.0000 0.02490  0.92860  0.94740  Biso   1.000  H
  H234     1.0000 0.02460  0.89860  0.88810  Biso   1.000  H
  C271     1.0000 0.99650  0.88890  0.98450  Biso   1.000  C
  H235     1.0000 0.98280  0.90180  0.01980  Biso   1.000  H
  H236     1.0000 0.01480  0.87860  0.01250  Biso   1.000  H
  H237     1.0000 0.98300  0.87160  0.96060  Biso   1.000  H
  Mn21     1.0000 0.95922  0.03849  0.24449  Biso   1.000  Mn
  O61      1.0000 0.95132  0.08065  0.28273  Biso   1.000  O
  O62      1.0000 0.88381  0.06771  0.09906  Biso   1.000  O
  O63      1.0000 0.96141  0.99577  0.19491  Biso   1.000  O
  N54      1.0000 0.92387  0.04329  0.17132  Biso   1.000  N
  N55      1.0000 0.91787  0.01478  0.12690  Biso   1.000  N
  C272     1.0000 0.92926  0.10307  0.26130  Biso   1.000  C
  C273     1.0000 0.92889  0.13332  0.30040  Biso   1.000  C
  H238     1.0000 0.94440  0.13690  0.34030  Biso   1.000  H
  C274     1.0000 0.90660  0.15810  0.28230  Biso   1.000  C
  H239     1.0000 0.90710  0.17850  0.30940  Biso   1.000  H
  C275     1.0000 0.88412  0.15349  0.22640  Biso   1.000  C
  H240     1.0000 0.86810  0.17010  0.21590  Biso   1.000  H
  C276     1.0000 0.88464  0.12466  0.18480  Biso   1.000  C
  H241     1.0000 0.86950  0.12220  0.14380  Biso   1.000  H
  C277     1.0000 0.90665  0.09886  0.20100  Biso   1.000  C
  C278     1.0000 0.90461  0.06916  0.15430  Biso   1.000  C
  C279     1.0000 0.93874  0.99189  0.14370  Biso   1.000  C
  C280     1.0000 0.93558  0.95835  0.10740  Biso   1.000  C
  H242     1.0000 0.95510  0.95430  0.07480  Biso   1.000  H
  H243     1.0000 0.91570  0.95810  0.07450  Biso   1.000  H
  C281     1.0000 0.93290  0.93112  0.16510  Biso   1.000  C
  H244     1.0000 0.91280  0.93430  0.19560  Biso   1.000  H
  H245     1.0000 0.93170  0.90970  0.13890  Biso   1.000  H
  H246     1.0000 0.95240  0.93150  0.19840  Biso   1.000  H
  N56      1.0000 0.73651  0.17592  0.58140  Biso   1.000  N
  C282     1.0000 0.76699  0.18628  0.61030  Biso   1.000  C
  H247     1.0000 0.77460  0.20820  0.60100  Biso   1.000  H
  C283     1.0000 0.78640  0.16440  0.65300  Biso   1.000  C
  H248     1.0000 0.80920  0.16830  0.66230  Biso   1.000  H
  C284     1.0000 0.76910  0.13450  0.68310  Biso   1.000  C
  C285     1.0000 0.74500  0.12570  0.64550  Biso   1.000  C
  H249     1.0000 0.73580  0.10420  0.65150  Biso   1.000  H
  C286     1.0000 0.73190  0.14790  0.59440  Biso   1.000  C
  H250     1.0000 0.71550  0.13830  0.56260  Biso   1.000  H
  C287     1.0000 0.78580  0.11150  0.73960  Biso   1.000  C
  H251     1.0000 0.79550  0.09260  0.71160  Biso   1.000  H
  H252     1.0000 0.76880  0.10260  0.77470  Biso   1.000  H
  Mn22     1.0000 0.38581  0.52973  0.52818  Biso   1.000  Mn
  O64      1.0000 0.34797  0.50968  0.56305  Biso   1.000  O
  O65      1.0000 0.38408  0.44700  0.38892  Biso   1.000  O
  O66      1.0000 0.42652  0.54455  0.48101  Biso   1.000  O
  N57      1.0000 0.39303  0.49388  0.45730  Biso   1.000  N
  N58      1.0000 0.42329  0.49606  0.41470  Biso   1.000  N
  N59      1.0000 0.35813  0.56136  0.44240  Biso   1.000  N
  C288     1.0000 0.33064  0.48410  0.53460  Biso   1.000  C
  C289     1.0000 0.29953  0.47736  0.56600  Biso   1.000  C
  H253     1.0000 0.29130  0.49090  0.60610  Biso   1.000  H
  C290     1.0000 0.28068  0.45152  0.53970  Biso   1.000  C
  H254     1.0000 0.25980  0.44720  0.56240  Biso   1.000  H
  C291     1.0000 0.29152  0.43176  0.48070  Biso   1.000  C
  H255     1.0000 0.27790  0.41460  0.46120  Biso   1.000  H
  C292     1.0000 0.32219  0.43733  0.45090  Biso   1.000  C
  H256     1.0000 0.33010  0.42300  0.41210  Biso   1.000  H
  C293     1.0000 0.34253  0.46349  0.47530  Biso   1.000  C
  C294     1.0000 0.37477  0.46800  0.43850  Biso   1.000  C
  C295     1.0000 0.43801  0.52362  0.43200  Biso   1.000  C
  C296     1.0000 0.47021  0.53288  0.39350  Biso   1.000  C
  H257     1.0000 0.47990  0.51330  0.36800  Biso   1.000  H
  H258     1.0000 0.48630  0.54100  0.43170  Biso   1.000  H
  C297     1.0000 0.33454  0.58173  0.46280  Biso   1.000  C
  H259     1.0000 0.32860  0.58220  0.51510  Biso   1.000  H
  C298     1.0000 0.31779  0.60247  0.41450  Biso   1.000  C
  H260     1.0000 0.29980  0.61550  0.43200  Biso   1.000  H
  C299     1.0000 0.32799  0.60376  0.33940  Biso   1.000  C
  C300     1.0000 0.35253  0.58221  0.31880  Biso   1.000  C
  H261     1.0000 0.36000  0.58200  0.26760  Biso   1.000  H
  C301     1.0000 0.36611  0.56169  0.36840  Biso   1.000  C
  H262     1.0000 0.38230  0.54650  0.35070  Biso   1.000  H
  C302     1.0000 0.31170  0.62719  0.28430  Biso   1.000  C
  H263     1.0000 0.30200  0.64600  0.31300  Biso   1.000  H
  H264     1.0000 0.32870  0.63620  0.24940  Biso   1.000  H
  Mn23     1.0000 0.42531  0.45427  0.33203  Biso   1.000  Mn
  O67      1.0000 0.40369  0.47972  0.25840  Biso   1.000  O
  O68      1.0000 0.50408  0.47431  0.18783  Biso   1.000  O
  O69      1.0000 0.45431  0.42932  0.39907  Biso   1.000  O
  N60      1.0000 0.46690  0.46089  0.28020  Biso   1.000  N
  N61      1.0000 0.49448  0.44493  0.31572  Biso   1.000  N
  C303     1.0000 0.41624  0.49643  0.20070  Biso   1.000  C
  C304     1.0000 0.39370  0.51680  0.16030  Biso   1.000  C
  H265     1.0000 0.37130  0.51780  0.17610  Biso   1.000  H
  C305     1.0000 0.40340  0.53430  0.10170  Biso   1.000  C
  H266     1.0000 0.39090  0.55290  0.08530  Biso   1.000  H
  C306     1.0000 0.43230  0.52520  0.06380  Biso   1.000  C
  H267     1.0000 0.43480  0.52730  0.01020  Biso   1.000  H
  C307     1.0000 0.45810  0.51220  0.11240  Biso   1.000  C
  H268     1.0000 0.48090  0.51550  0.10100  Biso   1.000  H
  C308     1.0000 0.44827  0.49471  0.17620  Biso   1.000  C
  C309     1.0000 0.47437  0.47532  0.21640  Biso   1.000  C
  C310     1.0000 0.48458  0.42957  0.37630  Biso   1.000  C
  C311     1.0000 0.51056  0.41185  0.42280  Biso   1.000  C
  H269     1.0000 0.52490  0.42860  0.44740  Biso   1.000  H
  H270     1.0000 0.52460  0.39860  0.38810  Biso   1.000  H
  C312     1.0000 0.49650  0.38890  0.48450  Biso   1.000  C
  H271     1.0000 0.48280  0.40180  0.51980  Biso   1.000  H
  H272     1.0000 0.51480  0.37860  0.51250  Biso   1.000  H
  H273     1.0000 0.48300  0.37160  0.46060  Biso   1.000  H
  Mn24     1.0000 0.45922  0.53849  0.74449  Biso   1.000  Mn
  O70      1.0000 0.45132  0.58065  0.78273  Biso   1.000  O
  O71      1.0000 0.38381  0.56771  0.59906  Biso   1.000  O
  O72      1.0000 0.46141  0.49577  0.69491  Biso   1.000  O
  N62      1.0000 0.42387  0.54329  0.67132  Biso   1.000  N
  N63      1.0000 0.41787  0.51478  0.62690  Biso   1.000  N
  C313     1.0000 0.42926  0.60307  0.76130  Biso   1.000  C
  C314     1.0000 0.42889  0.63332  0.80040  Biso   1.000  C
  H274     1.0000 0.44440  0.63690  0.84030  Biso   1.000  H
  C315     1.0000 0.40660  0.65810  0.78230  Biso   1.000  C
  H275     1.0000 0.40710  0.67850  0.80940  Biso   1.000  H
  C316     1.0000 0.38412  0.65349  0.72640  Biso   1.000  C
  H276     1.0000 0.36810  0.67010  0.71590  Biso   1.000  H
  C317     1.0000 0.38464  0.62466  0.68480  Biso   1.000  C
  H277     1.0000 0.36950  0.62220  0.64380  Biso   1.000  H
  C318     1.0000 0.40665  0.59886  0.70100  Biso   1.000  C
  C319     1.0000 0.40461  0.56916  0.65430  Biso   1.000  C
  C320     1.0000 0.43874  0.49189  0.64370  Biso   1.000  C
  C321     1.0000 0.43558  0.45835  0.60740  Biso   1.000  C
  H278     1.0000 0.45510  0.45430  0.57480  Biso   1.000  H
  H279     1.0000 0.41570  0.45810  0.57450  Biso   1.000  H
  C322     1.0000 0.43290  0.43112  0.66510  Biso   1.000  C
  H280     1.0000 0.41280  0.43430  0.69560  Biso   1.000  H
  H281     1.0000 0.43170  0.40970  0.63890  Biso   1.000  H
  H282     1.0000 0.45240  0.43150  0.69840  Biso   1.000  H
  N64      1.0000 0.23651  0.67592  0.08140  Biso   1.000  N
  C323     1.0000 0.26699  0.68628  0.11030  Biso   1.000  C
  H283     1.0000 0.27460  0.70820  0.10100  Biso   1.000  H
  C324     1.0000 0.28640  0.66440  0.15300  Biso   1.000  C
  H284     1.0000 0.30920  0.66830  0.16230  Biso   1.000  H
  C325     1.0000 0.26910  0.63450  0.18310  Biso   1.000  C
  C326     1.0000 0.24500  0.62570  0.14550  Biso   1.000  C
  H285     1.0000 0.23580  0.60420  0.15150  Biso   1.000  H
  C327     1.0000 0.23190  0.64790  0.09440  Biso   1.000  C
  H286     1.0000 0.21550  0.63830  0.06260  Biso   1.000  H
  C328     1.0000 0.28580  0.61150  0.23960  Biso   1.000  C
  H287     1.0000 0.29550  0.59260  0.21160  Biso   1.000  H
  H288     1.0000 0.26880  0.60260  0.27470  Biso   1.000  H
  Mn25     1.0000 0.27973  0.86419  0.72182  Biso   1.000  Mn
  O73      1.0000 0.25968  0.90203  0.68695  Biso   1.000  O
  O74      1.0000 0.19700  0.86592  0.86108  Biso   1.000  O
  O75      1.0000 0.29455  0.82348  0.76899  Biso   1.000  O
  N65      1.0000 0.24388  0.85697  0.79270  Biso   1.000  N
  N66      1.0000 0.24606  0.82671  0.83530  Biso   1.000  N
  N67      1.0000 0.31136  0.89187  0.80760  Biso   1.000  N
  C329     1.0000 0.23410  0.91936  0.71540  Biso   1.000  C
  C330     1.0000 0.22736  0.95047  0.68400  Biso   1.000  C
  H289     1.0000 0.24090  0.95870  0.64390  Biso   1.000  H
  C331     1.0000 0.20152  0.96932  0.71030  Biso   1.000  C
  H290     1.0000 0.19720  0.99020  0.68760  Biso   1.000  H
  C332     1.0000 0.18176  0.95848  0.76930  Biso   1.000  C
  H291     1.0000 0.16460  0.97210  0.78880  Biso   1.000  H
  C333     1.0000 0.18733  0.92781  0.79910  Biso   1.000  C
  H292     1.0000 0.17300  0.91990  0.83790  Biso   1.000  H
  C334     1.0000 0.21349  0.90747  0.77470  Biso   1.000  C
  C335     1.0000 0.21800  0.87523  0.81150  Biso   1.000  C
  C336     1.0000 0.27362  0.81199  0.81800  Biso   1.000  C
  C337     1.0000 0.28288  0.77979  0.85650  Biso   1.000  C
  H293     1.0000 0.26330  0.77010  0.88200  Biso   1.000  H
  H294     1.0000 0.29100  0.76370  0.81830  Biso   1.000  H
  C338     1.0000 0.33173  0.91546  0.78720  Biso   1.000  C
  H295     1.0000 0.33220  0.92140  0.73490  Biso   1.000  H
  C339     1.0000 0.35247  0.93221  0.83550  Biso   1.000  C
  H296     1.0000 0.36550  0.95020  0.81800  Biso   1.000  H
  C340     1.0000 0.35376  0.92201  0.91060  Biso   1.000  C
  C341     1.0000 0.33221  0.89747  0.93120  Biso   1.000  C
  H297     1.0000 0.33200  0.89000  0.98240  Biso   1.000  H
  C342     1.0000 0.31169  0.88389  0.88160  Biso   1.000  C
  H298     1.0000 0.29650  0.86770  0.89930  Biso   1.000  H
  C343     1.0000 0.37719  0.93830  0.96570  Biso   1.000  C
  H299     1.0000 0.39600  0.94800  0.93700  Biso   1.000  H
  H300     1.0000 0.38620  0.92130  0.00060  Biso   1.000  H
  Mn26     1.0000 0.20427  0.82469  0.91797  Biso   1.000  Mn
  O76      1.0000 0.22972  0.84631  0.99160  Biso   1.000  O
  O77      1.0000 0.22431  0.74592  0.06217  Biso   1.000  O
  O78      1.0000 0.17932  0.79569  0.85093  Biso   1.000  O
  N68      1.0000 0.21089  0.78310  0.96980  Biso   1.000  N
  N69      1.0000 0.19493  0.75552  0.93428  Biso   1.000  N
  C344     1.0000 0.24643  0.83376  0.04930  Biso   1.000  C
  C345     1.0000 0.26680  0.85630  0.08970  Biso   1.000  C
  H301     1.0000 0.26780  0.87870  0.07390  Biso   1.000  H
  C346     1.0000 0.28430  0.84660  0.14830  Biso   1.000  C
  H302     1.0000 0.30290  0.85910  0.16470  Biso   1.000  H
  C347     1.0000 0.27520  0.81770  0.18620  Biso   1.000  C
  H303     1.0000 0.27730  0.81520  0.23980  Biso   1.000  H
  C348     1.0000 0.26220  0.79190  0.13760  Biso   1.000  C
  H304     1.0000 0.26550  0.76910  0.14900  Biso   1.000  H
  C349     1.0000 0.24471  0.80173  0.07380  Biso   1.000  C
  C350     1.0000 0.22532  0.77563  0.03360  Biso   1.000  C
  C351     1.0000 0.17957  0.76542  0.87370  Biso   1.000  C
  C352     1.0000 0.16185  0.73944  0.82720  Biso   1.000  C
  H305     1.0000 0.17860  0.72510  0.80260  Biso   1.000  H
  H306     1.0000 0.14860  0.72540  0.86190  Biso   1.000  H
  C353     1.0000 0.13890  0.75350  0.76550  Biso   1.000  C
  H307     1.0000 0.15180  0.76720  0.73020  Biso   1.000  H
  H308     1.0000 0.12860  0.73520  0.73750  Biso   1.000  H
  H309     1.0000 0.12160  0.76700  0.78940  Biso   1.000  H
  Mn27     1.0000 0.28849  0.79078  0.50551  Biso   1.000  Mn
  O79      1.0000 0.33065  0.79868  0.46727  Biso   1.000  O
  O80      1.0000 0.31771  0.86619  0.65094  Biso   1.000  O
  O81      1.0000 0.24577  0.78859  0.55509  Biso   1.000  O
  N70      1.0000 0.29329  0.82613  0.57868  Biso   1.000  N
  N71      1.0000 0.26478  0.83213  0.62310  Biso   1.000  N
  C354     1.0000 0.35307  0.82074  0.48870  Biso   1.000  C
  C355     1.0000 0.38332  0.82111  0.44960  Biso   1.000  C
  H310     1.0000 0.38690  0.80560  0.40970  Biso   1.000  H
  C356     1.0000 0.40810  0.84340  0.46770  Biso   1.000  C
  H311     1.0000 0.42850  0.84290  0.44060  Biso   1.000  H
  C357     1.0000 0.40349  0.86588  0.52360  Biso   1.000  C
  H312     1.0000 0.42010  0.88190  0.53410  Biso   1.000  H
  C358     1.0000 0.37466  0.86536  0.56520  Biso   1.000  C
  H313     1.0000 0.37220  0.88050  0.60620  Biso   1.000  H
  C359     1.0000 0.34886  0.84335  0.54900  Biso   1.000  C
  C360     1.0000 0.31916  0.84539  0.59570  Biso   1.000  C
  C361     1.0000 0.24189  0.81126  0.60630  Biso   1.000  C
  C362     1.0000 0.20835  0.81442  0.64260  Biso   1.000  C
  H314     1.0000 0.20430  0.79490  0.67520  Biso   1.000  H
  H315     1.0000 0.20810  0.83430  0.67550  Biso   1.000  H
  C363     1.0000 0.18112  0.81710  0.58490  Biso   1.000  C
  H316     1.0000 0.18430  0.83720  0.55440  Biso   1.000  H
  H317     1.0000 0.15970  0.81830  0.61110  Biso   1.000  H
  H318     1.0000 0.18150  0.79760  0.55160  Biso   1.000  H
  N72      1.0000 0.42592  0.01349  0.16860  Biso   1.000  N
  C364     1.0000 0.43628  0.98301  0.13970  Biso   1.000  C
  H319     1.0000 0.45820  0.97540  0.14900  Biso   1.000  H
  C365     1.0000 0.41440  0.96360  0.09700  Biso   1.000  C
  H320     1.0000 0.41830  0.94080  0.08770  Biso   1.000  H
  C366     1.0000 0.38450  0.98090  0.06690  Biso   1.000  C
  C367     1.0000 0.37570  0.00500  0.10450  Biso   1.000  C
  H321     1.0000 0.35420  0.01420  0.09850  Biso   1.000  H
  C368     1.0000 0.39790  0.01810  0.15560  Biso   1.000  C
  H322     1.0000 0.38830  0.03450  0.18740  Biso   1.000  H
  C369     1.0000 0.36150  0.96420  0.01040  Biso   1.000  C
  H323     1.0000 0.34260  0.95450  0.03840  Biso   1.000  H
  H324     1.0000 0.35260  0.98120  0.97530  Biso   1.000  H
  Mn28     1.0000 0.77973  0.36419  0.22182  Biso   1.000  Mn
  O82      1.0000 0.75968  0.40203  0.18695  Biso   1.000  O
  O83      1.0000 0.69700  0.36592  0.36108  Biso   1.000  O
  O84      1.0000 0.79455  0.32348  0.26899  Biso   1.000  O
  N73      1.0000 0.74388  0.35697  0.29270  Biso   1.000  N
  N74      1.0000 0.74606  0.32671  0.33530  Biso   1.000  N
  N75      1.0000 0.81136  0.39187  0.30760  Biso   1.000  N
  C370     1.0000 0.73410  0.41936  0.21540  Biso   1.000  C
  C371     1.0000 0.72736  0.45047  0.18400  Biso   1.000  C
  H325     1.0000 0.74090  0.45870  0.14390  Biso   1.000  H
  C372     1.0000 0.70152  0.46932  0.21030  Biso   1.000  C
  H326     1.0000 0.69720  0.49020  0.18760  Biso   1.000  H
  C373     1.0000 0.68176  0.45848  0.26930  Biso   1.000  C
  H327     1.0000 0.66460  0.47210  0.28880  Biso   1.000  H
  C374     1.0000 0.68733  0.42781  0.29910  Biso   1.000  C
  H328     1.0000 0.67300  0.41990  0.33790  Biso   1.000  H
  C375     1.0000 0.71349  0.40747  0.27470  Biso   1.000  C
  C376     1.0000 0.71800  0.37523  0.31150  Biso   1.000  C
  C377     1.0000 0.77362  0.31199  0.31800  Biso   1.000  C
  C378     1.0000 0.78288  0.27979  0.35650  Biso   1.000  C
  H329     1.0000 0.76330  0.27010  0.38200  Biso   1.000  H
  H330     1.0000 0.79100  0.26370  0.31830  Biso   1.000  H
  C379     1.0000 0.83173  0.41546  0.28720  Biso   1.000  C
  H331     1.0000 0.83220  0.42140  0.23490  Biso   1.000  H
  C380     1.0000 0.85247  0.43221  0.33550  Biso   1.000  C
  H332     1.0000 0.86550  0.45020  0.31800  Biso   1.000  H
  C381     1.0000 0.85376  0.42201  0.41060  Biso   1.000  C
  C382     1.0000 0.83221  0.39747  0.43120  Biso   1.000  C
  H333     1.0000 0.83200  0.39000  0.48240  Biso   1.000  H
  C383     1.0000 0.81169  0.38389  0.38160  Biso   1.000  C
  H334     1.0000 0.79650  0.36770  0.39930  Biso   1.000  H
  C384     1.0000 0.87719  0.43830  0.46570  Biso   1.000  C
  H335     1.0000 0.89600  0.44800  0.43700  Biso   1.000  H
  H336     1.0000 0.88620  0.42130  0.50060  Biso   1.000  H
  Mn29     1.0000 0.70427  0.32469  0.41797  Biso   1.000  Mn
  O85      1.0000 0.72972  0.34631  0.49160  Biso   1.000  O
  O86      1.0000 0.72431  0.24592  0.56217  Biso   1.000  O
  O87      1.0000 0.67932  0.29569  0.35093  Biso   1.000  O
  N76      1.0000 0.71089  0.28310  0.46980  Biso   1.000  N
  N77      1.0000 0.69493  0.25552  0.43428  Biso   1.000  N
  C385     1.0000 0.74643  0.33376  0.54930  Biso   1.000  C
  C386     1.0000 0.76680  0.35630  0.58970  Biso   1.000  C
  H337     1.0000 0.76780  0.37870  0.57390  Biso   1.000  H
  C387     1.0000 0.78430  0.34660  0.64830  Biso   1.000  C
  H338     1.0000 0.80290  0.35910  0.66470  Biso   1.000  H
  C388     1.0000 0.77520  0.31770  0.68620  Biso   1.000  C
  H339     1.0000 0.77730  0.31520  0.73980  Biso   1.000  H
  C389     1.0000 0.76220  0.29190  0.63760  Biso   1.000  C
  H340     1.0000 0.76550  0.26910  0.64900  Biso   1.000  H
  C390     1.0000 0.74471  0.30173  0.57380  Biso   1.000  C
  C391     1.0000 0.72532  0.27563  0.53360  Biso   1.000  C
  C392     1.0000 0.67957  0.26542  0.37370  Biso   1.000  C
  C393     1.0000 0.66185  0.23944  0.32720  Biso   1.000  C
  H341     1.0000 0.67860  0.22510  0.30260  Biso   1.000  H
  H342     1.0000 0.64860  0.22540  0.36190  Biso   1.000  H
  C394     1.0000 0.63890  0.25350  0.26550  Biso   1.000  C
  H343     1.0000 0.65180  0.26720  0.23020  Biso   1.000  H
  H344     1.0000 0.62860  0.23520  0.23750  Biso   1.000  H
  H345     1.0000 0.62160  0.26700  0.28940  Biso   1.000  H
  Mn30     1.0000 0.78849  0.29078  0.00551  Biso   1.000  Mn
  O88      1.0000 0.83065  0.29868  0.96727  Biso   1.000  O
  O89      1.0000 0.81771  0.36619  0.15094  Biso   1.000  O
  O90      1.0000 0.74577  0.28859  0.05509  Biso   1.000  O
  N78      1.0000 0.79329  0.32613  0.07868  Biso   1.000  N
  N79      1.0000 0.76478  0.33213  0.12310  Biso   1.000  N
  C395     1.0000 0.85307  0.32074  0.98870  Biso   1.000  C
  C396     1.0000 0.88332  0.32111  0.94960  Biso   1.000  C
  H346     1.0000 0.88690  0.30560  0.90970  Biso   1.000  H
  C397     1.0000 0.90810  0.34340  0.96770  Biso   1.000  C
  H347     1.0000 0.92850  0.34290  0.94060  Biso   1.000  H
  C398     1.0000 0.90349  0.36588  0.02360  Biso   1.000  C
  H348     1.0000 0.92010  0.38190  0.03410  Biso   1.000  H
  C399     1.0000 0.87466  0.36536  0.06520  Biso   1.000  C
  H349     1.0000 0.87220  0.38050  0.10620  Biso   1.000  H
  C400     1.0000 0.84886  0.34335  0.04900  Biso   1.000  C
  C401     1.0000 0.81916  0.34539  0.09570  Biso   1.000  C
  C402     1.0000 0.74189  0.31126  0.10630  Biso   1.000  C
  C403     1.0000 0.70835  0.31442  0.14260  Biso   1.000  C
  H350     1.0000 0.70430  0.29490  0.17520  Biso   1.000  H
  H351     1.0000 0.70810  0.33430  0.17550  Biso   1.000  H
  C404     1.0000 0.68112  0.31710  0.08490  Biso   1.000  C
  H352     1.0000 0.68430  0.33720  0.05440  Biso   1.000  H
  H353     1.0000 0.65970  0.31830  0.11110  Biso   1.000  H
  H354     1.0000 0.68150  0.29760  0.05160  Biso   1.000  H
  N80      1.0000 0.92592  0.51349  0.66860  Biso   1.000  N
  C405     1.0000 0.93628  0.48301  0.63970  Biso   1.000  C
  H355     1.0000 0.95820  0.47540  0.64900  Biso   1.000  H
  C406     1.0000 0.91440  0.46360  0.59700  Biso   1.000  C
  H356     1.0000 0.91830  0.44080  0.58770  Biso   1.000  H
  C407     1.0000 0.88450  0.48090  0.56690  Biso   1.000  C
  C408     1.0000 0.87570  0.50500  0.60450  Biso   1.000  C
  H357     1.0000 0.85420  0.51420  0.59850  Biso   1.000  H
  C409     1.0000 0.89790  0.51810  0.65560  Biso   1.000  C
  H358     1.0000 0.88830  0.53450  0.68740  Biso   1.000  H
  C410     1.0000 0.86150  0.46420  0.51040  Biso   1.000  C
  H359     1.0000 0.84260  0.45450  0.53840  Biso   1.000  H
  H360     1.0000 0.85260  0.48120  0.47530  Biso   1.000  H
  Mn31     1.0000 0.22027  0.13581  0.22182  Biso   1.000  Mn
  O91      1.0000 0.24032  0.09797  0.18695  Biso   1.000  O
  O92      1.0000 0.30300  0.13408  0.36108  Biso   1.000  O
  O93      1.0000 0.20545  0.17652  0.26899  Biso   1.000  O
  N81      1.0000 0.25612  0.14303  0.29270  Biso   1.000  N
  N82      1.0000 0.25394  0.17329  0.33530  Biso   1.000  N
  N83      1.0000 0.18864  0.10813  0.30760  Biso   1.000  N
  C411     1.0000 0.26590  0.08064  0.21540  Biso   1.000  C
  C412     1.0000 0.27264  0.04953  0.18400  Biso   1.000  C
  H361     1.0000 0.25910  0.04130  0.14390  Biso   1.000  H
  C413     1.0000 0.29848  0.03068  0.21030  Biso   1.000  C
  H362     1.0000 0.30280  0.00980  0.18760  Biso   1.000  H
  C414     1.0000 0.31824  0.04152  0.26930  Biso   1.000  C
  H363     1.0000 0.33540  0.02790  0.28880  Biso   1.000  H
  C415     1.0000 0.31267  0.07219  0.29910  Biso   1.000  C
  H364     1.0000 0.32700  0.08010  0.33790  Biso   1.000  H
  C416     1.0000 0.28651  0.09253  0.27470  Biso   1.000  C
  C417     1.0000 0.28200  0.12477  0.31150  Biso   1.000  C
  C418     1.0000 0.22638  0.18801  0.31800  Biso   1.000  C
  C419     1.0000 0.21712  0.22021  0.35650  Biso   1.000  C
  H365     1.0000 0.23670  0.22990  0.38200  Biso   1.000  H
  H366     1.0000 0.20900  0.23630  0.31830  Biso   1.000  H
  C420     1.0000 0.16827  0.08454  0.28720  Biso   1.000  C
  H367     1.0000 0.16780  0.07860  0.23490  Biso   1.000  H
  C421     1.0000 0.14753  0.06779  0.33550  Biso   1.000  C
  H368     1.0000 0.13450  0.04980  0.31800  Biso   1.000  H
  C422     1.0000 0.14624  0.07799  0.41060  Biso   1.000  C
  C423     1.0000 0.16779  0.10253  0.43120  Biso   1.000  C
  H369     1.0000 0.16800  0.11000  0.48240  Biso   1.000  H
  C424     1.0000 0.18831  0.11611  0.38160  Biso   1.000  C
  H370     1.0000 0.20350  0.13230  0.39930  Biso   1.000  H
  C425     1.0000 0.12281  0.06170  0.46570  Biso   1.000  C
  H371     1.0000 0.10400  0.05200  0.43700  Biso   1.000  H
  H372     1.0000 0.11380  0.07870  0.50060  Biso   1.000  H
  Mn32     1.0000 0.29573  0.17531  0.41797  Biso   1.000  Mn
  O94      1.0000 0.27028  0.15369  0.49160  Biso   1.000  O
  O95      1.0000 0.27569  0.25408  0.56217  Biso   1.000  O
  O96      1.0000 0.32068  0.20431  0.35093  Biso   1.000  O
  N84      1.0000 0.28911  0.21690  0.46980  Biso   1.000  N
  N85      1.0000 0.30507  0.24448  0.43428  Biso   1.000  N
  C426     1.0000 0.25357  0.16624  0.54930  Biso   1.000  C
  C427     1.0000 0.23320  0.14370  0.58970  Biso   1.000  C
  H373     1.0000 0.23220  0.12130  0.57390  Biso   1.000  H
  C428     1.0000 0.21570  0.15340  0.64830  Biso   1.000  C
  H374     1.0000 0.19710  0.14090  0.66470  Biso   1.000  H
  C429     1.0000 0.22480  0.18230  0.68620  Biso   1.000  C
  H375     1.0000 0.22270  0.18480  0.73980  Biso   1.000  H
  C430     1.0000 0.23780  0.20810  0.63760  Biso   1.000  C
  H376     1.0000 0.23450  0.23090  0.64900  Biso   1.000  H
  C431     1.0000 0.25529  0.19827  0.57380  Biso   1.000  C
  C432     1.0000 0.27468  0.22437  0.53360  Biso   1.000  C
  C433     1.0000 0.32043  0.23458  0.37370  Biso   1.000  C
  C434     1.0000 0.33815  0.26056  0.32720  Biso   1.000  C
  H377     1.0000 0.32140  0.27490  0.30260  Biso   1.000  H
  H378     1.0000 0.35140  0.27460  0.36190  Biso   1.000  H
  C435     1.0000 0.36110  0.24650  0.26550  Biso   1.000  C
  H379     1.0000 0.34820  0.23280  0.23020  Biso   1.000  H
  H380     1.0000 0.37140  0.26480  0.23750  Biso   1.000  H
  H381     1.0000 0.37840  0.23300  0.28940  Biso   1.000  H
  Mn33     1.0000 0.21151  0.20922  0.00551  Biso   1.000  Mn
  O97      1.0000 0.16935  0.20132  0.96727  Biso   1.000  O
  O98      1.0000 0.18229  0.13381  0.15094  Biso   1.000  O
  O99      1.0000 0.25423  0.21141  0.05509  Biso   1.000  O
  N86      1.0000 0.20671  0.17387  0.07868  Biso   1.000  N
  N87      1.0000 0.23522  0.16787  0.12310  Biso   1.000  N
  C436     1.0000 0.14693  0.17926  0.98870  Biso   1.000  C
  C437     1.0000 0.11668  0.17889  0.94960  Biso   1.000  C
  H382     1.0000 0.11310  0.19440  0.90970  Biso   1.000  H
  C438     1.0000 0.09190  0.15660  0.96770  Biso   1.000  C
  H383     1.0000 0.07150  0.15710  0.94060  Biso   1.000  H
  C439     1.0000 0.09651  0.13412  0.02360  Biso   1.000  C
  H384     1.0000 0.07990  0.11810  0.03410  Biso   1.000  H
  C440     1.0000 0.12534  0.13464  0.06520  Biso   1.000  C
  H385     1.0000 0.12780  0.11950  0.10620  Biso   1.000  H
  C441     1.0000 0.15114  0.15665  0.04900  Biso   1.000  C
  C442     1.0000 0.18084  0.15461  0.09570  Biso   1.000  C
  C443     1.0000 0.25811  0.18874  0.10630  Biso   1.000  C
  C444     1.0000 0.29165  0.18558  0.14260  Biso   1.000  C
  H386     1.0000 0.29570  0.20510  0.17520  Biso   1.000  H
  H387     1.0000 0.29190  0.16570  0.17550  Biso   1.000  H
  C445     1.0000 0.31888  0.18290  0.08490  Biso   1.000  C
  H388     1.0000 0.31570  0.16280  0.05440  Biso   1.000  H
  H389     1.0000 0.34030  0.18170  0.11110  Biso   1.000  H
  H390     1.0000 0.31850  0.20240  0.05160  Biso   1.000  H
  N88      1.0000 0.07408  0.98651  0.66860  Biso   1.000  N
  C446     1.0000 0.06372  0.01699  0.63970  Biso   1.000  C
  H391     1.0000 0.04180  0.02460  0.64900  Biso   1.000  H
  C447     1.0000 0.08560  0.03640  0.59700  Biso   1.000  C
  H392     1.0000 0.08170  0.05920  0.58770  Biso   1.000  H
  C448     1.0000 0.11550  0.01910  0.56690  Biso   1.000  C
  C449     1.0000 0.12430  0.99500  0.60450  Biso   1.000  C
  H393     1.0000 0.14580  0.98580  0.59850  Biso   1.000  H
  C450     1.0000 0.10210  0.98190  0.65560  Biso   1.000  C
  H394     1.0000 0.11170  0.96550  0.68740  Biso   1.000  H
  C451     1.0000 0.13850  0.03580  0.51040  Biso   1.000  C
  H395     1.0000 0.15740  0.04550  0.53840  Biso   1.000  H
  H396     1.0000 0.14740  0.01880  0.47530  Biso   1.000  H
  Mn34     1.0000 0.72027  0.63581  0.72182  Biso   1.000  Mn
  O100     1.0000 0.74032  0.59797  0.68695  Biso   1.000  O
  O101     1.0000 0.80300  0.63408  0.86108  Biso   1.000  O
  O102     1.0000 0.70545  0.67652  0.76899  Biso   1.000  O
  N89      1.0000 0.75612  0.64303  0.79270  Biso   1.000  N
  N90      1.0000 0.75394  0.67329  0.83530  Biso   1.000  N
  N91      1.0000 0.68864  0.60813  0.80760  Biso   1.000  N
  C452     1.0000 0.76590  0.58064  0.71540  Biso   1.000  C
  C453     1.0000 0.77264  0.54953  0.68400  Biso   1.000  C
  H397     1.0000 0.75910  0.54130  0.64390  Biso   1.000  H
  C454     1.0000 0.79848  0.53068  0.71030  Biso   1.000  C
  H398     1.0000 0.80280  0.50980  0.68760  Biso   1.000  H
  C455     1.0000 0.81824  0.54152  0.76930  Biso   1.000  C
  H399     1.0000 0.83540  0.52790  0.78880  Biso   1.000  H
  C456     1.0000 0.81267  0.57219  0.79910  Biso   1.000  C
  H400     1.0000 0.82700  0.58010  0.83790  Biso   1.000  H
  C457     1.0000 0.78651  0.59253  0.77470  Biso   1.000  C
  C458     1.0000 0.78200  0.62477  0.81150  Biso   1.000  C
  C459     1.0000 0.72638  0.68801  0.81800  Biso   1.000  C
  C460     1.0000 0.71712  0.72021  0.85650  Biso   1.000  C
  H401     1.0000 0.73670  0.72990  0.88200  Biso   1.000  H
  H402     1.0000 0.70900  0.73630  0.81830  Biso   1.000  H
  C461     1.0000 0.66827  0.58454  0.78720  Biso   1.000  C
  H403     1.0000 0.66780  0.57860  0.73490  Biso   1.000  H
  C462     1.0000 0.64753  0.56779  0.83550  Biso   1.000  C
  H404     1.0000 0.63450  0.54980  0.81800  Biso   1.000  H
  C463     1.0000 0.64624  0.57799  0.91060  Biso   1.000  C
  C464     1.0000 0.66779  0.60253  0.93120  Biso   1.000  C
  H405     1.0000 0.66800  0.61000  0.98240  Biso   1.000  H
  C465     1.0000 0.68831  0.61611  0.88160  Biso   1.000  C
  H406     1.0000 0.70350  0.63230  0.89930  Biso   1.000  H
  C466     1.0000 0.62281  0.56170  0.96570  Biso   1.000  C
  H407     1.0000 0.60400  0.55200  0.93700  Biso   1.000  H
  H408     1.0000 0.61380  0.57870  0.00060  Biso   1.000  H
  Mn35     1.0000 0.79573  0.67531  0.91797  Biso   1.000  Mn
  O103     1.0000 0.77028  0.65369  0.99160  Biso   1.000  O
  O104     1.0000 0.77569  0.75408  0.06217  Biso   1.000  O
  O105     1.0000 0.82068  0.70431  0.85093  Biso   1.000  O
  N92      1.0000 0.78911  0.71690  0.96980  Biso   1.000  N
  N93      1.0000 0.80507  0.74448  0.93428  Biso   1.000  N
  C467     1.0000 0.75357  0.66624  0.04930  Biso   1.000  C
  C468     1.0000 0.73320  0.64370  0.08970  Biso   1.000  C
  H409     1.0000 0.73220  0.62130  0.07390  Biso   1.000  H
  C469     1.0000 0.71570  0.65340  0.14830  Biso   1.000  C
  H410     1.0000 0.69710  0.64090  0.16470  Biso   1.000  H
  C470     1.0000 0.72480  0.68230  0.18620  Biso   1.000  C
  H411     1.0000 0.72270  0.68480  0.23980  Biso   1.000  H
  C471     1.0000 0.73780  0.70810  0.13760  Biso   1.000  C
  H412     1.0000 0.73450  0.73090  0.14900  Biso   1.000  H
  C472     1.0000 0.75529  0.69827  0.07380  Biso   1.000  C
  C473     1.0000 0.77468  0.72437  0.03360  Biso   1.000  C
  C474     1.0000 0.82043  0.73458  0.87370  Biso   1.000  C
  C475     1.0000 0.83815  0.76056  0.82720  Biso   1.000  C
  H413     1.0000 0.82140  0.77490  0.80260  Biso   1.000  H
  H414     1.0000 0.85140  0.77460  0.86190  Biso   1.000  H
  C476     1.0000 0.86110  0.74650  0.76550  Biso   1.000  C
  H415     1.0000 0.84820  0.73280  0.73020  Biso   1.000  H
  H416     1.0000 0.87140  0.76480  0.73750  Biso   1.000  H
  H417     1.0000 0.87840  0.73300  0.78940  Biso   1.000  H
  Mn36     1.0000 0.71151  0.70922  0.50551  Biso   1.000  Mn
  O106     1.0000 0.66935  0.70132  0.46727  Biso   1.000  O
  O107     1.0000 0.68229  0.63381  0.65094  Biso   1.000  O
  O108     1.0000 0.75423  0.71141  0.55509  Biso   1.000  O
  N94      1.0000 0.70671  0.67387  0.57868  Biso   1.000  N
  N95      1.0000 0.73522  0.66787  0.62310  Biso   1.000  N
  C477     1.0000 0.64693  0.67926  0.48870  Biso   1.000  C
  C478     1.0000 0.61668  0.67889  0.44960  Biso   1.000  C
  H418     1.0000 0.61310  0.69440  0.40970  Biso   1.000  H
  C479     1.0000 0.59190  0.65660  0.46770  Biso   1.000  C
  H419     1.0000 0.57150  0.65710  0.44060  Biso   1.000  H
  C480     1.0000 0.59651  0.63412  0.52360  Biso   1.000  C
  H420     1.0000 0.57990  0.61810  0.53410  Biso   1.000  H
  C481     1.0000 0.62534  0.63464  0.56520  Biso   1.000  C
  H421     1.0000 0.62780  0.61950  0.60620  Biso   1.000  H
  C482     1.0000 0.65114  0.65665  0.54900  Biso   1.000  C
  C483     1.0000 0.68084  0.65461  0.59570  Biso   1.000  C
  C484     1.0000 0.75811  0.68874  0.60630  Biso   1.000  C
  C485     1.0000 0.79165  0.68558  0.64260  Biso   1.000  C
  H422     1.0000 0.79570  0.70510  0.67520  Biso   1.000  H
  H423     1.0000 0.79190  0.66570  0.67550  Biso   1.000  H
  C486     1.0000 0.81888  0.68290  0.58490  Biso   1.000  C
  H424     1.0000 0.81570  0.66280  0.55440  Biso   1.000  H
  H425     1.0000 0.84030  0.68170  0.61110  Biso   1.000  H
  H426     1.0000 0.81850  0.70240  0.55160  Biso   1.000  H
  N96      1.0000 0.57408  0.48651  0.16860  Biso   1.000  N
  C487     1.0000 0.56372  0.51699  0.13970  Biso   1.000  C
  H427     1.0000 0.54180  0.52460  0.14900  Biso   1.000  H
  C488     1.0000 0.58560  0.53640  0.09700  Biso   1.000  C
  H428     1.0000 0.58170  0.55920  0.08770  Biso   1.000  H
  C489     1.0000 0.61550  0.51910  0.06690  Biso   1.000  C
  C490     1.0000 0.62430  0.49500  0.10450  Biso   1.000  C
  H429     1.0000 0.64580  0.48580  0.09850  Biso   1.000  H
  C491     1.0000 0.60210  0.48190  0.15560  Biso   1.000  C
  H430     1.0000 0.61170  0.46550  0.18740  Biso   1.000  H
  C492     1.0000 0.63850  0.53580  0.01040  Biso   1.000  C
  H431     1.0000 0.65740  0.54550  0.03840  Biso   1.000  H
  H432     1.0000 0.64740  0.51880  0.97530  Biso   1.000  H
  Mn37     1.0000 0.38581  0.02973  0.47182  Biso   1.000  Mn
  O109     1.0000 0.34797  0.00968  0.43695  Biso   1.000  O
  O110     1.0000 0.38408  0.94700  0.61108  Biso   1.000  O
  O111     1.0000 0.42652  0.04455  0.51899  Biso   1.000  O
  N97      1.0000 0.39303  0.99388  0.54270  Biso   1.000  N
  N98      1.0000 0.42329  0.99606  0.58530  Biso   1.000  N
  N99      1.0000 0.35813  0.06136  0.55760  Biso   1.000  N
  C493     1.0000 0.33064  0.98410  0.46540  Biso   1.000  C
  C494     1.0000 0.29953  0.97736  0.43400  Biso   1.000  C
  H433     1.0000 0.29130  0.99090  0.39390  Biso   1.000  H
  C495     1.0000 0.28068  0.95152  0.46030  Biso   1.000  C
  H434     1.0000 0.25980  0.94720  0.43760  Biso   1.000  H
  C496     1.0000 0.29152  0.93176  0.51930  Biso   1.000  C
  H435     1.0000 0.27790  0.91460  0.53880  Biso   1.000  H
  C497     1.0000 0.32219  0.93733  0.54910  Biso   1.000  C
  H436     1.0000 0.33010  0.92300  0.58790  Biso   1.000  H
  C498     1.0000 0.34253  0.96349  0.52470  Biso   1.000  C
  C499     1.0000 0.37477  0.96800  0.56150  Biso   1.000  C
  C500     1.0000 0.43801  0.02362  0.56800  Biso   1.000  C
  C501     1.0000 0.47021  0.03288  0.60650  Biso   1.000  C
  H437     1.0000 0.47990  0.01330  0.63200  Biso   1.000  H
  H438     1.0000 0.48630  0.04100  0.56830  Biso   1.000  H
  C502     1.0000 0.33454  0.08173  0.53720  Biso   1.000  C
  H439     1.0000 0.32860  0.08220  0.48490  Biso   1.000  H
  C503     1.0000 0.31779  0.10247  0.58550  Biso   1.000  C
  H440     1.0000 0.29980  0.11550  0.56800  Biso   1.000  H
  C504     1.0000 0.32799  0.10376  0.66060  Biso   1.000  C
  C505     1.0000 0.35253  0.08221  0.68120  Biso   1.000  C
  H441     1.0000 0.36000  0.08200  0.73240  Biso   1.000  H
  C506     1.0000 0.36611  0.06169  0.63160  Biso   1.000  C
  H442     1.0000 0.38230  0.04650  0.64930  Biso   1.000  H
  C507     1.0000 0.31170  0.12719  0.71570  Biso   1.000  C
  H443     1.0000 0.30200  0.14600  0.68700  Biso   1.000  H
  H444     1.0000 0.32870  0.13620  0.75060  Biso   1.000  H
  Mn38     1.0000 0.42531  0.95427  0.66797  Biso   1.000  Mn
  O112     1.0000 0.40369  0.97972  0.74160  Biso   1.000  O
  O113     1.0000 0.50408  0.97431  0.81217  Biso   1.000  O
  O114     1.0000 0.45431  0.92932  0.60093  Biso   1.000  O
  N100     1.0000 0.46690  0.96089  0.71980  Biso   1.000  N
  N101     1.0000 0.49448  0.94493  0.68428  Biso   1.000  N
  C508     1.0000 0.41624  0.99643  0.79930  Biso   1.000  C
  C509     1.0000 0.39370  0.01680  0.83970  Biso   1.000  C
  H445     1.0000 0.37130  0.01780  0.82390  Biso   1.000  H
  C510     1.0000 0.40340  0.03430  0.89830  Biso   1.000  C
  H446     1.0000 0.39090  0.05290  0.91470  Biso   1.000  H
  C511     1.0000 0.43230  0.02520  0.93620  Biso   1.000  C
  H447     1.0000 0.43480  0.02730  0.98980  Biso   1.000  H
  C512     1.0000 0.45810  0.01220  0.88760  Biso   1.000  C
  H448     1.0000 0.48090  0.01550  0.89900  Biso   1.000  H
  C513     1.0000 0.44827  0.99471  0.82380  Biso   1.000  C
  C514     1.0000 0.47437  0.97532  0.78360  Biso   1.000  C
  C515     1.0000 0.48458  0.92957  0.62370  Biso   1.000  C
  C516     1.0000 0.51056  0.91185  0.57720  Biso   1.000  C
  H449     1.0000 0.52490  0.92860  0.55260  Biso   1.000  H
  H450     1.0000 0.52460  0.89860  0.61190  Biso   1.000  H
  C517     1.0000 0.49650  0.88890  0.51550  Biso   1.000  C
  H451     1.0000 0.48280  0.90180  0.48020  Biso   1.000  H
  H452     1.0000 0.51480  0.87860  0.48750  Biso   1.000  H
  H453     1.0000 0.48300  0.87160  0.53940  Biso   1.000  H
  Mn39     1.0000 0.45922  0.03849  0.25551  Biso   1.000  Mn
  O115     1.0000 0.45132  0.08065  0.21727  Biso   1.000  O
  O116     1.0000 0.38381  0.06771  0.40094  Biso   1.000  O
  O117     1.0000 0.46141  0.99577  0.30509  Biso   1.000  O
  N102     1.0000 0.42387  0.04329  0.32868  Biso   1.000  N
  N103     1.0000 0.41787  0.01478  0.37310  Biso   1.000  N
  C518     1.0000 0.42926  0.10307  0.23870  Biso   1.000  C
  C519     1.0000 0.42889  0.13332  0.19960  Biso   1.000  C
  H454     1.0000 0.44440  0.13690  0.15970  Biso   1.000  H
  C520     1.0000 0.40660  0.15810  0.21770  Biso   1.000  C
  H455     1.0000 0.40710  0.17850  0.19060  Biso   1.000  H
  C521     1.0000 0.38412  0.15349  0.27360  Biso   1.000  C
  H456     1.0000 0.36810  0.17010  0.28410  Biso   1.000  H
  C522     1.0000 0.38464  0.12466  0.31520  Biso   1.000  C
  H457     1.0000 0.36950  0.12220  0.35620  Biso   1.000  H
  C523     1.0000 0.40665  0.09886  0.29900  Biso   1.000  C
  C524     1.0000 0.40461  0.06916  0.34570  Biso   1.000  C
  C525     1.0000 0.43874  0.99189  0.35630  Biso   1.000  C
  C526     1.0000 0.43558  0.95835  0.39260  Biso   1.000  C
  H458     1.0000 0.45510  0.95430  0.42520  Biso   1.000  H
  H459     1.0000 0.41570  0.95810  0.42550  Biso   1.000  H
  C527     1.0000 0.43290  0.93112  0.33490  Biso   1.000  C
  H460     1.0000 0.41280  0.93430  0.30440  Biso   1.000  H
  H461     1.0000 0.43170  0.90970  0.36110  Biso   1.000  H
  H462     1.0000 0.45240  0.93150  0.30160  Biso   1.000  H
  N104     1.0000 0.23651  0.17592  0.91860  Biso   1.000  N
  C528     1.0000 0.26699  0.18628  0.88970  Biso   1.000  C
  H463     1.0000 0.27460  0.20820  0.89900  Biso   1.000  H
  C529     1.0000 0.28640  0.16440  0.84700  Biso   1.000  C
  H464     1.0000 0.30920  0.16830  0.83770  Biso   1.000  H
  C530     1.0000 0.26910  0.13450  0.81690  Biso   1.000  C
  C531     1.0000 0.24500  0.12570  0.85450  Biso   1.000  C
  H465     1.0000 0.23580  0.10420  0.84850  Biso   1.000  H
  C532     1.0000 0.23190  0.14790  0.90560  Biso   1.000  C
  H466     1.0000 0.21550  0.13830  0.93740  Biso   1.000  H
  C533     1.0000 0.28580  0.11150  0.76040  Biso   1.000  C
  H467     1.0000 0.29550  0.09260  0.78840  Biso   1.000  H
  H468     1.0000 0.26880  0.10260  0.72530  Biso   1.000  H
  Mn40     1.0000 0.88581  0.52973  0.97182  Biso   1.000  Mn
  O118     1.0000 0.84797  0.50968  0.93695  Biso   1.000  O
  O119     1.0000 0.88408  0.44700  0.11108  Biso   1.000  O
  O120     1.0000 0.92652  0.54455  0.01899  Biso   1.000  O
  N105     1.0000 0.89303  0.49388  0.04270  Biso   1.000  N
  N106     1.0000 0.92329  0.49606  0.08530  Biso   1.000  N
  N107     1.0000 0.85813  0.56136  0.05760  Biso   1.000  N
  C534     1.0000 0.83064  0.48410  0.96540  Biso   1.000  C
  C535     1.0000 0.79953  0.47736  0.93400  Biso   1.000  C
  H469     1.0000 0.79130  0.49090  0.89390  Biso   1.000  H
  C536     1.0000 0.78068  0.45152  0.96030  Biso   1.000  C
  H470     1.0000 0.75980  0.44720  0.93760  Biso   1.000  H
  C537     1.0000 0.79152  0.43176  0.01930  Biso   1.000  C
  H471     1.0000 0.77790  0.41460  0.03880  Biso   1.000  H
  C538     1.0000 0.82219  0.43733  0.04910  Biso   1.000  C
  H472     1.0000 0.83010  0.42300  0.08790  Biso   1.000  H
  C539     1.0000 0.84253  0.46349  0.02470  Biso   1.000  C
  C540     1.0000 0.87477  0.46800  0.06150  Biso   1.000  C
  C541     1.0000 0.93801  0.52362  0.06800  Biso   1.000  C
  C542     1.0000 0.97021  0.53288  0.10650  Biso   1.000  C
  H473     1.0000 0.97990  0.51330  0.13200  Biso   1.000  H
  H474     1.0000 0.98630  0.54100  0.06830  Biso   1.000  H
  C543     1.0000 0.83454  0.58173  0.03720  Biso   1.000  C
  H475     1.0000 0.82860  0.58220  0.98490  Biso   1.000  H
  C544     1.0000 0.81779  0.60247  0.08550  Biso   1.000  C
  H476     1.0000 0.79980  0.61550  0.06800  Biso   1.000  H
  C545     1.0000 0.82799  0.60376  0.16060  Biso   1.000  C
  C546     1.0000 0.85253  0.58221  0.18120  Biso   1.000  C
  H477     1.0000 0.86000  0.58200  0.23240  Biso   1.000  H
  C547     1.0000 0.86611  0.56169  0.13160  Biso   1.000  C
  H478     1.0000 0.88230  0.54650  0.14930  Biso   1.000  H
  C548     1.0000 0.81170  0.62719  0.21570  Biso   1.000  C
  H479     1.0000 0.80200  0.64600  0.18700  Biso   1.000  H
  H480     1.0000 0.82870  0.63620  0.25060  Biso   1.000  H
  Mn41     1.0000 0.92531  0.45427  0.16797  Biso   1.000  Mn
  O121     1.0000 0.90369  0.47972  0.24160  Biso   1.000  O
  O122     1.0000 0.00408  0.47431  0.31217  Biso   1.000  O
  O123     1.0000 0.95431  0.42932  0.10093  Biso   1.000  O
  N108     1.0000 0.96690  0.46089  0.21980  Biso   1.000  N
  N109     1.0000 0.99448  0.44493  0.18428  Biso   1.000  N
  C549     1.0000 0.91624  0.49643  0.29930  Biso   1.000  C
  C550     1.0000 0.89370  0.51680  0.33970  Biso   1.000  C
  H481     1.0000 0.87130  0.51780  0.32390  Biso   1.000  H
  C551     1.0000 0.90340  0.53430  0.39830  Biso   1.000  C
  H482     1.0000 0.89090  0.55290  0.41470  Biso   1.000  H
  C552     1.0000 0.93230  0.52520  0.43620  Biso   1.000  C
  H483     1.0000 0.93480  0.52730  0.48980  Biso   1.000  H
  C553     1.0000 0.95810  0.51220  0.38760  Biso   1.000  C
  H484     1.0000 0.98090  0.51550  0.39900  Biso   1.000  H
  C554     1.0000 0.94827  0.49471  0.32380  Biso   1.000  C
  C555     1.0000 0.97437  0.47532  0.28360  Biso   1.000  C
  C556     1.0000 0.98458  0.42957  0.12370  Biso   1.000  C
  C557     1.0000 0.01056  0.41185  0.07720  Biso   1.000  C
  H485     1.0000 0.02490  0.42860  0.05260  Biso   1.000  H
  H486     1.0000 0.02460  0.39860  0.11190  Biso   1.000  H
  C558     1.0000 0.99650  0.38890  0.01550  Biso   1.000  C
  H487     1.0000 0.98280  0.40180  0.98020  Biso   1.000  H
  H488     1.0000 0.01480  0.37860  0.98750  Biso   1.000  H
  H489     1.0000 0.98300  0.37160  0.03940  Biso   1.000  H
  Mn42     1.0000 0.95922  0.53849  0.75551  Biso   1.000  Mn
  O124     1.0000 0.95132  0.58065  0.71727  Biso   1.000  O
  O125     1.0000 0.88381  0.56771  0.90094  Biso   1.000  O
  O126     1.0000 0.96141  0.49577  0.80509  Biso   1.000  O
  N110     1.0000 0.92387  0.54329  0.82868  Biso   1.000  N
  N111     1.0000 0.91787  0.51478  0.87310  Biso   1.000  N
  C559     1.0000 0.92926  0.60307  0.73870  Biso   1.000  C
  C560     1.0000 0.92889  0.63332  0.69960  Biso   1.000  C
  H490     1.0000 0.94440  0.63690  0.65970  Biso   1.000  H
  C561     1.0000 0.90660  0.65810  0.71770  Biso   1.000  C
  H491     1.0000 0.90710  0.67850  0.69060  Biso   1.000  H
  C562     1.0000 0.88412  0.65349  0.77360  Biso   1.000  C
  H492     1.0000 0.86810  0.67010  0.78410  Biso   1.000  H
  C563     1.0000 0.88464  0.62466  0.81520  Biso   1.000  C
  H493     1.0000 0.86950  0.62220  0.85620  Biso   1.000  H
  C564     1.0000 0.90665  0.59886  0.79900  Biso   1.000  C
  C565     1.0000 0.90461  0.56916  0.84570  Biso   1.000  C
  C566     1.0000 0.93874  0.49189  0.85630  Biso   1.000  C
  C567     1.0000 0.93558  0.45835  0.89260  Biso   1.000  C
  H494     1.0000 0.95510  0.45430  0.92520  Biso   1.000  H
  H495     1.0000 0.91570  0.45810  0.92550  Biso   1.000  H
  C568     1.0000 0.93290  0.43112  0.83490  Biso   1.000  C
  H496     1.0000 0.91280  0.43430  0.80440  Biso   1.000  H
  H497     1.0000 0.93170  0.40970  0.86110  Biso   1.000  H
  H498     1.0000 0.95240  0.43150  0.80160  Biso   1.000  H
  N112     1.0000 0.73651  0.67592  0.41860  Biso   1.000  N
  C569     1.0000 0.76699  0.68628  0.38970  Biso   1.000  C
  H499     1.0000 0.77460  0.70820  0.39900  Biso   1.000  H
  C570     1.0000 0.78640  0.66440  0.34700  Biso   1.000  C
  H500     1.0000 0.80920  0.66830  0.33770  Biso   1.000  H
  C571     1.0000 0.76910  0.63450  0.31690  Biso   1.000  C
  C572     1.0000 0.74500  0.62570  0.35450  Biso   1.000  C
  H501     1.0000 0.73580  0.60420  0.34850  Biso   1.000  H
  C573     1.0000 0.73190  0.64790  0.40560  Biso   1.000  C
  H502     1.0000 0.71550  0.63830  0.43740  Biso   1.000  H
  C574     1.0000 0.78580  0.61150  0.26040  Biso   1.000  C
  H503     1.0000 0.79550  0.59260  0.28840  Biso   1.000  H
  H504     1.0000 0.76880  0.60260  0.22530  Biso   1.000  H
  Mn43     1.0000 0.11419  0.97027  0.97182  Biso   1.000  Mn
  O127     1.0000 0.15203  0.99032  0.93695  Biso   1.000  O
  O128     1.0000 0.11592  0.05300  0.11108  Biso   1.000  O
  O129     1.0000 0.07348  0.95545  0.01899  Biso   1.000  O
  N113     1.0000 0.10697  0.00612  0.04270  Biso   1.000  N
  N114     1.0000 0.07671  0.00394  0.08530  Biso   1.000  N
  N115     1.0000 0.14187  0.93864  0.05760  Biso   1.000  N
  C575     1.0000 0.16936  0.01590  0.96540  Biso   1.000  C
  C576     1.0000 0.20047  0.02264  0.93400  Biso   1.000  C
  H505     1.0000 0.20870  0.00910  0.89390  Biso   1.000  H
  C577     1.0000 0.21932  0.04848  0.96030  Biso   1.000  C
  H506     1.0000 0.24020  0.05280  0.93760  Biso   1.000  H
  C578     1.0000 0.20848  0.06824  0.01930  Biso   1.000  C
  H507     1.0000 0.22210  0.08540  0.03880  Biso   1.000  H
  C579     1.0000 0.17781  0.06267  0.04910  Biso   1.000  C
  H508     1.0000 0.16990  0.07700  0.08790  Biso   1.000  H
  C580     1.0000 0.15747  0.03651  0.02470  Biso   1.000  C
  C581     1.0000 0.12523  0.03200  0.06150  Biso   1.000  C
  C582     1.0000 0.06199  0.97638  0.06800  Biso   1.000  C
  C583     1.0000 0.02979  0.96712  0.10650  Biso   1.000  C
  H509     1.0000 0.02010  0.98670  0.13200  Biso   1.000  H
  H510     1.0000 0.01370  0.95900  0.06830  Biso   1.000  H
  C584     1.0000 0.16546  0.91827  0.03720  Biso   1.000  C
  H511     1.0000 0.17140  0.91780  0.98490  Biso   1.000  H
  C585     1.0000 0.18221  0.89753  0.08550  Biso   1.000  C
  H512     1.0000 0.20020  0.88450  0.06800  Biso   1.000  H
  C586     1.0000 0.17201  0.89624  0.16060  Biso   1.000  C
  C587     1.0000 0.14747  0.91779  0.18120  Biso   1.000  C
  H513     1.0000 0.14000  0.91800  0.23240  Biso   1.000  H
  C588     1.0000 0.13389  0.93831  0.13160  Biso   1.000  C
  H514     1.0000 0.11770  0.95350  0.14930  Biso   1.000  H
  C589     1.0000 0.18830  0.87281  0.21570  Biso   1.000  C
  H515     1.0000 0.19800  0.85400  0.18700  Biso   1.000  H
  H516     1.0000 0.17130  0.86380  0.25060  Biso   1.000  H
  Mn44     1.0000 0.07469  0.04573  0.16797  Biso   1.000  Mn
  O130     1.0000 0.09631  0.02028  0.24160  Biso   1.000  O
  O131     1.0000 0.99592  0.02569  0.31217  Biso   1.000  O
  O132     1.0000 0.04569  0.07068  0.10093  Biso   1.000  O
  N116     1.0000 0.03310  0.03911  0.21980  Biso   1.000  N
  N117     1.0000 0.00552  0.05507  0.18428  Biso   1.000  N
  C590     1.0000 0.08376  0.00357  0.29930  Biso   1.000  C
  C591     1.0000 0.10630  0.98320  0.33970  Biso   1.000  C
  H517     1.0000 0.12870  0.98220  0.32390  Biso   1.000  H
  C592     1.0000 0.09660  0.96570  0.39830  Biso   1.000  C
  H518     1.0000 0.10910  0.94710  0.41470  Biso   1.000  H
  C593     1.0000 0.06770  0.97480  0.43620  Biso   1.000  C
  H519     1.0000 0.06520  0.97270  0.48980  Biso   1.000  H
  C594     1.0000 0.04190  0.98780  0.38760  Biso   1.000  C
  H520     1.0000 0.01910  0.98450  0.39900  Biso   1.000  H
  C595     1.0000 0.05173  0.00529  0.32380  Biso   1.000  C
  C596     1.0000 0.02563  0.02468  0.28360  Biso   1.000  C
  C597     1.0000 0.01542  0.07043  0.12370  Biso   1.000  C
  C598     1.0000 0.98944  0.08815  0.07720  Biso   1.000  C
  H521     1.0000 0.97510  0.07140  0.05260  Biso   1.000  H
  H522     1.0000 0.97540  0.10140  0.11190  Biso   1.000  H
  C599     1.0000 0.00350  0.11110  0.01550  Biso   1.000  C
  H523     1.0000 0.01720  0.09820  0.98020  Biso   1.000  H
  H524     1.0000 0.98520  0.12140  0.98750  Biso   1.000  H
  H525     1.0000 0.01700  0.12840  0.03940  Biso   1.000  H
  Mn45     1.0000 0.04078  0.96151  0.75551  Biso   1.000  Mn
  O133     1.0000 0.04868  0.91935  0.71727  Biso   1.000  O
  O134     1.0000 0.11619  0.93229  0.90094  Biso   1.000  O
  O135     1.0000 0.03859  0.00423  0.80509  Biso   1.000  O
  N118     1.0000 0.07613  0.95671  0.82868  Biso   1.000  N
  N119     1.0000 0.08213  0.98522  0.87310  Biso   1.000  N
  C600     1.0000 0.07074  0.89693  0.73870  Biso   1.000  C
  C601     1.0000 0.07111  0.86668  0.69960  Biso   1.000  C
  H526     1.0000 0.05560  0.86310  0.65970  Biso   1.000  H
  C602     1.0000 0.09340  0.84190  0.71770  Biso   1.000  C
  H527     1.0000 0.09290  0.82150  0.69060  Biso   1.000  H
  C603     1.0000 0.11588  0.84651  0.77360  Biso   1.000  C
  H528     1.0000 0.13190  0.82990  0.78410  Biso   1.000  H
  C604     1.0000 0.11536  0.87534  0.81520  Biso   1.000  C
  H529     1.0000 0.13050  0.87780  0.85620  Biso   1.000  H
  C605     1.0000 0.09335  0.90114  0.79900  Biso   1.000  C
  C606     1.0000 0.09539  0.93084  0.84570  Biso   1.000  C
  C607     1.0000 0.06126  0.00811  0.85630  Biso   1.000  C
  C608     1.0000 0.06442  0.04165  0.89260  Biso   1.000  C
  H530     1.0000 0.04490  0.04570  0.92520  Biso   1.000  H
  H531     1.0000 0.08430  0.04190  0.92550  Biso   1.000  H
  C609     1.0000 0.06710  0.06888  0.83490  Biso   1.000  C
  H532     1.0000 0.08720  0.06570  0.80440  Biso   1.000  H
  H533     1.0000 0.06830  0.09030  0.86110  Biso   1.000  H
  H534     1.0000 0.04760  0.06850  0.80160  Biso   1.000  H
  N120     1.0000 0.26349  0.82408  0.41860  Biso   1.000  N
  C610     1.0000 0.23301  0.81372  0.38970  Biso   1.000  C
  H535     1.0000 0.22540  0.79180  0.39900  Biso   1.000  H
  C611     1.0000 0.21360  0.83560  0.34700  Biso   1.000  C
  H536     1.0000 0.19080  0.83170  0.33770  Biso   1.000  H
  C612     1.0000 0.23090  0.86550  0.31690  Biso   1.000  C
  C613     1.0000 0.25500  0.87430  0.35450  Biso   1.000  C
  H537     1.0000 0.26420  0.89580  0.34850  Biso   1.000  H
  C614     1.0000 0.26810  0.85210  0.40560  Biso   1.000  C
  H538     1.0000 0.28450  0.86170  0.43740  Biso   1.000  H
  C615     1.0000 0.21420  0.88850  0.26040  Biso   1.000  C
  H539     1.0000 0.20450  0.90740  0.28840  Biso   1.000  H
  H540     1.0000 0.23120  0.89740  0.22530  Biso   1.000  H
  Mn46     1.0000 0.61419  0.47027  0.47182  Biso   1.000  Mn
  O136     1.0000 0.65203  0.49032  0.43695  Biso   1.000  O
  O137     1.0000 0.61592  0.55300  0.61108  Biso   1.000  O
  O138     1.0000 0.57348  0.45545  0.51899  Biso   1.000  O
  N121     1.0000 0.60697  0.50612  0.54270  Biso   1.000  N
  N122     1.0000 0.57671  0.50394  0.58530  Biso   1.000  N
  N123     1.0000 0.64187  0.43864  0.55760  Biso   1.000  N
  C616     1.0000 0.66936  0.51590  0.46540  Biso   1.000  C
  C617     1.0000 0.70047  0.52264  0.43400  Biso   1.000  C
  H541     1.0000 0.70870  0.50910  0.39390  Biso   1.000  H
  C618     1.0000 0.71932  0.54848  0.46030  Biso   1.000  C
  H542     1.0000 0.74020  0.55280  0.43760  Biso   1.000  H
  C619     1.0000 0.70848  0.56824  0.51930  Biso   1.000  C
  H543     1.0000 0.72210  0.58540  0.53880  Biso   1.000  H
  C620     1.0000 0.67781  0.56267  0.54910  Biso   1.000  C
  H544     1.0000 0.66990  0.57700  0.58790  Biso   1.000  H
  C621     1.0000 0.65747  0.53651  0.52470  Biso   1.000  C
  C622     1.0000 0.62523  0.53200  0.56150  Biso   1.000  C
  C623     1.0000 0.56199  0.47638  0.56800  Biso   1.000  C
  C624     1.0000 0.52979  0.46712  0.60650  Biso   1.000  C
  H545     1.0000 0.52010  0.48670  0.63200  Biso   1.000  H
  H546     1.0000 0.51370  0.45900  0.56830  Biso   1.000  H
  C625     1.0000 0.66546  0.41827  0.53720  Biso   1.000  C
  H547     1.0000 0.67140  0.41780  0.48490  Biso   1.000  H
  C626     1.0000 0.68221  0.39753  0.58550  Biso   1.000  C
  H548     1.0000 0.70020  0.38450  0.56800  Biso   1.000  H
  C627     1.0000 0.67201  0.39624  0.66060  Biso   1.000  C
  C628     1.0000 0.64747  0.41779  0.68120  Biso   1.000  C
  H549     1.0000 0.64000  0.41800  0.73240  Biso   1.000  H
  C629     1.0000 0.63389  0.43831  0.63160  Biso   1.000  C
  H550     1.0000 0.61770  0.45350  0.64930  Biso   1.000  H
  C630     1.0000 0.68830  0.37281  0.71570  Biso   1.000  C
  H551     1.0000 0.69800  0.35400  0.68700  Biso   1.000  H
  H552     1.0000 0.67130  0.36380  0.75060  Biso   1.000  H
  Mn47     1.0000 0.57469  0.54573  0.66797  Biso   1.000  Mn
  O139     1.0000 0.59631  0.52028  0.74160  Biso   1.000  O
  O140     1.0000 0.49592  0.52569  0.81217  Biso   1.000  O
  O141     1.0000 0.54569  0.57068  0.60093  Biso   1.000  O
  N124     1.0000 0.53310  0.53911  0.71980  Biso   1.000  N
  N125     1.0000 0.50552  0.55507  0.68428  Biso   1.000  N
  C631     1.0000 0.58376  0.50357  0.79930  Biso   1.000  C
  C632     1.0000 0.60630  0.48320  0.83970  Biso   1.000  C
  H553     1.0000 0.62870  0.48220  0.82390  Biso   1.000  H
  C633     1.0000 0.59660  0.46570  0.89830  Biso   1.000  C
  H554     1.0000 0.60910  0.44710  0.91470  Biso   1.000  H
  C634     1.0000 0.56770  0.47480  0.93620  Biso   1.000  C
  H555     1.0000 0.56520  0.47270  0.98980  Biso   1.000  H
  C635     1.0000 0.54190  0.48780  0.88760  Biso   1.000  C
  H556     1.0000 0.51910  0.48450  0.89900  Biso   1.000  H
  C636     1.0000 0.55173  0.50529  0.82380  Biso   1.000  C
  C637     1.0000 0.52563  0.52468  0.78360  Biso   1.000  C
  C638     1.0000 0.51542  0.57043  0.62370  Biso   1.000  C
  C639     1.0000 0.48944  0.58815  0.57720  Biso   1.000  C
  H557     1.0000 0.47510  0.57140  0.55260  Biso   1.000  H
  H558     1.0000 0.47540  0.60140  0.61190  Biso   1.000  H
  C640     1.0000 0.50350  0.61110  0.51550  Biso   1.000  C
  H559     1.0000 0.51720  0.59820  0.48020  Biso   1.000  H
  H560     1.0000 0.48520  0.62140  0.48750  Biso   1.000  H
  H561     1.0000 0.51700  0.62840  0.53940  Biso   1.000  H
  Mn48     1.0000 0.54078  0.46151  0.25551  Biso   1.000  Mn
  O142     1.0000 0.54868  0.41935  0.21727  Biso   1.000  O
  O143     1.0000 0.61619  0.43229  0.40094  Biso   1.000  O
  O144     1.0000 0.53859  0.50423  0.30509  Biso   1.000  O
  N126     1.0000 0.57613  0.45671  0.32868  Biso   1.000  N
  N127     1.0000 0.58213  0.48522  0.37310  Biso   1.000  N
  C641     1.0000 0.57074  0.39693  0.23870  Biso   1.000  C
  C642     1.0000 0.57111  0.36668  0.19960  Biso   1.000  C
  H562     1.0000 0.55560  0.36310  0.15970  Biso   1.000  H
  C643     1.0000 0.59340  0.34190  0.21770  Biso   1.000  C
  H563     1.0000 0.59290  0.32150  0.19060  Biso   1.000  H
  C644     1.0000 0.61588  0.34651  0.27360  Biso   1.000  C
  H564     1.0000 0.63190  0.32990  0.28410  Biso   1.000  H
  C645     1.0000 0.61536  0.37534  0.31520  Biso   1.000  C
  H565     1.0000 0.63050  0.37780  0.35620  Biso   1.000  H
  C646     1.0000 0.59335  0.40114  0.29900  Biso   1.000  C
  C647     1.0000 0.59539  0.43084  0.34570  Biso   1.000  C
  C648     1.0000 0.56126  0.50811  0.35630  Biso   1.000  C
  C649     1.0000 0.56442  0.54165  0.39260  Biso   1.000  C
  H566     1.0000 0.54490  0.54570  0.42520  Biso   1.000  H
  H567     1.0000 0.58430  0.54190  0.42550  Biso   1.000  H
  C650     1.0000 0.56710  0.56888  0.33490  Biso   1.000  C
  H568     1.0000 0.58720  0.56570  0.30440  Biso   1.000  H
  H569     1.0000 0.56830  0.59030  0.36110  Biso   1.000  H
  H570     1.0000 0.54760  0.56850  0.30160  Biso   1.000  H
  N128     1.0000 0.76349  0.32408  0.91860  Biso   1.000  N
  C651     1.0000 0.73301  0.31372  0.88970  Biso   1.000  C
  H571     1.0000 0.72540  0.29180  0.89900  Biso   1.000  H
  C652     1.0000 0.71360  0.33560  0.84700  Biso   1.000  C
  H572     1.0000 0.69080  0.33170  0.83770  Biso   1.000  H
  C653     1.0000 0.73090  0.36550  0.81690  Biso   1.000  C
  C654     1.0000 0.75500  0.37430  0.85450  Biso   1.000  C
  H573     1.0000 0.76420  0.39580  0.84850  Biso   1.000  H
  C655     1.0000 0.76810  0.35210  0.90560  Biso   1.000  C
  H574     1.0000 0.78450  0.36170  0.93740  Biso   1.000  H
  C656     1.0000 0.71420  0.38850  0.76040  Biso   1.000  C
  H575     1.0000 0.70450  0.40740  0.78840  Biso   1.000  H
  H576     1.0000 0.73120  0.39740  0.72530  Biso   1.000  H
