data_image0
_cell_length_a       40.906
_cell_length_b       40.906
_cell_length_c       17.295
_cell_angle_alpha    90
_cell_angle_beta     90
_cell_angle_gamma    90

_symmetry_space_group_name_H-M    "P 1"
_symmetry_int_tables_number       1

loop_
  _symmetry_equiv_pos_as_xyz
  'x, y, z'

loop_
  _atom_site_label
  _atom_site_occupancy
  _atom_site_fract_x
  _atom_site_fract_y
  _atom_site_fract_z
  _atom_site_thermal_displace_type
  _atom_site_B_iso_or_equiv
  _atom_site_type_symbol
  Mn1      1.0000 0.57646  0.54115  0.18184  Biso   1.000  Mn
  O1       1.0000 0.59498  0.51400  0.25670  Biso   1.000  O
  O2       1.0000 0.49550  0.52560  0.32103  Biso   1.000  O
  O3       1.0000 0.55058  0.56736  0.11152  Biso   1.000  O
  N1       1.0000 0.53403  0.53665  0.23000  Biso   1.000  N
  N2       1.0000 0.50820  0.55219  0.18940  Biso   1.000  N
  C1       1.0000 0.58182  0.50088  0.31950  Biso   1.000  C
  C2       1.0000 0.60176  0.48022  0.36490  Biso   1.000  C
  H1       1.0000 0.62340  0.47530  0.34850  Biso   1.000  H
  C3       1.0000 0.59013  0.46732  0.43230  Biso   1.000  C
  H2       1.0000 0.60420  0.45400  0.46260  Biso   1.000  H
  C4       1.0000 0.55885  0.47284  0.45780  Biso   1.000  C
  H3       1.0000 0.55140  0.46390  0.50530  Biso   1.000  H
  C5       1.0000 0.53839  0.49192  0.41220  Biso   1.000  C
  H4       1.0000 0.51660  0.49590  0.42910  Biso   1.000  H
  C6       1.0000 0.54877  0.50544  0.34250  Biso   1.000  C
  C7       1.0000 0.52482  0.52348  0.29600  Biso   1.000  C
  C8       1.0000 0.51948  0.56693  0.12830  Biso   1.000  C
  C9       1.0000 0.49659  0.58442  0.07500  Biso   1.000  C
  H5       1.0000 0.47400  0.58220  0.09470  Biso   1.000  H
  H6       1.0000 0.49750  0.57410  0.02320  Biso   1.000  H
  C10      1.0000 0.50493  0.62024  0.06750  Biso   1.000  C
  H7       1.0000 0.49110  0.63020  0.02690  Biso   1.000  H
  H8       1.0000 0.52800  0.62250  0.05150  Biso   1.000  H
  C11      1.0000 0.49967  0.63848  0.14350  Biso   1.000  C
  H9       1.0000 0.47710  0.63450  0.16190  Biso   1.000  H
  H10      1.0000 0.51490  0.62970  0.18280  Biso   1.000  H
  C12      1.0000 0.50500  0.67500  0.13580  Biso   1.000  C
  H11      1.0000 0.52770  0.67900  0.11850  Biso   1.000  H
  H12      1.0000 0.49010  0.68360  0.09560  Biso   1.000  H
  C13      1.0000 0.49920  0.69300  0.20940  Biso   1.000  C
  H13      1.0000 0.47600  0.69880  0.21330  Biso   1.000  H
  H14      1.0000 0.51250  0.71290  0.21010  Biso   1.000  H
  H15      1.0000 0.50530  0.67900  0.25320  Biso   1.000  H
  Mn2      1.0000 0.46060  0.53807  0.24670  Biso   1.000  Mn
  O4       1.0000 0.45228  0.57945  0.28670  Biso   1.000  O
  O5       1.0000 0.38526  0.56698  0.10026  Biso   1.000  O
  O6       1.0000 0.46339  0.49633  0.19429  Biso   1.000  O
  N3       1.0000 0.42627  0.54364  0.17060  Biso   1.000  N
  N4       1.0000 0.42153  0.51611  0.12180  Biso   1.000  N
  N5       1.0000 0.42650  0.51173  0.33120  Biso   1.000  N
  C14      1.0000 0.42844  0.60023  0.26970  Biso   1.000  C
  C15      1.0000 0.42626  0.62860  0.31580  Biso   1.000  C
  H16      1.0000 0.44180  0.63220  0.35580  Biso   1.000  H
  C16      1.0000 0.40155  0.65129  0.30310  Biso   1.000  C
  H17      1.0000 0.40020  0.67010  0.33510  Biso   1.000  H
  C17      1.0000 0.37898  0.64694  0.24500  Biso   1.000  C
  H18      1.0000 0.36200  0.66240  0.23700  Biso   1.000  H
  C18      1.0000 0.38158  0.62005  0.19900  Biso   1.000  C
  H19      1.0000 0.36620  0.61720  0.15850  Biso   1.000  H
  C19      1.0000 0.40602  0.59632  0.20890  Biso   1.000  C
  C20      1.0000 0.40567  0.56772  0.15620  Biso   1.000  C
  C21      1.0000 0.44192  0.49288  0.14040  Biso   1.000  C
  C22      1.0000 0.43910  0.46015  0.10200  Biso   1.000  C
  H20      1.0000 0.46110  0.45280  0.08530  Biso   1.000  H
  H21      1.0000 0.42520  0.46220  0.05530  Biso   1.000  H
  C23      1.0000 0.42426  0.43464  0.15630  Biso   1.000  C
  H22      1.0000 0.42650  0.41270  0.13260  Biso   1.000  H
  H23      1.0000 0.43660  0.43460  0.20550  Biso   1.000  H
  C24      1.0000 0.38835  0.44119  0.17340  Biso   1.000  C
  H24      1.0000 0.37600  0.44150  0.12420  Biso   1.000  H
  H25      1.0000 0.38620  0.46300  0.19760  Biso   1.000  H
  C25      1.0000 0.37310  0.41545  0.22730  Biso   1.000  C
  H26      1.0000 0.37530  0.39350  0.20350  Biso   1.000  H
  H27      1.0000 0.38510  0.41530  0.27710  Biso   1.000  H
  C26      1.0000 0.33690  0.42280  0.24210  Biso   1.000  C
  H28      1.0000 0.33420  0.44630  0.25210  Biso   1.000  H
  H29      1.0000 0.32940  0.41040  0.28700  Biso   1.000  H
  H30      1.0000 0.32410  0.41660  0.19660  Biso   1.000  H
  C27      1.0000 0.43515  0.48272  0.35610  Biso   1.000  C
  H31      1.0000 0.45680  0.47540  0.34600  Biso   1.000  H
  C28      1.0000 0.41430  0.46240  0.39650  Biso   1.000  C
  H32      1.0000 0.42160  0.44160  0.41390  Biso   1.000  H
  C29      1.0000 0.38242  0.47280  0.41150  Biso   1.000  C
  C30      1.0000 0.37461  0.50295  0.38660  Biso   1.000  C
  H33      1.0000 0.35340  0.51130  0.39760  Biso   1.000  H
  C31      1.0000 0.39600  0.52219  0.34590  Biso   1.000  C
  H34      1.0000 0.38920  0.54310  0.32800  Biso   1.000  H
  C32      1.0000 0.35979  0.45110  0.45770  Biso   1.000  C
  H35      1.0000 0.33710  0.45900  0.45120  Biso   1.000  H
  H36      1.0000 0.36090  0.42860  0.43680  Biso   1.000  H
  Mn3      1.0000 0.61290  0.47013  0.97275  Biso   1.000  Mn
  O7       1.0000 0.64919  0.49169  0.93288  Biso   1.000  O
  O8       1.0000 0.61759  0.54845  0.12546  Biso   1.000  O
  O9       1.0000 0.57497  0.45326  0.02602  Biso   1.000  O
  N6       1.0000 0.60622  0.50505  0.04830  Biso   1.000  N
  N7       1.0000 0.57813  0.50065  0.09460  Biso   1.000  N
  N8       1.0000 0.30859  0.39432  0.69310  Biso   1.000  N
  C33      1.0000 0.66588  0.51595  0.96330  Biso   1.000  C
  C34      1.0000 0.69637  0.52292  0.92890  Biso   1.000  C
  H37      1.0000 0.70350  0.51040  0.88590  Biso   1.000  H
  C35      1.0000 0.71598  0.54765  0.95690  Biso   1.000  C
  H38      1.0000 0.73660  0.55170  0.93360  Biso   1.000  H
  C36      1.0000 0.70590  0.56666  0.01850  Biso   1.000  C
  H39      1.0000 0.71930  0.58390  0.03690  Biso   1.000  H
  C37      1.0000 0.67654  0.56044  0.05260  Biso   1.000  C
  H40      1.0000 0.66970  0.57370  0.09470  Biso   1.000  H
  C38      1.0000 0.65617  0.53505  0.02720  Biso   1.000  C
  C39      1.0000 0.62521  0.52962  0.06810  Biso   1.000  C
  C40      1.0000 0.56397  0.47314  0.07780  Biso   1.000  C
  C41      1.0000 0.53491  0.46221  0.12350  Biso   1.000  C
  H41      1.0000 0.52590  0.48100  0.15250  Biso   1.000  H
  H42      1.0000 0.51780  0.45420  0.08770  Biso   1.000  H
  C42      1.0000 0.54440  0.43390  0.18230  Biso   1.000  C
  H43      1.0000 0.55180  0.41460  0.15260  Biso   1.000  H
  H44      1.0000 0.56300  0.44130  0.21450  Biso   1.000  H
  C43      1.0000 0.51460  0.42290  0.23900  Biso   1.000  C
  H45      1.0000 0.49720  0.41220  0.20820  Biso   1.000  H
  H46      1.0000 0.50500  0.44250  0.26400  Biso   1.000  H
  C44      1.0000 0.52520  0.40260  0.29240  Biso   1.000  C
  H47      1.0000 0.53380  0.38190  0.27060  Biso   1.000  H
  H48      1.0000 0.54160  0.41260  0.32730  Biso   1.000  H
  C45      1.0000 0.48870  0.39820  0.33380  Biso   1.000  C
  H49      1.0000 0.47770  0.41940  0.33650  Biso   1.000  H
  H50      1.0000 0.47540  0.38310  0.30300  Biso   1.000  H
  H51      1.0000 0.49140  0.38940  0.38610  Biso   1.000  H
  C46      1.0000 0.30641  0.38941  0.61670  Biso   1.000  C
  H52      1.0000 0.29160  0.37320  0.59840  Biso   1.000  H
  C47      1.0000 0.32436  0.40655  0.56340  Biso   1.000  C
  H53      1.0000 0.32210  0.40210  0.50980  Biso   1.000  H
  C48      1.0000 0.34593  0.43061  0.58910  Biso   1.000  C
  C49      1.0000 0.34749  0.43601  0.66730  Biso   1.000  C
  H54      1.0000 0.36160  0.45240  0.68740  Biso   1.000  H
  C50      1.0000 0.32862  0.41773  0.71640  Biso   1.000  C
  H55      1.0000 0.33000  0.42210  0.77030  Biso   1.000  H
  C51      1.0000 0.36700  0.45030  0.53420  Biso   1.000  C
  H56      1.0000 0.36710  0.47310  0.55300  Biso   1.000  H
  H57      1.0000 0.38970  0.44200  0.53920  Biso   1.000  H
  Mn4      1.0000 0.07646  0.04115  0.68184  Biso   1.000  Mn
  O10      1.0000 0.09498  0.01400  0.75670  Biso   1.000  O
  O11      1.0000 0.99550  0.02560  0.82103  Biso   1.000  O
  O12      1.0000 0.05058  0.06736  0.61152  Biso   1.000  O
  N9       1.0000 0.03403  0.03665  0.73000  Biso   1.000  N
  N10      1.0000 0.00820  0.05219  0.68940  Biso   1.000  N
  C52      1.0000 0.08182  0.00088  0.81950  Biso   1.000  C
  C53      1.0000 0.10176  0.98022  0.86490  Biso   1.000  C
  H58      1.0000 0.12340  0.97530  0.84850  Biso   1.000  H
  C54      1.0000 0.09013  0.96732  0.93230  Biso   1.000  C
  H59      1.0000 0.10420  0.95400  0.96260  Biso   1.000  H
  C55      1.0000 0.05885  0.97284  0.95780  Biso   1.000  C
  H60      1.0000 0.05140  0.96390  0.00530  Biso   1.000  H
  C56      1.0000 0.03839  0.99192  0.91220  Biso   1.000  C
  H61      1.0000 0.01660  0.99590  0.92910  Biso   1.000  H
  C57      1.0000 0.04877  0.00544  0.84250  Biso   1.000  C
  C58      1.0000 0.02482  0.02348  0.79600  Biso   1.000  C
  C59      1.0000 0.01948  0.06693  0.62830  Biso   1.000  C
  C60      1.0000 0.99659  0.08442  0.57500  Biso   1.000  C
  H62      1.0000 0.97400  0.08220  0.59470  Biso   1.000  H
  H63      1.0000 0.99750  0.07410  0.52320  Biso   1.000  H
  C61      1.0000 0.00493  0.12024  0.56750  Biso   1.000  C
  H64      1.0000 0.99110  0.13020  0.52690  Biso   1.000  H
  H65      1.0000 0.02800  0.12250  0.55150  Biso   1.000  H
  C62      1.0000 0.99967  0.13848  0.64350  Biso   1.000  C
  H66      1.0000 0.97710  0.13450  0.66190  Biso   1.000  H
  H67      1.0000 0.01490  0.12970  0.68280  Biso   1.000  H
  C63      1.0000 0.00500  0.17500  0.63580  Biso   1.000  C
  H68      1.0000 0.02770  0.17900  0.61850  Biso   1.000  H
  H69      1.0000 0.99010  0.18360  0.59560  Biso   1.000  H
  C64      1.0000 0.99920  0.19300  0.70940  Biso   1.000  C
  H70      1.0000 0.97600  0.19880  0.71330  Biso   1.000  H
  H71      1.0000 0.01250  0.21290  0.71010  Biso   1.000  H
  H72      1.0000 0.00530  0.17900  0.75320  Biso   1.000  H
  Mn5      1.0000 0.96060  0.03807  0.74670  Biso   1.000  Mn
  O13      1.0000 0.95228  0.07945  0.78670  Biso   1.000  O
  O14      1.0000 0.88526  0.06698  0.60026  Biso   1.000  O
  O15      1.0000 0.96339  0.99633  0.69429  Biso   1.000  O
  N11      1.0000 0.92627  0.04364  0.67060  Biso   1.000  N
  N12      1.0000 0.92153  0.01611  0.62180  Biso   1.000  N
  N13      1.0000 0.92650  0.01173  0.83120  Biso   1.000  N
  C65      1.0000 0.92844  0.10023  0.76970  Biso   1.000  C
  C66      1.0000 0.92626  0.12860  0.81580  Biso   1.000  C
  H73      1.0000 0.94180  0.13220  0.85580  Biso   1.000  H
  C67      1.0000 0.90155  0.15129  0.80310  Biso   1.000  C
  H74      1.0000 0.90020  0.17010  0.83510  Biso   1.000  H
  C68      1.0000 0.87898  0.14694  0.74500  Biso   1.000  C
  H75      1.0000 0.86200  0.16240  0.73700  Biso   1.000  H
  C69      1.0000 0.88158  0.12005  0.69900  Biso   1.000  C
  H76      1.0000 0.86620  0.11720  0.65850  Biso   1.000  H
  C70      1.0000 0.90602  0.09632  0.70890  Biso   1.000  C
  C71      1.0000 0.90567  0.06772  0.65620  Biso   1.000  C
  C72      1.0000 0.94192  0.99288  0.64040  Biso   1.000  C
  C73      1.0000 0.93910  0.96015  0.60200  Biso   1.000  C
  H77      1.0000 0.96110  0.95280  0.58530  Biso   1.000  H
  H78      1.0000 0.92520  0.96220  0.55530  Biso   1.000  H
  C74      1.0000 0.92426  0.93464  0.65630  Biso   1.000  C
  H79      1.0000 0.92650  0.91270  0.63260  Biso   1.000  H
  H80      1.0000 0.93660  0.93460  0.70550  Biso   1.000  H
  C75      1.0000 0.88835  0.94119  0.67340  Biso   1.000  C
  H81      1.0000 0.87600  0.94150  0.62420  Biso   1.000  H
  H82      1.0000 0.88620  0.96300  0.69760  Biso   1.000  H
  C76      1.0000 0.87310  0.91545  0.72730  Biso   1.000  C
  H83      1.0000 0.87530  0.89350  0.70350  Biso   1.000  H
  H84      1.0000 0.88510  0.91530  0.77710  Biso   1.000  H
  C77      1.0000 0.83690  0.92280  0.74210  Biso   1.000  C
  H85      1.0000 0.83420  0.94630  0.75210  Biso   1.000  H
  H86      1.0000 0.82940  0.91040  0.78700  Biso   1.000  H
  H87      1.0000 0.82410  0.91660  0.69660  Biso   1.000  H
  C78      1.0000 0.93515  0.98272  0.85610  Biso   1.000  C
  H88      1.0000 0.95680  0.97540  0.84600  Biso   1.000  H
  C79      1.0000 0.91430  0.96240  0.89650  Biso   1.000  C
  H89      1.0000 0.92160  0.94160  0.91390  Biso   1.000  H
  C80      1.0000 0.88242  0.97280  0.91150  Biso   1.000  C
  C81      1.0000 0.87461  0.00295  0.88660  Biso   1.000  C
  H90      1.0000 0.85340  0.01130  0.89760  Biso   1.000  H
  C82      1.0000 0.89600  0.02219  0.84590  Biso   1.000  C
  H91      1.0000 0.88920  0.04310  0.82800  Biso   1.000  H
  C83      1.0000 0.85979  0.95110  0.95770  Biso   1.000  C
  H92      1.0000 0.83710  0.95900  0.95120  Biso   1.000  H
  H93      1.0000 0.86090  0.92860  0.93680  Biso   1.000  H
  Mn6      1.0000 0.11290  0.97013  0.47275  Biso   1.000  Mn
  O16      1.0000 0.14919  0.99169  0.43288  Biso   1.000  O
  O17      1.0000 0.11759  0.04845  0.62546  Biso   1.000  O
  O18      1.0000 0.07497  0.95326  0.52602  Biso   1.000  O
  N14      1.0000 0.10622  0.00505  0.54830  Biso   1.000  N
  N15      1.0000 0.07813  0.00065  0.59460  Biso   1.000  N
  N16      1.0000 0.80859  0.89432  0.19310  Biso   1.000  N
  C84      1.0000 0.16588  0.01595  0.46330  Biso   1.000  C
  C85      1.0000 0.19637  0.02292  0.42890  Biso   1.000  C
  H94      1.0000 0.20350  0.01040  0.38590  Biso   1.000  H
  C86      1.0000 0.21598  0.04765  0.45690  Biso   1.000  C
  H95      1.0000 0.23660  0.05170  0.43360  Biso   1.000  H
  C87      1.0000 0.20590  0.06666  0.51850  Biso   1.000  C
  H96      1.0000 0.21930  0.08390  0.53690  Biso   1.000  H
  C88      1.0000 0.17654  0.06044  0.55260  Biso   1.000  C
  H97      1.0000 0.16970  0.07370  0.59470  Biso   1.000  H
  C89      1.0000 0.15617  0.03505  0.52720  Biso   1.000  C
  C90      1.0000 0.12521  0.02962  0.56810  Biso   1.000  C
  C91      1.0000 0.06397  0.97314  0.57780  Biso   1.000  C
  C92      1.0000 0.03491  0.96221  0.62350  Biso   1.000  C
  H98      1.0000 0.02590  0.98100  0.65250  Biso   1.000  H
  H99      1.0000 0.01780  0.95420  0.58770  Biso   1.000  H
  C93      1.0000 0.04440  0.93390  0.68230  Biso   1.000  C
  H100     1.0000 0.05180  0.91460  0.65260  Biso   1.000  H
  H101     1.0000 0.06300  0.94130  0.71450  Biso   1.000  H
  C94      1.0000 0.01460  0.92290  0.73900  Biso   1.000  C
  H102     1.0000 0.99720  0.91220  0.70820  Biso   1.000  H
  H103     1.0000 0.00500  0.94250  0.76400  Biso   1.000  H
  C95      1.0000 0.02520  0.90260  0.79240  Biso   1.000  C
  H104     1.0000 0.03380  0.88190  0.77060  Biso   1.000  H
  H105     1.0000 0.04160  0.91260  0.82730  Biso   1.000  H
  C96      1.0000 0.98870  0.89820  0.83380  Biso   1.000  C
  H106     1.0000 0.97770  0.91940  0.83650  Biso   1.000  H
  H107     1.0000 0.97540  0.88310  0.80300  Biso   1.000  H
  H108     1.0000 0.99140  0.88940  0.88610  Biso   1.000  H
  C97      1.0000 0.80641  0.88941  0.11670  Biso   1.000  C
  H109     1.0000 0.79160  0.87320  0.09840  Biso   1.000  H
  C98      1.0000 0.82436  0.90655  0.06340  Biso   1.000  C
  H110     1.0000 0.82210  0.90210  0.00980  Biso   1.000  H
  C99      1.0000 0.84593  0.93061  0.08910  Biso   1.000  C
  C100     1.0000 0.84749  0.93601  0.16730  Biso   1.000  C
  H111     1.0000 0.86160  0.95240  0.18740  Biso   1.000  H
  C101     1.0000 0.82862  0.91773  0.21640  Biso   1.000  C
  H112     1.0000 0.83000  0.92210  0.27030  Biso   1.000  H
  C102     1.0000 0.86700  0.95030  0.03420  Biso   1.000  C
  H113     1.0000 0.86710  0.97310  0.05300  Biso   1.000  H
  H114     1.0000 0.88970  0.94200  0.03920  Biso   1.000  H
  Mn7      1.0000 0.92354  0.45885  0.68184  Biso   1.000  Mn
  O19      1.0000 0.90502  0.48600  0.75670  Biso   1.000  O
  O20      1.0000 0.00450  0.47440  0.82103  Biso   1.000  O
  O21      1.0000 0.94942  0.43264  0.61152  Biso   1.000  O
  N17      1.0000 0.96597  0.46335  0.73000  Biso   1.000  N
  N18      1.0000 0.99180  0.44781  0.68940  Biso   1.000  N
  C103     1.0000 0.91818  0.49912  0.81950  Biso   1.000  C
  C104     1.0000 0.89824  0.51978  0.86490  Biso   1.000  C
  H115     1.0000 0.87660  0.52470  0.84850  Biso   1.000  H
  C105     1.0000 0.90987  0.53268  0.93230  Biso   1.000  C
  H116     1.0000 0.89580  0.54600  0.96260  Biso   1.000  H
  C106     1.0000 0.94115  0.52716  0.95780  Biso   1.000  C
  H117     1.0000 0.94860  0.53610  0.00530  Biso   1.000  H
  C107     1.0000 0.96161  0.50808  0.91220  Biso   1.000  C
  H118     1.0000 0.98340  0.50410  0.92910  Biso   1.000  H
  C108     1.0000 0.95123  0.49456  0.84250  Biso   1.000  C
  C109     1.0000 0.97518  0.47652  0.79600  Biso   1.000  C
  C110     1.0000 0.98052  0.43307  0.62830  Biso   1.000  C
  C111     1.0000 0.00341  0.41558  0.57500  Biso   1.000  C
  H119     1.0000 0.02600  0.41780  0.59470  Biso   1.000  H
  H120     1.0000 0.00250  0.42590  0.52320  Biso   1.000  H
  C112     1.0000 0.99507  0.37976  0.56750  Biso   1.000  C
  H121     1.0000 0.00890  0.36980  0.52690  Biso   1.000  H
  H122     1.0000 0.97200  0.37750  0.55150  Biso   1.000  H
  C113     1.0000 0.00033  0.36152  0.64350  Biso   1.000  C
  H123     1.0000 0.02290  0.36550  0.66190  Biso   1.000  H
  H124     1.0000 0.98510  0.37030  0.68280  Biso   1.000  H
  C114     1.0000 0.99500  0.32500  0.63580  Biso   1.000  C
  H125     1.0000 0.97230  0.32100  0.61850  Biso   1.000  H
  H126     1.0000 0.00990  0.31640  0.59560  Biso   1.000  H
  C115     1.0000 0.00080  0.30700  0.70940  Biso   1.000  C
  H127     1.0000 0.02400  0.30120  0.71330  Biso   1.000  H
  H128     1.0000 0.98750  0.28710  0.71010  Biso   1.000  H
  H129     1.0000 0.99470  0.32100  0.75320  Biso   1.000  H
  Mn8      1.0000 0.03940  0.46193  0.74670  Biso   1.000  Mn
  O22      1.0000 0.04772  0.42055  0.78670  Biso   1.000  O
  O23      1.0000 0.11474  0.43302  0.60026  Biso   1.000  O
  O24      1.0000 0.03661  0.50367  0.69429  Biso   1.000  O
  N19      1.0000 0.07373  0.45636  0.67060  Biso   1.000  N
  N20      1.0000 0.07847  0.48389  0.62180  Biso   1.000  N
  N21      1.0000 0.07350  0.48827  0.83120  Biso   1.000  N
  C116     1.0000 0.07156  0.39977  0.76970  Biso   1.000  C
  C117     1.0000 0.07374  0.37140  0.81580  Biso   1.000  C
  H130     1.0000 0.05820  0.36780  0.85580  Biso   1.000  H
  C118     1.0000 0.09845  0.34871  0.80310  Biso   1.000  C
  H131     1.0000 0.09980  0.32990  0.83510  Biso   1.000  H
  C119     1.0000 0.12102  0.35306  0.74500  Biso   1.000  C
  H132     1.0000 0.13800  0.33760  0.73700  Biso   1.000  H
  C120     1.0000 0.11842  0.37995  0.69900  Biso   1.000  C
  H133     1.0000 0.13380  0.38280  0.65850  Biso   1.000  H
  C121     1.0000 0.09398  0.40368  0.70890  Biso   1.000  C
  C122     1.0000 0.09433  0.43228  0.65620  Biso   1.000  C
  C123     1.0000 0.05808  0.50712  0.64040  Biso   1.000  C
  C124     1.0000 0.06090  0.53985  0.60200  Biso   1.000  C
  H134     1.0000 0.03890  0.54720  0.58530  Biso   1.000  H
  H135     1.0000 0.07480  0.53780  0.55530  Biso   1.000  H
  C125     1.0000 0.07574  0.56536  0.65630  Biso   1.000  C
  H136     1.0000 0.07350  0.58730  0.63260  Biso   1.000  H
  H137     1.0000 0.06340  0.56540  0.70550  Biso   1.000  H
  C126     1.0000 0.11165  0.55881  0.67340  Biso   1.000  C
  H138     1.0000 0.12400  0.55850  0.62420  Biso   1.000  H
  H139     1.0000 0.11380  0.53700  0.69760  Biso   1.000  H
  C127     1.0000 0.12690  0.58455  0.72730  Biso   1.000  C
  H140     1.0000 0.12470  0.60650  0.70350  Biso   1.000  H
  H141     1.0000 0.11490  0.58470  0.77710  Biso   1.000  H
  C128     1.0000 0.16310  0.57720  0.74210  Biso   1.000  C
  H142     1.0000 0.16580  0.55370  0.75210  Biso   1.000  H
  H143     1.0000 0.17060  0.58960  0.78700  Biso   1.000  H
  H144     1.0000 0.17590  0.58340  0.69660  Biso   1.000  H
  C129     1.0000 0.06485  0.51728  0.85610  Biso   1.000  C
  H145     1.0000 0.04320  0.52460  0.84600  Biso   1.000  H
  C130     1.0000 0.08570  0.53760  0.89650  Biso   1.000  C
  H146     1.0000 0.07840  0.55840  0.91390  Biso   1.000  H
  C131     1.0000 0.11758  0.52720  0.91150  Biso   1.000  C
  C132     1.0000 0.12539  0.49705  0.88660  Biso   1.000  C
  H147     1.0000 0.14660  0.48870  0.89760  Biso   1.000  H
  C133     1.0000 0.10400  0.47781  0.84590  Biso   1.000  C
  H148     1.0000 0.11080  0.45690  0.82800  Biso   1.000  H
  C134     1.0000 0.14021  0.54890  0.95770  Biso   1.000  C
  H149     1.0000 0.16290  0.54100  0.95120  Biso   1.000  H
  H150     1.0000 0.13910  0.57140  0.93680  Biso   1.000  H
  Mn9      1.0000 0.88710  0.52987  0.47275  Biso   1.000  Mn
  O25      1.0000 0.85081  0.50831  0.43288  Biso   1.000  O
  O26      1.0000 0.88241  0.45155  0.62546  Biso   1.000  O
  O27      1.0000 0.92503  0.54674  0.52602  Biso   1.000  O
  N22      1.0000 0.89378  0.49495  0.54830  Biso   1.000  N
  N23      1.0000 0.92187  0.49935  0.59460  Biso   1.000  N
  N24      1.0000 0.19141  0.60568  0.19310  Biso   1.000  N
  C135     1.0000 0.83412  0.48405  0.46330  Biso   1.000  C
  C136     1.0000 0.80363  0.47708  0.42890  Biso   1.000  C
  H151     1.0000 0.79650  0.48960  0.38590  Biso   1.000  H
  C137     1.0000 0.78402  0.45235  0.45690  Biso   1.000  C
  H152     1.0000 0.76340  0.44830  0.43360  Biso   1.000  H
  C138     1.0000 0.79410  0.43334  0.51850  Biso   1.000  C
  H153     1.0000 0.78070  0.41610  0.53690  Biso   1.000  H
  C139     1.0000 0.82346  0.43956  0.55260  Biso   1.000  C
  H154     1.0000 0.83030  0.42630  0.59470  Biso   1.000  H
  C140     1.0000 0.84383  0.46495  0.52720  Biso   1.000  C
  C141     1.0000 0.87479  0.47038  0.56810  Biso   1.000  C
  C142     1.0000 0.93603  0.52686  0.57780  Biso   1.000  C
  C143     1.0000 0.96509  0.53779  0.62350  Biso   1.000  C
  H155     1.0000 0.97410  0.51900  0.65250  Biso   1.000  H
  H156     1.0000 0.98220  0.54580  0.58770  Biso   1.000  H
  C144     1.0000 0.95560  0.56610  0.68230  Biso   1.000  C
  H157     1.0000 0.94820  0.58540  0.65260  Biso   1.000  H
  H158     1.0000 0.93700  0.55870  0.71450  Biso   1.000  H
  C145     1.0000 0.98540  0.57710  0.73900  Biso   1.000  C
  H159     1.0000 0.00280  0.58780  0.70820  Biso   1.000  H
  H160     1.0000 0.99500  0.55750  0.76400  Biso   1.000  H
  C146     1.0000 0.97480  0.59740  0.79240  Biso   1.000  C
  H161     1.0000 0.96620  0.61810  0.77060  Biso   1.000  H
  H162     1.0000 0.95840  0.58740  0.82730  Biso   1.000  H
  C147     1.0000 0.01130  0.60180  0.83380  Biso   1.000  C
  H163     1.0000 0.02230  0.58060  0.83650  Biso   1.000  H
  H164     1.0000 0.02460  0.61690  0.80300  Biso   1.000  H
  H165     1.0000 0.00860  0.61060  0.88610  Biso   1.000  H
  C148     1.0000 0.19359  0.61059  0.11670  Biso   1.000  C
  H166     1.0000 0.20840  0.62680  0.09840  Biso   1.000  H
  C149     1.0000 0.17564  0.59345  0.06340  Biso   1.000  C
  H167     1.0000 0.17790  0.59790  0.00980  Biso   1.000  H
  C150     1.0000 0.15407  0.56939  0.08910  Biso   1.000  C
  C151     1.0000 0.15251  0.56399  0.16730  Biso   1.000  C
  H168     1.0000 0.13840  0.54760  0.18740  Biso   1.000  H
  C152     1.0000 0.17138  0.58227  0.21640  Biso   1.000  C
  H169     1.0000 0.17000  0.57790  0.27030  Biso   1.000  H
  C153     1.0000 0.13300  0.54970  0.03420  Biso   1.000  C
  H170     1.0000 0.13290  0.52690  0.05300  Biso   1.000  H
  H171     1.0000 0.11030  0.55800  0.03920  Biso   1.000  H
  Mn10     1.0000 0.42354  0.95885  0.18184  Biso   1.000  Mn
  O28      1.0000 0.40502  0.98600  0.25670  Biso   1.000  O
  O29      1.0000 0.50450  0.97440  0.32103  Biso   1.000  O
  O30      1.0000 0.44942  0.93264  0.11152  Biso   1.000  O
  N25      1.0000 0.46597  0.96335  0.23000  Biso   1.000  N
  N26      1.0000 0.49180  0.94781  0.18940  Biso   1.000  N
  C154     1.0000 0.41818  0.99912  0.31950  Biso   1.000  C
  C155     1.0000 0.39824  0.01978  0.36490  Biso   1.000  C
  H172     1.0000 0.37660  0.02470  0.34850  Biso   1.000  H
  C156     1.0000 0.40987  0.03268  0.43230  Biso   1.000  C
  H173     1.0000 0.39580  0.04600  0.46260  Biso   1.000  H
  C157     1.0000 0.44115  0.02716  0.45780  Biso   1.000  C
  H174     1.0000 0.44860  0.03610  0.50530  Biso   1.000  H
  C158     1.0000 0.46161  0.00808  0.41220  Biso   1.000  C
  H175     1.0000 0.48340  0.00410  0.42910  Biso   1.000  H
  C159     1.0000 0.45123  0.99456  0.34250  Biso   1.000  C
  C160     1.0000 0.47518  0.97652  0.29600  Biso   1.000  C
  C161     1.0000 0.48052  0.93307  0.12830  Biso   1.000  C
  C162     1.0000 0.50341  0.91558  0.07500  Biso   1.000  C
  H176     1.0000 0.52600  0.91780  0.09470  Biso   1.000  H
  H177     1.0000 0.50250  0.92590  0.02320  Biso   1.000  H
  C163     1.0000 0.49507  0.87976  0.06750  Biso   1.000  C
  H178     1.0000 0.50890  0.86980  0.02690  Biso   1.000  H
  H179     1.0000 0.47200  0.87750  0.05150  Biso   1.000  H
  C164     1.0000 0.50033  0.86152  0.14350  Biso   1.000  C
  H180     1.0000 0.52290  0.86550  0.16190  Biso   1.000  H
  H181     1.0000 0.48510  0.87030  0.18280  Biso   1.000  H
  C165     1.0000 0.49500  0.82500  0.13580  Biso   1.000  C
  H182     1.0000 0.47230  0.82100  0.11850  Biso   1.000  H
  H183     1.0000 0.50990  0.81640  0.09560  Biso   1.000  H
  C166     1.0000 0.50080  0.80700  0.20940  Biso   1.000  C
  H184     1.0000 0.52400  0.80120  0.21330  Biso   1.000  H
  H185     1.0000 0.48750  0.78710  0.21010  Biso   1.000  H
  H186     1.0000 0.49470  0.82100  0.25320  Biso   1.000  H
  Mn11     1.0000 0.53940  0.96193  0.24670  Biso   1.000  Mn
  O31      1.0000 0.54772  0.92055  0.28670  Biso   1.000  O
  O32      1.0000 0.61474  0.93302  0.10026  Biso   1.000  O
  O33      1.0000 0.53661  0.00367  0.19429  Biso   1.000  O
  N27      1.0000 0.57373  0.95636  0.17060  Biso   1.000  N
  N28      1.0000 0.57847  0.98389  0.12180  Biso   1.000  N
  N29      1.0000 0.57350  0.98827  0.33120  Biso   1.000  N
  C167     1.0000 0.57156  0.89977  0.26970  Biso   1.000  C
  C168     1.0000 0.57374  0.87140  0.31580  Biso   1.000  C
  H187     1.0000 0.55820  0.86780  0.35580  Biso   1.000  H
  C169     1.0000 0.59845  0.84871  0.30310  Biso   1.000  C
  H188     1.0000 0.59980  0.82990  0.33510  Biso   1.000  H
  C170     1.0000 0.62102  0.85306  0.24500  Biso   1.000  C
  H189     1.0000 0.63800  0.83760  0.23700  Biso   1.000  H
  C171     1.0000 0.61842  0.87995  0.19900  Biso   1.000  C
  H190     1.0000 0.63380  0.88280  0.15850  Biso   1.000  H
  C172     1.0000 0.59398  0.90368  0.20890  Biso   1.000  C
  C173     1.0000 0.59433  0.93228  0.15620  Biso   1.000  C
  C174     1.0000 0.55808  0.00712  0.14040  Biso   1.000  C
  C175     1.0000 0.56090  0.03985  0.10200  Biso   1.000  C
  H191     1.0000 0.53890  0.04720  0.08530  Biso   1.000  H
  H192     1.0000 0.57480  0.03780  0.05530  Biso   1.000  H
  C176     1.0000 0.57574  0.06536  0.15630  Biso   1.000  C
  H193     1.0000 0.57350  0.08730  0.13260  Biso   1.000  H
  H194     1.0000 0.56340  0.06540  0.20550  Biso   1.000  H
  C177     1.0000 0.61165  0.05881  0.17340  Biso   1.000  C
  H195     1.0000 0.62400  0.05850  0.12420  Biso   1.000  H
  H196     1.0000 0.61380  0.03700  0.19760  Biso   1.000  H
  C178     1.0000 0.62690  0.08455  0.22730  Biso   1.000  C
  H197     1.0000 0.62470  0.10650  0.20350  Biso   1.000  H
  H198     1.0000 0.61490  0.08470  0.27710  Biso   1.000  H
  C179     1.0000 0.66310  0.07720  0.24210  Biso   1.000  C
  H199     1.0000 0.66580  0.05370  0.25210  Biso   1.000  H
  H200     1.0000 0.67060  0.08960  0.28700  Biso   1.000  H
  H201     1.0000 0.67590  0.08340  0.19660  Biso   1.000  H
  C180     1.0000 0.56485  0.01728  0.35610  Biso   1.000  C
  H202     1.0000 0.54320  0.02460  0.34600  Biso   1.000  H
  C181     1.0000 0.58570  0.03760  0.39650  Biso   1.000  C
  H203     1.0000 0.57840  0.05840  0.41390  Biso   1.000  H
  C182     1.0000 0.61758  0.02720  0.41150  Biso   1.000  C
  C183     1.0000 0.62539  0.99705  0.38660  Biso   1.000  C
  H204     1.0000 0.64660  0.98870  0.39760  Biso   1.000  H
  C184     1.0000 0.60400  0.97781  0.34590  Biso   1.000  C
  H205     1.0000 0.61080  0.95690  0.32800  Biso   1.000  H
  C185     1.0000 0.64021  0.04890  0.45770  Biso   1.000  C
  H206     1.0000 0.66290  0.04100  0.45120  Biso   1.000  H
  H207     1.0000 0.63910  0.07140  0.43680  Biso   1.000  H
  Mn12     1.0000 0.38710  0.02987  0.97275  Biso   1.000  Mn
  O34      1.0000 0.35081  0.00831  0.93288  Biso   1.000  O
  O35      1.0000 0.38241  0.95155  0.12546  Biso   1.000  O
  O36      1.0000 0.42503  0.04674  0.02602  Biso   1.000  O
  N30      1.0000 0.39378  0.99495  0.04830  Biso   1.000  N
  N31      1.0000 0.42187  0.99935  0.09460  Biso   1.000  N
  N32      1.0000 0.69141  0.10568  0.69310  Biso   1.000  N
  C186     1.0000 0.33412  0.98405  0.96330  Biso   1.000  C
  C187     1.0000 0.30363  0.97708  0.92890  Biso   1.000  C
  H208     1.0000 0.29650  0.98960  0.88590  Biso   1.000  H
  C188     1.0000 0.28402  0.95235  0.95690  Biso   1.000  C
  H209     1.0000 0.26340  0.94830  0.93360  Biso   1.000  H
  C189     1.0000 0.29410  0.93334  0.01850  Biso   1.000  C
  H210     1.0000 0.28070  0.91610  0.03690  Biso   1.000  H
  C190     1.0000 0.32346  0.93956  0.05260  Biso   1.000  C
  H211     1.0000 0.33030  0.92630  0.09470  Biso   1.000  H
  C191     1.0000 0.34383  0.96495  0.02720  Biso   1.000  C
  C192     1.0000 0.37479  0.97038  0.06810  Biso   1.000  C
  C193     1.0000 0.43603  0.02686  0.07780  Biso   1.000  C
  C194     1.0000 0.46509  0.03779  0.12350  Biso   1.000  C
  H212     1.0000 0.47410  0.01900  0.15250  Biso   1.000  H
  H213     1.0000 0.48220  0.04580  0.08770  Biso   1.000  H
  C195     1.0000 0.45560  0.06610  0.18230  Biso   1.000  C
  H214     1.0000 0.44820  0.08540  0.15260  Biso   1.000  H
  H215     1.0000 0.43700  0.05870  0.21450  Biso   1.000  H
  C196     1.0000 0.48540  0.07710  0.23900  Biso   1.000  C
  H216     1.0000 0.50280  0.08780  0.20820  Biso   1.000  H
  H217     1.0000 0.49500  0.05750  0.26400  Biso   1.000  H
  C197     1.0000 0.47480  0.09740  0.29240  Biso   1.000  C
  H218     1.0000 0.46620  0.11810  0.27060  Biso   1.000  H
  H219     1.0000 0.45840  0.08740  0.32730  Biso   1.000  H
  C198     1.0000 0.51130  0.10180  0.33380  Biso   1.000  C
  H220     1.0000 0.52230  0.08060  0.33650  Biso   1.000  H
  H221     1.0000 0.52460  0.11690  0.30300  Biso   1.000  H
  H222     1.0000 0.50860  0.11060  0.38610  Biso   1.000  H
  C199     1.0000 0.69359  0.11059  0.61670  Biso   1.000  C
  H223     1.0000 0.70840  0.12680  0.59840  Biso   1.000  H
  C200     1.0000 0.67564  0.09345  0.56340  Biso   1.000  C
  H224     1.0000 0.67790  0.09790  0.50980  Biso   1.000  H
  C201     1.0000 0.65407  0.06939  0.58910  Biso   1.000  C
  C202     1.0000 0.65251  0.06399  0.66730  Biso   1.000  C
  H225     1.0000 0.63840  0.04760  0.68740  Biso   1.000  H
  C203     1.0000 0.67138  0.08227  0.71640  Biso   1.000  C
  H226     1.0000 0.67000  0.07790  0.77030  Biso   1.000  H
  C204     1.0000 0.63300  0.04970  0.53420  Biso   1.000  C
  H227     1.0000 0.63290  0.02690  0.55300  Biso   1.000  H
  H228     1.0000 0.61030  0.05800  0.53920  Biso   1.000  H
  Mn13     1.0000 0.20885  0.82646  0.43184  Biso   1.000  Mn
  O37      1.0000 0.23600  0.84498  0.50670  Biso   1.000  O
  O38      1.0000 0.22440  0.74550  0.57103  Biso   1.000  O
  O39      1.0000 0.18264  0.80058  0.36152  Biso   1.000  O
  N33      1.0000 0.21335  0.78403  0.48000  Biso   1.000  N
  N34      1.0000 0.19781  0.75820  0.43940  Biso   1.000  N
  C205     1.0000 0.24912  0.83182  0.56950  Biso   1.000  C
  C206     1.0000 0.26978  0.85176  0.61490  Biso   1.000  C
  H229     1.0000 0.27470  0.87340  0.59850  Biso   1.000  H
  C207     1.0000 0.28268  0.84013  0.68230  Biso   1.000  C
  H230     1.0000 0.29600  0.85420  0.71260  Biso   1.000  H
  C208     1.0000 0.27716  0.80885  0.70780  Biso   1.000  C
  H231     1.0000 0.28610  0.80140  0.75530  Biso   1.000  H
  C209     1.0000 0.25808  0.78839  0.66220  Biso   1.000  C
  H232     1.0000 0.25410  0.76660  0.67910  Biso   1.000  H
  C210     1.0000 0.24456  0.79877  0.59250  Biso   1.000  C
  C211     1.0000 0.22652  0.77482  0.54600  Biso   1.000  C
  C212     1.0000 0.18307  0.76948  0.37830  Biso   1.000  C
  C213     1.0000 0.16558  0.74659  0.32500  Biso   1.000  C
  H233     1.0000 0.16780  0.72400  0.34470  Biso   1.000  H
  H234     1.0000 0.17590  0.74750  0.27320  Biso   1.000  H
  C214     1.0000 0.12976  0.75493  0.31750  Biso   1.000  C
  H235     1.0000 0.11980  0.74110  0.27690  Biso   1.000  H
  H236     1.0000 0.12750  0.77800  0.30150  Biso   1.000  H
  C215     1.0000 0.11152  0.74967  0.39350  Biso   1.000  C
  H237     1.0000 0.11550  0.72710  0.41190  Biso   1.000  H
  H238     1.0000 0.12030  0.76490  0.43280  Biso   1.000  H
  C216     1.0000 0.07500  0.75500  0.38580  Biso   1.000  C
  H239     1.0000 0.07100  0.77770  0.36850  Biso   1.000  H
  H240     1.0000 0.06640  0.74010  0.34560  Biso   1.000  H
  C217     1.0000 0.05700  0.74920  0.45940  Biso   1.000  C
  H241     1.0000 0.05120  0.72600  0.46330  Biso   1.000  H
  H242     1.0000 0.03710  0.76250  0.46010  Biso   1.000  H
  H243     1.0000 0.07100  0.75530  0.50320  Biso   1.000  H
  Mn14     1.0000 0.21193  0.71060  0.49670  Biso   1.000  Mn
  O40      1.0000 0.17055  0.70228  0.53670  Biso   1.000  O
  O41      1.0000 0.18302  0.63526  0.35026  Biso   1.000  O
  O42      1.0000 0.25367  0.71339  0.44429  Biso   1.000  O
  N35      1.0000 0.20636  0.67627  0.42060  Biso   1.000  N
  N36      1.0000 0.23389  0.67153  0.37180  Biso   1.000  N
  N37      1.0000 0.23827  0.67650  0.58120  Biso   1.000  N
  C218     1.0000 0.14977  0.67844  0.51970  Biso   1.000  C
  C219     1.0000 0.12140  0.67626  0.56580  Biso   1.000  C
  H244     1.0000 0.11780  0.69180  0.60580  Biso   1.000  H
  C220     1.0000 0.09871  0.65155  0.55310  Biso   1.000  C
  H245     1.0000 0.07990  0.65020  0.58510  Biso   1.000  H
  C221     1.0000 0.10306  0.62898  0.49500  Biso   1.000  C
  H246     1.0000 0.08760  0.61200  0.48700  Biso   1.000  H
  C222     1.0000 0.12995  0.63158  0.44900  Biso   1.000  C
  H247     1.0000 0.13280  0.61620  0.40850  Biso   1.000  H
  C223     1.0000 0.15368  0.65602  0.45890  Biso   1.000  C
  C224     1.0000 0.18228  0.65567  0.40620  Biso   1.000  C
  C225     1.0000 0.25712  0.69192  0.39040  Biso   1.000  C
  C226     1.0000 0.28985  0.68910  0.35200  Biso   1.000  C
  H248     1.0000 0.29720  0.71110  0.33530  Biso   1.000  H
  H249     1.0000 0.28780  0.67520  0.30530  Biso   1.000  H
  C227     1.0000 0.31536  0.67426  0.40630  Biso   1.000  C
  H250     1.0000 0.33730  0.67650  0.38260  Biso   1.000  H
  H251     1.0000 0.31540  0.68660  0.45550  Biso   1.000  H
  C228     1.0000 0.30881  0.63835  0.42340  Biso   1.000  C
  H252     1.0000 0.30850  0.62600  0.37420  Biso   1.000  H
  H253     1.0000 0.28700  0.63620  0.44760  Biso   1.000  H
  C229     1.0000 0.33455  0.62310  0.47730  Biso   1.000  C
  H254     1.0000 0.35650  0.62530  0.45350  Biso   1.000  H
  H255     1.0000 0.33470  0.63510  0.52710  Biso   1.000  H
  C230     1.0000 0.32720  0.58690  0.49210  Biso   1.000  C
  H256     1.0000 0.30370  0.58420  0.50210  Biso   1.000  H
  H257     1.0000 0.33960  0.57940  0.53700  Biso   1.000  H
  H258     1.0000 0.33340  0.57410  0.44660  Biso   1.000  H
  C231     1.0000 0.26728  0.68515  0.60610  Biso   1.000  C
  H259     1.0000 0.27460  0.70680  0.59600  Biso   1.000  H
  C232     1.0000 0.28760  0.66430  0.64650  Biso   1.000  C
  H260     1.0000 0.30840  0.67160  0.66390  Biso   1.000  H
  C233     1.0000 0.27720  0.63242  0.66150  Biso   1.000  C
  C234     1.0000 0.24705  0.62461  0.63660  Biso   1.000  C
  H261     1.0000 0.23870  0.60340  0.64760  Biso   1.000  H
  C235     1.0000 0.22781  0.64600  0.59590  Biso   1.000  C
  H262     1.0000 0.20690  0.63920  0.57800  Biso   1.000  H
  C236     1.0000 0.29890  0.60979  0.70770  Biso   1.000  C
  H263     1.0000 0.29100  0.58710  0.70120  Biso   1.000  H
  H264     1.0000 0.32140  0.61090  0.68680  Biso   1.000  H
  Mn15     1.0000 0.27987  0.86290  0.22275  Biso   1.000  Mn
  O43      1.0000 0.25831  0.89919  0.18288  Biso   1.000  O
  O44      1.0000 0.20155  0.86759  0.37546  Biso   1.000  O
  O45      1.0000 0.29674  0.82497  0.27602  Biso   1.000  O
  N38      1.0000 0.24495  0.85622  0.29830  Biso   1.000  N
  N39      1.0000 0.24935  0.82813  0.34460  Biso   1.000  N
  N40      1.0000 0.35568  0.55859  0.94310  Biso   1.000  N
  C237     1.0000 0.23405  0.91588  0.21330  Biso   1.000  C
  C238     1.0000 0.22708  0.94637  0.17890  Biso   1.000  C
  H265     1.0000 0.23960  0.95350  0.13590  Biso   1.000  H
  C239     1.0000 0.20235  0.96598  0.20690  Biso   1.000  C
  H266     1.0000 0.19830  0.98660  0.18360  Biso   1.000  H
  C240     1.0000 0.18334  0.95590  0.26850  Biso   1.000  C
  H267     1.0000 0.16610  0.96930  0.28690  Biso   1.000  H
  C241     1.0000 0.18956  0.92654  0.30260  Biso   1.000  C
  H268     1.0000 0.17630  0.91970  0.34470  Biso   1.000  H
  C242     1.0000 0.21495  0.90617  0.27720  Biso   1.000  C
  C243     1.0000 0.22038  0.87521  0.31810  Biso   1.000  C
  C244     1.0000 0.27686  0.81397  0.32780  Biso   1.000  C
  C245     1.0000 0.28779  0.78491  0.37350  Biso   1.000  C
  H269     1.0000 0.26900  0.77590  0.40250  Biso   1.000  H
  H270     1.0000 0.29580  0.76780  0.33770  Biso   1.000  H
  C246     1.0000 0.31610  0.79440  0.43230  Biso   1.000  C
  H271     1.0000 0.33540  0.80180  0.40260  Biso   1.000  H
  H272     1.0000 0.30870  0.81300  0.46450  Biso   1.000  H
  C247     1.0000 0.32710  0.76460  0.48900  Biso   1.000  C
  H273     1.0000 0.33780  0.74720  0.45820  Biso   1.000  H
  H274     1.0000 0.30750  0.75500  0.51400  Biso   1.000  H
  C248     1.0000 0.34740  0.77520  0.54240  Biso   1.000  C
  H275     1.0000 0.36810  0.78380  0.52060  Biso   1.000  H
  H276     1.0000 0.33740  0.79160  0.57730  Biso   1.000  H
  C249     1.0000 0.35180  0.73870  0.58380  Biso   1.000  C
  H277     1.0000 0.33060  0.72770  0.58650  Biso   1.000  H
  H278     1.0000 0.36690  0.72540  0.55300  Biso   1.000  H
  H279     1.0000 0.36060  0.74140  0.63610  Biso   1.000  H
  C250     1.0000 0.36059  0.55641  0.86670  Biso   1.000  C
  H280     1.0000 0.37680  0.54160  0.84840  Biso   1.000  H
  C251     1.0000 0.34345  0.57436  0.81340  Biso   1.000  C
  H281     1.0000 0.34790  0.57210  0.75980  Biso   1.000  H
  C252     1.0000 0.31939  0.59593  0.83910  Biso   1.000  C
  C253     1.0000 0.31399  0.59749  0.91730  Biso   1.000  C
  H282     1.0000 0.29760  0.61160  0.93740  Biso   1.000  H
  C254     1.0000 0.33227  0.57862  0.96640  Biso   1.000  C
  H283     1.0000 0.32790  0.58000  0.02030  Biso   1.000  H
  C255     1.0000 0.29970  0.61700  0.78420  Biso   1.000  C
  H284     1.0000 0.27690  0.61710  0.80300  Biso   1.000  H
  H285     1.0000 0.30800  0.63970  0.78920  Biso   1.000  H
  Mn16     1.0000 0.70885  0.32646  0.93184  Biso   1.000  Mn
  O46      1.0000 0.73600  0.34498  0.00670  Biso   1.000  O
  O47      1.0000 0.72440  0.24550  0.07103  Biso   1.000  O
  O48      1.0000 0.68264  0.30058  0.86152  Biso   1.000  O
  N41      1.0000 0.71335  0.28403  0.98000  Biso   1.000  N
  N42      1.0000 0.69781  0.25820  0.93940  Biso   1.000  N
  C256     1.0000 0.74912  0.33182  0.06950  Biso   1.000  C
  C257     1.0000 0.76978  0.35176  0.11490  Biso   1.000  C
  H286     1.0000 0.77470  0.37340  0.09850  Biso   1.000  H
  C258     1.0000 0.78268  0.34013  0.18230  Biso   1.000  C
  H287     1.0000 0.79600  0.35420  0.21260  Biso   1.000  H
  C259     1.0000 0.77716  0.30885  0.20780  Biso   1.000  C
  H288     1.0000 0.78610  0.30140  0.25530  Biso   1.000  H
  C260     1.0000 0.75808  0.28839  0.16220  Biso   1.000  C
  H289     1.0000 0.75410  0.26660  0.17910  Biso   1.000  H
  C261     1.0000 0.74456  0.29877  0.09250  Biso   1.000  C
  C262     1.0000 0.72652  0.27482  0.04600  Biso   1.000  C
  C263     1.0000 0.68307  0.26948  0.87830  Biso   1.000  C
  C264     1.0000 0.66558  0.24659  0.82500  Biso   1.000  C
  H290     1.0000 0.66780  0.22400  0.84470  Biso   1.000  H
  H291     1.0000 0.67590  0.24750  0.77320  Biso   1.000  H
  C265     1.0000 0.62976  0.25493  0.81750  Biso   1.000  C
  H292     1.0000 0.61980  0.24110  0.77690  Biso   1.000  H
  H293     1.0000 0.62750  0.27800  0.80150  Biso   1.000  H
  C266     1.0000 0.61152  0.24967  0.89350  Biso   1.000  C
  H294     1.0000 0.61550  0.22710  0.91190  Biso   1.000  H
  H295     1.0000 0.62030  0.26490  0.93280  Biso   1.000  H
  C267     1.0000 0.57500  0.25500  0.88580  Biso   1.000  C
  H296     1.0000 0.57100  0.27770  0.86850  Biso   1.000  H
  H297     1.0000 0.56640  0.24010  0.84560  Biso   1.000  H
  C268     1.0000 0.55700  0.24920  0.95940  Biso   1.000  C
  H298     1.0000 0.55120  0.22600  0.96330  Biso   1.000  H
  H299     1.0000 0.53710  0.26250  0.96010  Biso   1.000  H
  H300     1.0000 0.57100  0.25530  0.00320  Biso   1.000  H
  Mn17     1.0000 0.71193  0.21060  0.99670  Biso   1.000  Mn
  O49      1.0000 0.67055  0.20228  0.03670  Biso   1.000  O
  O50      1.0000 0.68302  0.13526  0.85026  Biso   1.000  O
  O51      1.0000 0.75367  0.21339  0.94429  Biso   1.000  O
  N43      1.0000 0.70636  0.17627  0.92060  Biso   1.000  N
  N44      1.0000 0.73389  0.17153  0.87180  Biso   1.000  N
  N45      1.0000 0.73827  0.17650  0.08120  Biso   1.000  N
  C269     1.0000 0.64977  0.17844  0.01970  Biso   1.000  C
  C270     1.0000 0.62140  0.17626  0.06580  Biso   1.000  C
  H301     1.0000 0.61780  0.19180  0.10580  Biso   1.000  H
  C271     1.0000 0.59871  0.15155  0.05310  Biso   1.000  C
  H302     1.0000 0.57990  0.15020  0.08510  Biso   1.000  H
  C272     1.0000 0.60306  0.12898  0.99500  Biso   1.000  C
  H303     1.0000 0.58760  0.11200  0.98700  Biso   1.000  H
  C273     1.0000 0.62995  0.13158  0.94900  Biso   1.000  C
  H304     1.0000 0.63280  0.11620  0.90850  Biso   1.000  H
  C274     1.0000 0.65368  0.15602  0.95890  Biso   1.000  C
  C275     1.0000 0.68228  0.15567  0.90620  Biso   1.000  C
  C276     1.0000 0.75712  0.19192  0.89040  Biso   1.000  C
  C277     1.0000 0.78985  0.18910  0.85200  Biso   1.000  C
  H305     1.0000 0.79720  0.21110  0.83530  Biso   1.000  H
  H306     1.0000 0.78780  0.17520  0.80530  Biso   1.000  H
  C278     1.0000 0.81536  0.17426  0.90630  Biso   1.000  C
  H307     1.0000 0.83730  0.17650  0.88260  Biso   1.000  H
  H308     1.0000 0.81540  0.18660  0.95550  Biso   1.000  H
  C279     1.0000 0.80881  0.13835  0.92340  Biso   1.000  C
  H309     1.0000 0.80850  0.12600  0.87420  Biso   1.000  H
  H310     1.0000 0.78700  0.13620  0.94760  Biso   1.000  H
  C280     1.0000 0.83455  0.12310  0.97730  Biso   1.000  C
  H311     1.0000 0.85650  0.12530  0.95350  Biso   1.000  H
  H312     1.0000 0.83470  0.13510  0.02710  Biso   1.000  H
  C281     1.0000 0.82720  0.08690  0.99210  Biso   1.000  C
  H313     1.0000 0.80370  0.08420  0.00210  Biso   1.000  H
  H314     1.0000 0.83960  0.07940  0.03700  Biso   1.000  H
  H315     1.0000 0.83340  0.07410  0.94660  Biso   1.000  H
  C282     1.0000 0.76728  0.18515  0.10610  Biso   1.000  C
  H316     1.0000 0.77460  0.20680  0.09600  Biso   1.000  H
  C283     1.0000 0.78760  0.16430  0.14650  Biso   1.000  C
  H317     1.0000 0.80840  0.17160  0.16390  Biso   1.000  H
  C284     1.0000 0.77720  0.13242  0.16150  Biso   1.000  C
  C285     1.0000 0.74705  0.12461  0.13660  Biso   1.000  C
  H318     1.0000 0.73870  0.10340  0.14760  Biso   1.000  H
  C286     1.0000 0.72781  0.14600  0.09590  Biso   1.000  C
  H319     1.0000 0.70690  0.13920  0.07800  Biso   1.000  H
  C287     1.0000 0.79890  0.10979  0.20770  Biso   1.000  C
  H320     1.0000 0.79100  0.08710  0.20120  Biso   1.000  H
  H321     1.0000 0.82140  0.11090  0.18680  Biso   1.000  H
  Mn18     1.0000 0.77987  0.36290  0.72275  Biso   1.000  Mn
  O52      1.0000 0.75831  0.39919  0.68288  Biso   1.000  O
  O53      1.0000 0.70155  0.36759  0.87546  Biso   1.000  O
  O54      1.0000 0.79674  0.32497  0.77602  Biso   1.000  O
  N46      1.0000 0.74495  0.35622  0.79830  Biso   1.000  N
  N47      1.0000 0.74935  0.32813  0.84460  Biso   1.000  N
  N48      1.0000 0.85568  0.05859  0.44310  Biso   1.000  N
  C288     1.0000 0.73405  0.41588  0.71330  Biso   1.000  C
  C289     1.0000 0.72708  0.44637  0.67890  Biso   1.000  C
  H322     1.0000 0.73960  0.45350  0.63590  Biso   1.000  H
  C290     1.0000 0.70235  0.46598  0.70690  Biso   1.000  C
  H323     1.0000 0.69830  0.48660  0.68360  Biso   1.000  H
  C291     1.0000 0.68334  0.45590  0.76850  Biso   1.000  C
  H324     1.0000 0.66610  0.46930  0.78690  Biso   1.000  H
  C292     1.0000 0.68956  0.42654  0.80260  Biso   1.000  C
  H325     1.0000 0.67630  0.41970  0.84470  Biso   1.000  H
  C293     1.0000 0.71495  0.40617  0.77720  Biso   1.000  C
  C294     1.0000 0.72038  0.37521  0.81810  Biso   1.000  C
  C295     1.0000 0.77686  0.31397  0.82780  Biso   1.000  C
  C296     1.0000 0.78779  0.28491  0.87350  Biso   1.000  C
  H326     1.0000 0.76900  0.27590  0.90250  Biso   1.000  H
  H327     1.0000 0.79580  0.26780  0.83770  Biso   1.000  H
  C297     1.0000 0.81610  0.29440  0.93230  Biso   1.000  C
  H328     1.0000 0.83540  0.30180  0.90260  Biso   1.000  H
  H329     1.0000 0.80870  0.31300  0.96450  Biso   1.000  H
  C298     1.0000 0.82710  0.26460  0.98900  Biso   1.000  C
  H330     1.0000 0.83780  0.24720  0.95820  Biso   1.000  H
  H331     1.0000 0.80750  0.25500  0.01400  Biso   1.000  H
  C299     1.0000 0.84740  0.27520  0.04240  Biso   1.000  C
  H332     1.0000 0.86810  0.28380  0.02060  Biso   1.000  H
  H333     1.0000 0.83740  0.29160  0.07730  Biso   1.000  H
  C300     1.0000 0.85180  0.23870  0.08380  Biso   1.000  C
  H334     1.0000 0.83060  0.22770  0.08650  Biso   1.000  H
  H335     1.0000 0.86690  0.22540  0.05300  Biso   1.000  H
  H336     1.0000 0.86060  0.24140  0.13610  Biso   1.000  H
  C301     1.0000 0.86059  0.05641  0.36670  Biso   1.000  C
  H337     1.0000 0.87680  0.04160  0.34840  Biso   1.000  H
  C302     1.0000 0.84345  0.07436  0.31340  Biso   1.000  C
  H338     1.0000 0.84790  0.07210  0.25980  Biso   1.000  H
  C303     1.0000 0.81939  0.09593  0.33910  Biso   1.000  C
  C304     1.0000 0.81399  0.09749  0.41730  Biso   1.000  C
  H339     1.0000 0.79760  0.11160  0.43740  Biso   1.000  H
  C305     1.0000 0.83227  0.07862  0.46640  Biso   1.000  C
  H340     1.0000 0.82790  0.08000  0.52030  Biso   1.000  H
  C306     1.0000 0.79970  0.11700  0.28420  Biso   1.000  C
  H341     1.0000 0.77690  0.11710  0.30300  Biso   1.000  H
  H342     1.0000 0.80800  0.13970  0.28920  Biso   1.000  H
  Mn19     1.0000 0.29115  0.17354  0.93184  Biso   1.000  Mn
  O55      1.0000 0.26400  0.15502  0.00670  Biso   1.000  O
  O56      1.0000 0.27560  0.25450  0.07103  Biso   1.000  O
  O57      1.0000 0.31736  0.19942  0.86152  Biso   1.000  O
  N49      1.0000 0.28665  0.21597  0.98000  Biso   1.000  N
  N50      1.0000 0.30219  0.24180  0.93940  Biso   1.000  N
  C307     1.0000 0.25088  0.16818  0.06950  Biso   1.000  C
  C308     1.0000 0.23022  0.14824  0.11490  Biso   1.000  C
  H343     1.0000 0.22530  0.12660  0.09850  Biso   1.000  H
  C309     1.0000 0.21732  0.15987  0.18230  Biso   1.000  C
  H344     1.0000 0.20400  0.14580  0.21260  Biso   1.000  H
  C310     1.0000 0.22284  0.19115  0.20780  Biso   1.000  C
  H345     1.0000 0.21390  0.19860  0.25530  Biso   1.000  H
  C311     1.0000 0.24192  0.21161  0.16220  Biso   1.000  C
  H346     1.0000 0.24590  0.23340  0.17910  Biso   1.000  H
  C312     1.0000 0.25544  0.20123  0.09250  Biso   1.000  C
  C313     1.0000 0.27348  0.22518  0.04600  Biso   1.000  C
  C314     1.0000 0.31693  0.23052  0.87830  Biso   1.000  C
  C315     1.0000 0.33442  0.25341  0.82500  Biso   1.000  C
  H347     1.0000 0.33220  0.27600  0.84470  Biso   1.000  H
  H348     1.0000 0.32410  0.25250  0.77320  Biso   1.000  H
  C316     1.0000 0.37024  0.24507  0.81750  Biso   1.000  C
  H349     1.0000 0.38020  0.25890  0.77690  Biso   1.000  H
  H350     1.0000 0.37250  0.22200  0.80150  Biso   1.000  H
  C317     1.0000 0.38848  0.25033  0.89350  Biso   1.000  C
  H351     1.0000 0.38450  0.27290  0.91190  Biso   1.000  H
  H352     1.0000 0.37970  0.23510  0.93280  Biso   1.000  H
  C318     1.0000 0.42500  0.24500  0.88580  Biso   1.000  C
  H353     1.0000 0.42900  0.22230  0.86850  Biso   1.000  H
  H354     1.0000 0.43360  0.25990  0.84560  Biso   1.000  H
  C319     1.0000 0.44300  0.25080  0.95940  Biso   1.000  C
  H355     1.0000 0.44880  0.27400  0.96330  Biso   1.000  H
  H356     1.0000 0.46290  0.23750  0.96010  Biso   1.000  H
  H357     1.0000 0.42900  0.24470  0.00320  Biso   1.000  H
  Mn20     1.0000 0.28807  0.28940  0.99670  Biso   1.000  Mn
  O58      1.0000 0.32945  0.29772  0.03670  Biso   1.000  O
  O59      1.0000 0.31698  0.36474  0.85026  Biso   1.000  O
  O60      1.0000 0.24633  0.28661  0.94429  Biso   1.000  O
  N51      1.0000 0.29364  0.32373  0.92060  Biso   1.000  N
  N52      1.0000 0.26611  0.32847  0.87180  Biso   1.000  N
  N53      1.0000 0.26173  0.32350  0.08120  Biso   1.000  N
  C320     1.0000 0.35023  0.32156  0.01970  Biso   1.000  C
  C321     1.0000 0.37860  0.32374  0.06580  Biso   1.000  C
  H358     1.0000 0.38220  0.30820  0.10580  Biso   1.000  H
  C322     1.0000 0.40129  0.34845  0.05310  Biso   1.000  C
  H359     1.0000 0.42010  0.34980  0.08510  Biso   1.000  H
  C323     1.0000 0.39694  0.37102  0.99500  Biso   1.000  C
  H360     1.0000 0.41240  0.38800  0.98700  Biso   1.000  H
  C324     1.0000 0.37005  0.36842  0.94900  Biso   1.000  C
  H361     1.0000 0.36720  0.38380  0.90850  Biso   1.000  H
  C325     1.0000 0.34632  0.34398  0.95890  Biso   1.000  C
  C326     1.0000 0.31772  0.34433  0.90620  Biso   1.000  C
  C327     1.0000 0.24288  0.30808  0.89040  Biso   1.000  C
  C328     1.0000 0.21015  0.31090  0.85200  Biso   1.000  C
  H362     1.0000 0.20280  0.28890  0.83530  Biso   1.000  H
  H363     1.0000 0.21220  0.32480  0.80530  Biso   1.000  H
  C329     1.0000 0.18464  0.32574  0.90630  Biso   1.000  C
  H364     1.0000 0.16270  0.32350  0.88260  Biso   1.000  H
  H365     1.0000 0.18460  0.31340  0.95550  Biso   1.000  H
  C330     1.0000 0.19119  0.36165  0.92340  Biso   1.000  C
  H366     1.0000 0.19150  0.37400  0.87420  Biso   1.000  H
  H367     1.0000 0.21300  0.36380  0.94760  Biso   1.000  H
  C331     1.0000 0.16545  0.37690  0.97730  Biso   1.000  C
  H368     1.0000 0.14350  0.37470  0.95350  Biso   1.000  H
  H369     1.0000 0.16530  0.36490  0.02710  Biso   1.000  H
  C332     1.0000 0.17280  0.41310  0.99210  Biso   1.000  C
  H370     1.0000 0.19630  0.41580  0.00210  Biso   1.000  H
  H371     1.0000 0.16040  0.42060  0.03700  Biso   1.000  H
  H372     1.0000 0.16660  0.42590  0.94660  Biso   1.000  H
  C333     1.0000 0.23272  0.31485  0.10610  Biso   1.000  C
  H373     1.0000 0.22540  0.29320  0.09600  Biso   1.000  H
  C334     1.0000 0.21240  0.33570  0.14650  Biso   1.000  C
  H374     1.0000 0.19160  0.32840  0.16390  Biso   1.000  H
  C335     1.0000 0.22280  0.36758  0.16150  Biso   1.000  C
  C336     1.0000 0.25295  0.37539  0.13660  Biso   1.000  C
  H375     1.0000 0.26130  0.39660  0.14760  Biso   1.000  H
  C337     1.0000 0.27219  0.35400  0.09590  Biso   1.000  C
  H376     1.0000 0.29310  0.36080  0.07800  Biso   1.000  H
  C338     1.0000 0.20110  0.39021  0.20770  Biso   1.000  C
  H377     1.0000 0.20900  0.41290  0.20120  Biso   1.000  H
  H378     1.0000 0.17860  0.38910  0.18680  Biso   1.000  H
  Mn21     1.0000 0.22013  0.13710  0.72275  Biso   1.000  Mn
  O61      1.0000 0.24169  0.10081  0.68288  Biso   1.000  O
  O62      1.0000 0.29845  0.13241  0.87546  Biso   1.000  O
  O63      1.0000 0.20326  0.17503  0.77602  Biso   1.000  O
  N54      1.0000 0.25505  0.14378  0.79830  Biso   1.000  N
  N55      1.0000 0.25065  0.17187  0.84460  Biso   1.000  N
  N56      1.0000 0.14432  0.44141  0.44310  Biso   1.000  N
  C339     1.0000 0.26595  0.08412  0.71330  Biso   1.000  C
  C340     1.0000 0.27292  0.05363  0.67890  Biso   1.000  C
  H379     1.0000 0.26040  0.04650  0.63590  Biso   1.000  H
  C341     1.0000 0.29765  0.03402  0.70690  Biso   1.000  C
  H380     1.0000 0.30170  0.01340  0.68360  Biso   1.000  H
  C342     1.0000 0.31666  0.04410  0.76850  Biso   1.000  C
  H381     1.0000 0.33390  0.03070  0.78690  Biso   1.000  H
  C343     1.0000 0.31044  0.07346  0.80260  Biso   1.000  C
  H382     1.0000 0.32370  0.08030  0.84470  Biso   1.000  H
  C344     1.0000 0.28505  0.09383  0.77720  Biso   1.000  C
  C345     1.0000 0.27962  0.12479  0.81810  Biso   1.000  C
  C346     1.0000 0.22314  0.18603  0.82780  Biso   1.000  C
  C347     1.0000 0.21221  0.21509  0.87350  Biso   1.000  C
  H383     1.0000 0.23100  0.22410  0.90250  Biso   1.000  H
  H384     1.0000 0.20420  0.23220  0.83770  Biso   1.000  H
  C348     1.0000 0.18390  0.20560  0.93230  Biso   1.000  C
  H385     1.0000 0.16460  0.19820  0.90260  Biso   1.000  H
  H386     1.0000 0.19130  0.18700  0.96450  Biso   1.000  H
  C349     1.0000 0.17290  0.23540  0.98900  Biso   1.000  C
  H387     1.0000 0.16220  0.25280  0.95820  Biso   1.000  H
  H388     1.0000 0.19250  0.24500  0.01400  Biso   1.000  H
  C350     1.0000 0.15260  0.22480  0.04240  Biso   1.000  C
  H389     1.0000 0.13190  0.21620  0.02060  Biso   1.000  H
  H390     1.0000 0.16260  0.20840  0.07730  Biso   1.000  H
  C351     1.0000 0.14820  0.26130  0.08380  Biso   1.000  C
  H391     1.0000 0.16940  0.27230  0.08650  Biso   1.000  H
  H392     1.0000 0.13310  0.27460  0.05300  Biso   1.000  H
  H393     1.0000 0.13940  0.25860  0.13610  Biso   1.000  H
  C352     1.0000 0.13941  0.44359  0.36670  Biso   1.000  C
  H394     1.0000 0.12320  0.45840  0.34840  Biso   1.000  H
  C353     1.0000 0.15655  0.42564  0.31340  Biso   1.000  C
  H395     1.0000 0.15210  0.42790  0.25980  Biso   1.000  H
  C354     1.0000 0.18061  0.40407  0.33910  Biso   1.000  C
  C355     1.0000 0.18601  0.40251  0.41730  Biso   1.000  C
  H396     1.0000 0.20240  0.38840  0.43740  Biso   1.000  H
  C356     1.0000 0.16773  0.42138  0.46640  Biso   1.000  C
  H397     1.0000 0.17210  0.42000  0.52030  Biso   1.000  H
  C357     1.0000 0.20030  0.38300  0.28420  Biso   1.000  C
  H398     1.0000 0.22310  0.38290  0.30300  Biso   1.000  H
  H399     1.0000 0.19200  0.36030  0.28920  Biso   1.000  H
  Mn22     1.0000 0.79115  0.67354  0.43184  Biso   1.000  Mn
  O64      1.0000 0.76400  0.65502  0.50670  Biso   1.000  O
  O65      1.0000 0.77560  0.75450  0.57103  Biso   1.000  O
  O66      1.0000 0.81736  0.69942  0.36152  Biso   1.000  O
  N57      1.0000 0.78665  0.71597  0.48000  Biso   1.000  N
  N58      1.0000 0.80219  0.74180  0.43940  Biso   1.000  N
  C358     1.0000 0.75088  0.66818  0.56950  Biso   1.000  C
  C359     1.0000 0.73022  0.64824  0.61490  Biso   1.000  C
  H400     1.0000 0.72530  0.62660  0.59850  Biso   1.000  H
  C360     1.0000 0.71732  0.65987  0.68230  Biso   1.000  C
  H401     1.0000 0.70400  0.64580  0.71260  Biso   1.000  H
  C361     1.0000 0.72284  0.69115  0.70780  Biso   1.000  C
  H402     1.0000 0.71390  0.69860  0.75530  Biso   1.000  H
  C362     1.0000 0.74192  0.71161  0.66220  Biso   1.000  C
  H403     1.0000 0.74590  0.73340  0.67910  Biso   1.000  H
  C363     1.0000 0.75544  0.70123  0.59250  Biso   1.000  C
  C364     1.0000 0.77348  0.72518  0.54600  Biso   1.000  C
  C365     1.0000 0.81693  0.73052  0.37830  Biso   1.000  C
  C366     1.0000 0.83442  0.75341  0.32500  Biso   1.000  C
  H404     1.0000 0.83220  0.77600  0.34470  Biso   1.000  H
  H405     1.0000 0.82410  0.75250  0.27320  Biso   1.000  H
  C367     1.0000 0.87024  0.74507  0.31750  Biso   1.000  C
  H406     1.0000 0.88020  0.75890  0.27690  Biso   1.000  H
  H407     1.0000 0.87250  0.72200  0.30150  Biso   1.000  H
  C368     1.0000 0.88848  0.75033  0.39350  Biso   1.000  C
  H408     1.0000 0.88450  0.77290  0.41190  Biso   1.000  H
  H409     1.0000 0.87970  0.73510  0.43280  Biso   1.000  H
  C369     1.0000 0.92500  0.74500  0.38580  Biso   1.000  C
  H410     1.0000 0.92900  0.72230  0.36850  Biso   1.000  H
  H411     1.0000 0.93360  0.75990  0.34560  Biso   1.000  H
  C370     1.0000 0.94300  0.75080  0.45940  Biso   1.000  C
  H412     1.0000 0.94880  0.77400  0.46330  Biso   1.000  H
  H413     1.0000 0.96290  0.73750  0.46010  Biso   1.000  H
  H414     1.0000 0.92900  0.74470  0.50320  Biso   1.000  H
  Mn23     1.0000 0.78807  0.78940  0.49670  Biso   1.000  Mn
  O67      1.0000 0.82945  0.79772  0.53670  Biso   1.000  O
  O68      1.0000 0.81698  0.86474  0.35026  Biso   1.000  O
  O69      1.0000 0.74633  0.78661  0.44429  Biso   1.000  O
  N59      1.0000 0.79364  0.82373  0.42060  Biso   1.000  N
  N60      1.0000 0.76611  0.82847  0.37180  Biso   1.000  N
  N61      1.0000 0.76173  0.82350  0.58120  Biso   1.000  N
  C371     1.0000 0.85023  0.82156  0.51970  Biso   1.000  C
  C372     1.0000 0.87860  0.82374  0.56580  Biso   1.000  C
  H415     1.0000 0.88220  0.80820  0.60580  Biso   1.000  H
  C373     1.0000 0.90129  0.84845  0.55310  Biso   1.000  C
  H416     1.0000 0.92010  0.84980  0.58510  Biso   1.000  H
  C374     1.0000 0.89694  0.87102  0.49500  Biso   1.000  C
  H417     1.0000 0.91240  0.88800  0.48700  Biso   1.000  H
  C375     1.0000 0.87005  0.86842  0.44900  Biso   1.000  C
  H418     1.0000 0.86720  0.88380  0.40850  Biso   1.000  H
  C376     1.0000 0.84632  0.84398  0.45890  Biso   1.000  C
  C377     1.0000 0.81772  0.84433  0.40620  Biso   1.000  C
  C378     1.0000 0.74288  0.80808  0.39040  Biso   1.000  C
  C379     1.0000 0.71015  0.81090  0.35200  Biso   1.000  C
  H419     1.0000 0.70280  0.78890  0.33530  Biso   1.000  H
  H420     1.0000 0.71220  0.82480  0.30530  Biso   1.000  H
  C380     1.0000 0.68464  0.82574  0.40630  Biso   1.000  C
  H421     1.0000 0.66270  0.82350  0.38260  Biso   1.000  H
  H422     1.0000 0.68460  0.81340  0.45550  Biso   1.000  H
  C381     1.0000 0.69119  0.86165  0.42340  Biso   1.000  C
  H423     1.0000 0.69150  0.87400  0.37420  Biso   1.000  H
  H424     1.0000 0.71300  0.86380  0.44760  Biso   1.000  H
  C382     1.0000 0.66545  0.87690  0.47730  Biso   1.000  C
  H425     1.0000 0.64350  0.87470  0.45350  Biso   1.000  H
  H426     1.0000 0.66530  0.86490  0.52710  Biso   1.000  H
  C383     1.0000 0.67280  0.91310  0.49210  Biso   1.000  C
  H427     1.0000 0.69630  0.91580  0.50210  Biso   1.000  H
  H428     1.0000 0.66040  0.92060  0.53700  Biso   1.000  H
  H429     1.0000 0.66660  0.92590  0.44660  Biso   1.000  H
  C384     1.0000 0.73272  0.81485  0.60610  Biso   1.000  C
  H430     1.0000 0.72540  0.79320  0.59600  Biso   1.000  H
  C385     1.0000 0.71240  0.83570  0.64650  Biso   1.000  C
  H431     1.0000 0.69160  0.82840  0.66390  Biso   1.000  H
  C386     1.0000 0.72280  0.86758  0.66150  Biso   1.000  C
  C387     1.0000 0.75295  0.87539  0.63660  Biso   1.000  C
  H432     1.0000 0.76130  0.89660  0.64760  Biso   1.000  H
  C388     1.0000 0.77219  0.85400  0.59590  Biso   1.000  C
  H433     1.0000 0.79310  0.86080  0.57800  Biso   1.000  H
  C389     1.0000 0.70110  0.89021  0.70770  Biso   1.000  C
  H434     1.0000 0.70900  0.91290  0.70120  Biso   1.000  H
  H435     1.0000 0.67860  0.88910  0.68680  Biso   1.000  H
  Mn24     1.0000 0.72013  0.63710  0.22275  Biso   1.000  Mn
  O70      1.0000 0.74169  0.60081  0.18288  Biso   1.000  O
  O71      1.0000 0.79845  0.63241  0.37546  Biso   1.000  O
  O72      1.0000 0.70326  0.67503  0.27602  Biso   1.000  O
  N62      1.0000 0.75505  0.64378  0.29830  Biso   1.000  N
  N63      1.0000 0.75065  0.67187  0.34460  Biso   1.000  N
  N64      1.0000 0.64432  0.94141  0.94310  Biso   1.000  N
  C390     1.0000 0.76595  0.58412  0.21330  Biso   1.000  C
  C391     1.0000 0.77292  0.55363  0.17890  Biso   1.000  C
  H436     1.0000 0.76040  0.54650  0.13590  Biso   1.000  H
  C392     1.0000 0.79765  0.53402  0.20690  Biso   1.000  C
  H437     1.0000 0.80170  0.51340  0.18360  Biso   1.000  H
  C393     1.0000 0.81666  0.54410  0.26850  Biso   1.000  C
  H438     1.0000 0.83390  0.53070  0.28690  Biso   1.000  H
  C394     1.0000 0.81044  0.57346  0.30260  Biso   1.000  C
  H439     1.0000 0.82370  0.58030  0.34470  Biso   1.000  H
  C395     1.0000 0.78505  0.59383  0.27720  Biso   1.000  C
  C396     1.0000 0.77962  0.62479  0.31810  Biso   1.000  C
  C397     1.0000 0.72314  0.68603  0.32780  Biso   1.000  C
  C398     1.0000 0.71221  0.71509  0.37350  Biso   1.000  C
  H440     1.0000 0.73100  0.72410  0.40250  Biso   1.000  H
  H441     1.0000 0.70420  0.73220  0.33770  Biso   1.000  H
  C399     1.0000 0.68390  0.70560  0.43230  Biso   1.000  C
  H442     1.0000 0.66460  0.69820  0.40260  Biso   1.000  H
  H443     1.0000 0.69130  0.68700  0.46450  Biso   1.000  H
  C400     1.0000 0.67290  0.73540  0.48900  Biso   1.000  C
  H444     1.0000 0.66220  0.75280  0.45820  Biso   1.000  H
  H445     1.0000 0.69250  0.74500  0.51400  Biso   1.000  H
  C401     1.0000 0.65260  0.72480  0.54240  Biso   1.000  C
  H446     1.0000 0.63190  0.71620  0.52060  Biso   1.000  H
  H447     1.0000 0.66260  0.70840  0.57730  Biso   1.000  H
  C402     1.0000 0.64820  0.76130  0.58380  Biso   1.000  C
  H448     1.0000 0.66940  0.77230  0.58650  Biso   1.000  H
  H449     1.0000 0.63310  0.77460  0.55300  Biso   1.000  H
  H450     1.0000 0.63940  0.75860  0.63610  Biso   1.000  H
  C403     1.0000 0.63941  0.94359  0.86670  Biso   1.000  C
  H451     1.0000 0.62320  0.95840  0.84840  Biso   1.000  H
  C404     1.0000 0.65655  0.92564  0.81340  Biso   1.000  C
  H452     1.0000 0.65210  0.92790  0.75980  Biso   1.000  H
  C405     1.0000 0.68061  0.90407  0.83910  Biso   1.000  C
  C406     1.0000 0.68601  0.90251  0.91730  Biso   1.000  C
  H453     1.0000 0.70240  0.88840  0.93740  Biso   1.000  H
  C407     1.0000 0.66773  0.92138  0.96640  Biso   1.000  C
  H454     1.0000 0.67210  0.92000  0.02030  Biso   1.000  H
  C408     1.0000 0.70030  0.88300  0.78420  Biso   1.000  C
  H455     1.0000 0.72310  0.88290  0.80300  Biso   1.000  H
  H456     1.0000 0.69200  0.86030  0.78920  Biso   1.000  H
  Mn25     1.0000 0.42354  0.45885  0.81816  Biso   1.000  Mn
  O73      1.0000 0.40502  0.48600  0.74330  Biso   1.000  O
  O74      1.0000 0.50450  0.47440  0.67897  Biso   1.000  O
  O75      1.0000 0.44942  0.43264  0.88848  Biso   1.000  O
  N65      1.0000 0.46597  0.46335  0.77000  Biso   1.000  N
  N66      1.0000 0.49180  0.44781  0.81060  Biso   1.000  N
  C409     1.0000 0.41818  0.49912  0.68050  Biso   1.000  C
  C410     1.0000 0.39824  0.51978  0.63510  Biso   1.000  C
  H457     1.0000 0.37660  0.52470  0.65150  Biso   1.000  H
  C411     1.0000 0.40987  0.53268  0.56770  Biso   1.000  C
  H458     1.0000 0.39580  0.54600  0.53740  Biso   1.000  H
  C412     1.0000 0.44115  0.52716  0.54220  Biso   1.000  C
  H459     1.0000 0.44860  0.53610  0.49470  Biso   1.000  H
  C413     1.0000 0.46161  0.50808  0.58780  Biso   1.000  C
  H460     1.0000 0.48340  0.50410  0.57090  Biso   1.000  H
  C414     1.0000 0.45123  0.49456  0.65750  Biso   1.000  C
  C415     1.0000 0.47518  0.47652  0.70400  Biso   1.000  C
  C416     1.0000 0.48052  0.43307  0.87170  Biso   1.000  C
  C417     1.0000 0.50341  0.41558  0.92500  Biso   1.000  C
  H461     1.0000 0.52600  0.41780  0.90530  Biso   1.000  H
  H462     1.0000 0.50250  0.42590  0.97680  Biso   1.000  H
  C418     1.0000 0.49507  0.37976  0.93250  Biso   1.000  C
  H463     1.0000 0.50890  0.36980  0.97310  Biso   1.000  H
  H464     1.0000 0.47200  0.37750  0.94850  Biso   1.000  H
  C419     1.0000 0.50033  0.36152  0.85650  Biso   1.000  C
  H465     1.0000 0.52290  0.36550  0.83810  Biso   1.000  H
  H466     1.0000 0.48510  0.37030  0.81720  Biso   1.000  H
  C420     1.0000 0.49500  0.32500  0.86420  Biso   1.000  C
  H467     1.0000 0.47230  0.32100  0.88150  Biso   1.000  H
  H468     1.0000 0.50990  0.31640  0.90440  Biso   1.000  H
  C421     1.0000 0.50080  0.30700  0.79060  Biso   1.000  C
  H469     1.0000 0.52400  0.30120  0.78670  Biso   1.000  H
  H470     1.0000 0.48750  0.28710  0.78990  Biso   1.000  H
  H471     1.0000 0.49470  0.32100  0.74680  Biso   1.000  H
  Mn26     1.0000 0.53940  0.46193  0.75330  Biso   1.000  Mn
  O76      1.0000 0.54772  0.42055  0.71330  Biso   1.000  O
  O77      1.0000 0.61474  0.43302  0.89974  Biso   1.000  O
  O78      1.0000 0.53661  0.50367  0.80571  Biso   1.000  O
  N67      1.0000 0.57373  0.45636  0.82940  Biso   1.000  N
  N68      1.0000 0.57847  0.48389  0.87820  Biso   1.000  N
  N69      1.0000 0.57350  0.48827  0.66880  Biso   1.000  N
  C422     1.0000 0.57156  0.39977  0.73030  Biso   1.000  C
  C423     1.0000 0.57374  0.37140  0.68420  Biso   1.000  C
  H472     1.0000 0.55820  0.36780  0.64420  Biso   1.000  H
  C424     1.0000 0.59845  0.34871  0.69690  Biso   1.000  C
  H473     1.0000 0.59980  0.32990  0.66490  Biso   1.000  H
  C425     1.0000 0.62102  0.35306  0.75500  Biso   1.000  C
  H474     1.0000 0.63800  0.33760  0.76300  Biso   1.000  H
  C426     1.0000 0.61842  0.37995  0.80100  Biso   1.000  C
  H475     1.0000 0.63380  0.38280  0.84150  Biso   1.000  H
  C427     1.0000 0.59398  0.40368  0.79110  Biso   1.000  C
  C428     1.0000 0.59433  0.43228  0.84380  Biso   1.000  C
  C429     1.0000 0.55808  0.50712  0.85960  Biso   1.000  C
  C430     1.0000 0.56090  0.53985  0.89800  Biso   1.000  C
  H476     1.0000 0.53890  0.54720  0.91470  Biso   1.000  H
  H477     1.0000 0.57480  0.53780  0.94470  Biso   1.000  H
  C431     1.0000 0.57574  0.56536  0.84370  Biso   1.000  C
  H478     1.0000 0.57350  0.58730  0.86740  Biso   1.000  H
  H479     1.0000 0.56340  0.56540  0.79450  Biso   1.000  H
  C432     1.0000 0.61165  0.55881  0.82660  Biso   1.000  C
  H480     1.0000 0.62400  0.55850  0.87580  Biso   1.000  H
  H481     1.0000 0.61380  0.53700  0.80240  Biso   1.000  H
  C433     1.0000 0.62690  0.58455  0.77270  Biso   1.000  C
  H482     1.0000 0.62470  0.60650  0.79650  Biso   1.000  H
  H483     1.0000 0.61490  0.58470  0.72290  Biso   1.000  H
  C434     1.0000 0.66310  0.57720  0.75790  Biso   1.000  C
  H484     1.0000 0.66580  0.55370  0.74790  Biso   1.000  H
  H485     1.0000 0.67060  0.58960  0.71300  Biso   1.000  H
  H486     1.0000 0.67590  0.58340  0.80340  Biso   1.000  H
  C435     1.0000 0.56485  0.51728  0.64390  Biso   1.000  C
  H487     1.0000 0.54320  0.52460  0.65400  Biso   1.000  H
  C436     1.0000 0.58570  0.53760  0.60350  Biso   1.000  C
  H488     1.0000 0.57840  0.55840  0.58610  Biso   1.000  H
  C437     1.0000 0.61758  0.52720  0.58850  Biso   1.000  C
  C438     1.0000 0.62539  0.49705  0.61340  Biso   1.000  C
  H489     1.0000 0.64660  0.48870  0.60240  Biso   1.000  H
  C439     1.0000 0.60400  0.47781  0.65410  Biso   1.000  C
  H490     1.0000 0.61080  0.45690  0.67200  Biso   1.000  H
  C440     1.0000 0.64021  0.54890  0.54230  Biso   1.000  C
  H491     1.0000 0.66290  0.54100  0.54880  Biso   1.000  H
  H492     1.0000 0.63910  0.57140  0.56320  Biso   1.000  H
  Mn27     1.0000 0.38710  0.52987  0.02725  Biso   1.000  Mn
  O79      1.0000 0.35081  0.50831  0.06712  Biso   1.000  O
  O80      1.0000 0.38241  0.45155  0.87454  Biso   1.000  O
  O81      1.0000 0.42503  0.54674  0.97398  Biso   1.000  O
  N70      1.0000 0.39378  0.49495  0.95170  Biso   1.000  N
  N71      1.0000 0.42187  0.49935  0.90540  Biso   1.000  N
  N72      1.0000 0.69141  0.60568  0.30690  Biso   1.000  N
  C441     1.0000 0.33412  0.48405  0.03670  Biso   1.000  C
  C442     1.0000 0.30363  0.47708  0.07110  Biso   1.000  C
  H493     1.0000 0.29650  0.48960  0.11410  Biso   1.000  H
  C443     1.0000 0.28402  0.45235  0.04310  Biso   1.000  C
  H494     1.0000 0.26340  0.44830  0.06640  Biso   1.000  H
  C444     1.0000 0.29410  0.43334  0.98150  Biso   1.000  C
  H495     1.0000 0.28070  0.41610  0.96310  Biso   1.000  H
  C445     1.0000 0.32346  0.43956  0.94740  Biso   1.000  C
  H496     1.0000 0.33030  0.42630  0.90530  Biso   1.000  H
  C446     1.0000 0.34383  0.46495  0.97280  Biso   1.000  C
  C447     1.0000 0.37479  0.47038  0.93190  Biso   1.000  C
  C448     1.0000 0.43603  0.52686  0.92220  Biso   1.000  C
  C449     1.0000 0.46509  0.53779  0.87650  Biso   1.000  C
  H497     1.0000 0.47410  0.51900  0.84750  Biso   1.000  H
  H498     1.0000 0.48220  0.54580  0.91230  Biso   1.000  H
  C450     1.0000 0.45560  0.56610  0.81770  Biso   1.000  C
  H499     1.0000 0.44820  0.58540  0.84740  Biso   1.000  H
  H500     1.0000 0.43700  0.55870  0.78550  Biso   1.000  H
  C451     1.0000 0.48540  0.57710  0.76100  Biso   1.000  C
  H501     1.0000 0.50280  0.58780  0.79180  Biso   1.000  H
  H502     1.0000 0.49500  0.55750  0.73600  Biso   1.000  H
  C452     1.0000 0.47480  0.59740  0.70760  Biso   1.000  C
  H503     1.0000 0.46620  0.61810  0.72940  Biso   1.000  H
  H504     1.0000 0.45840  0.58740  0.67270  Biso   1.000  H
  C453     1.0000 0.51130  0.60180  0.66620  Biso   1.000  C
  H505     1.0000 0.52230  0.58060  0.66350  Biso   1.000  H
  H506     1.0000 0.52460  0.61690  0.69700  Biso   1.000  H
  H507     1.0000 0.50860  0.61060  0.61390  Biso   1.000  H
  C454     1.0000 0.69359  0.61059  0.38330  Biso   1.000  C
  H508     1.0000 0.70840  0.62680  0.40160  Biso   1.000  H
  C455     1.0000 0.67564  0.59345  0.43660  Biso   1.000  C
  H509     1.0000 0.67790  0.59790  0.49020  Biso   1.000  H
  C456     1.0000 0.65407  0.56939  0.41090  Biso   1.000  C
  C457     1.0000 0.65251  0.56399  0.33270  Biso   1.000  C
  H510     1.0000 0.63840  0.54760  0.31260  Biso   1.000  H
  C458     1.0000 0.67138  0.58227  0.28360  Biso   1.000  C
  H511     1.0000 0.67000  0.57790  0.22970  Biso   1.000  H
  C459     1.0000 0.63300  0.54970  0.46580  Biso   1.000  C
  H512     1.0000 0.63290  0.52690  0.44700  Biso   1.000  H
  H513     1.0000 0.61030  0.55800  0.46080  Biso   1.000  H
  Mn28     1.0000 0.92354  0.95885  0.31816  Biso   1.000  Mn
  O82      1.0000 0.90502  0.98600  0.24330  Biso   1.000  O
  O83      1.0000 0.00450  0.97440  0.17897  Biso   1.000  O
  O84      1.0000 0.94942  0.93264  0.38848  Biso   1.000  O
  N73      1.0000 0.96597  0.96335  0.27000  Biso   1.000  N
  N74      1.0000 0.99180  0.94781  0.31060  Biso   1.000  N
  C460     1.0000 0.91818  0.99912  0.18050  Biso   1.000  C
  C461     1.0000 0.89824  0.01978  0.13510  Biso   1.000  C
  H514     1.0000 0.87660  0.02470  0.15150  Biso   1.000  H
  C462     1.0000 0.90987  0.03268  0.06770  Biso   1.000  C
  H515     1.0000 0.89580  0.04600  0.03740  Biso   1.000  H
  C463     1.0000 0.94115  0.02716  0.04220  Biso   1.000  C
  H516     1.0000 0.94860  0.03610  0.99470  Biso   1.000  H
  C464     1.0000 0.96161  0.00808  0.08780  Biso   1.000  C
  H517     1.0000 0.98340  0.00410  0.07090  Biso   1.000  H
  C465     1.0000 0.95123  0.99456  0.15750  Biso   1.000  C
  C466     1.0000 0.97518  0.97652  0.20400  Biso   1.000  C
  C467     1.0000 0.98052  0.93307  0.37170  Biso   1.000  C
  C468     1.0000 0.00341  0.91558  0.42500  Biso   1.000  C
  H518     1.0000 0.02600  0.91780  0.40530  Biso   1.000  H
  H519     1.0000 0.00250  0.92590  0.47680  Biso   1.000  H
  C469     1.0000 0.99507  0.87976  0.43250  Biso   1.000  C
  H520     1.0000 0.00890  0.86980  0.47310  Biso   1.000  H
  H521     1.0000 0.97200  0.87750  0.44850  Biso   1.000  H
  C470     1.0000 0.00033  0.86152  0.35650  Biso   1.000  C
  H522     1.0000 0.02290  0.86550  0.33810  Biso   1.000  H
  H523     1.0000 0.98510  0.87030  0.31720  Biso   1.000  H
  C471     1.0000 0.99500  0.82500  0.36420  Biso   1.000  C
  H524     1.0000 0.97230  0.82100  0.38150  Biso   1.000  H
  H525     1.0000 0.00990  0.81640  0.40440  Biso   1.000  H
  C472     1.0000 0.00080  0.80700  0.29060  Biso   1.000  C
  H526     1.0000 0.02400  0.80120  0.28670  Biso   1.000  H
  H527     1.0000 0.98750  0.78710  0.28990  Biso   1.000  H
  H528     1.0000 0.99470  0.82100  0.24680  Biso   1.000  H
  Mn29     1.0000 0.03940  0.96193  0.25330  Biso   1.000  Mn
  O85      1.0000 0.04772  0.92055  0.21330  Biso   1.000  O
  O86      1.0000 0.11474  0.93302  0.39974  Biso   1.000  O
  O87      1.0000 0.03661  0.00367  0.30571  Biso   1.000  O
  N75      1.0000 0.07373  0.95636  0.32940  Biso   1.000  N
  N76      1.0000 0.07847  0.98389  0.37820  Biso   1.000  N
  N77      1.0000 0.07350  0.98827  0.16880  Biso   1.000  N
  C473     1.0000 0.07156  0.89977  0.23030  Biso   1.000  C
  C474     1.0000 0.07374  0.87140  0.18420  Biso   1.000  C
  H529     1.0000 0.05820  0.86780  0.14420  Biso   1.000  H
  C475     1.0000 0.09845  0.84871  0.19690  Biso   1.000  C
  H530     1.0000 0.09980  0.82990  0.16490  Biso   1.000  H
  C476     1.0000 0.12102  0.85306  0.25500  Biso   1.000  C
  H531     1.0000 0.13800  0.83760  0.26300  Biso   1.000  H
  C477     1.0000 0.11842  0.87995  0.30100  Biso   1.000  C
  H532     1.0000 0.13380  0.88280  0.34150  Biso   1.000  H
  C478     1.0000 0.09398  0.90368  0.29110  Biso   1.000  C
  C479     1.0000 0.09433  0.93228  0.34380  Biso   1.000  C
  C480     1.0000 0.05808  0.00712  0.35960  Biso   1.000  C
  C481     1.0000 0.06090  0.03985  0.39800  Biso   1.000  C
  H533     1.0000 0.03890  0.04720  0.41470  Biso   1.000  H
  H534     1.0000 0.07480  0.03780  0.44470  Biso   1.000  H
  C482     1.0000 0.07574  0.06536  0.34370  Biso   1.000  C
  H535     1.0000 0.07350  0.08730  0.36740  Biso   1.000  H
  H536     1.0000 0.06340  0.06540  0.29450  Biso   1.000  H
  C483     1.0000 0.11165  0.05881  0.32660  Biso   1.000  C
  H537     1.0000 0.12400  0.05850  0.37580  Biso   1.000  H
  H538     1.0000 0.11380  0.03700  0.30240  Biso   1.000  H
  C484     1.0000 0.12690  0.08455  0.27270  Biso   1.000  C
  H539     1.0000 0.12470  0.10650  0.29650  Biso   1.000  H
  H540     1.0000 0.11490  0.08470  0.22290  Biso   1.000  H
  C485     1.0000 0.16310  0.07720  0.25790  Biso   1.000  C
  H541     1.0000 0.16580  0.05370  0.24790  Biso   1.000  H
  H542     1.0000 0.17060  0.08960  0.21300  Biso   1.000  H
  H543     1.0000 0.17590  0.08340  0.30340  Biso   1.000  H
  C486     1.0000 0.06485  0.01728  0.14390  Biso   1.000  C
  H544     1.0000 0.04320  0.02460  0.15400  Biso   1.000  H
  C487     1.0000 0.08570  0.03760  0.10350  Biso   1.000  C
  H545     1.0000 0.07840  0.05840  0.08610  Biso   1.000  H
  C488     1.0000 0.11758  0.02720  0.08850  Biso   1.000  C
  C489     1.0000 0.12539  0.99705  0.11340  Biso   1.000  C
  H546     1.0000 0.14660  0.98870  0.10240  Biso   1.000  H
  C490     1.0000 0.10400  0.97781  0.15410  Biso   1.000  C
  H547     1.0000 0.11080  0.95690  0.17200  Biso   1.000  H
  C491     1.0000 0.14021  0.04890  0.04230  Biso   1.000  C
  H548     1.0000 0.16290  0.04100  0.04880  Biso   1.000  H
  H549     1.0000 0.13910  0.07140  0.06320  Biso   1.000  H
  Mn30     1.0000 0.88710  0.02987  0.52725  Biso   1.000  Mn
  O88      1.0000 0.85081  0.00831  0.56712  Biso   1.000  O
  O89      1.0000 0.88241  0.95155  0.37454  Biso   1.000  O
  O90      1.0000 0.92503  0.04674  0.47398  Biso   1.000  O
  N78      1.0000 0.89378  0.99495  0.45170  Biso   1.000  N
  N79      1.0000 0.92187  0.99935  0.40540  Biso   1.000  N
  N80      1.0000 0.19141  0.10568  0.80690  Biso   1.000  N
  C492     1.0000 0.83412  0.98405  0.53670  Biso   1.000  C
  C493     1.0000 0.80363  0.97708  0.57110  Biso   1.000  C
  H550     1.0000 0.79650  0.98960  0.61410  Biso   1.000  H
  C494     1.0000 0.78402  0.95235  0.54310  Biso   1.000  C
  H551     1.0000 0.76340  0.94830  0.56640  Biso   1.000  H
  C495     1.0000 0.79410  0.93334  0.48150  Biso   1.000  C
  H552     1.0000 0.78070  0.91610  0.46310  Biso   1.000  H
  C496     1.0000 0.82346  0.93956  0.44740  Biso   1.000  C
  H553     1.0000 0.83030  0.92630  0.40530  Biso   1.000  H
  C497     1.0000 0.84383  0.96495  0.47280  Biso   1.000  C
  C498     1.0000 0.87479  0.97038  0.43190  Biso   1.000  C
  C499     1.0000 0.93603  0.02686  0.42220  Biso   1.000  C
  C500     1.0000 0.96509  0.03779  0.37650  Biso   1.000  C
  H554     1.0000 0.97410  0.01900  0.34750  Biso   1.000  H
  H555     1.0000 0.98220  0.04580  0.41230  Biso   1.000  H
  C501     1.0000 0.95560  0.06610  0.31770  Biso   1.000  C
  H556     1.0000 0.94820  0.08540  0.34740  Biso   1.000  H
  H557     1.0000 0.93700  0.05870  0.28550  Biso   1.000  H
  C502     1.0000 0.98540  0.07710  0.26100  Biso   1.000  C
  H558     1.0000 0.00280  0.08780  0.29180  Biso   1.000  H
  H559     1.0000 0.99500  0.05750  0.23600  Biso   1.000  H
  C503     1.0000 0.97480  0.09740  0.20760  Biso   1.000  C
  H560     1.0000 0.96620  0.11810  0.22940  Biso   1.000  H
  H561     1.0000 0.95840  0.08740  0.17270  Biso   1.000  H
  C504     1.0000 0.01130  0.10180  0.16620  Biso   1.000  C
  H562     1.0000 0.02230  0.08060  0.16350  Biso   1.000  H
  H563     1.0000 0.02460  0.11690  0.19700  Biso   1.000  H
  H564     1.0000 0.00860  0.11060  0.11390  Biso   1.000  H
  C505     1.0000 0.19359  0.11059  0.88330  Biso   1.000  C
  H565     1.0000 0.20840  0.12680  0.90160  Biso   1.000  H
  C506     1.0000 0.17564  0.09345  0.93660  Biso   1.000  C
  H566     1.0000 0.17790  0.09790  0.99020  Biso   1.000  H
  C507     1.0000 0.15407  0.06939  0.91090  Biso   1.000  C
  C508     1.0000 0.15251  0.06399  0.83270  Biso   1.000  C
  H567     1.0000 0.13840  0.04760  0.81260  Biso   1.000  H
  C509     1.0000 0.17138  0.08227  0.78360  Biso   1.000  C
  H568     1.0000 0.17000  0.07790  0.72970  Biso   1.000  H
  C510     1.0000 0.13300  0.04970  0.96580  Biso   1.000  C
  H569     1.0000 0.13290  0.02690  0.94700  Biso   1.000  H
  H570     1.0000 0.11030  0.05800  0.96080  Biso   1.000  H
  Mn31     1.0000 0.07646  0.54115  0.31816  Biso   1.000  Mn
  O91      1.0000 0.09498  0.51400  0.24330  Biso   1.000  O
  O92      1.0000 0.99550  0.52560  0.17897  Biso   1.000  O
  O93      1.0000 0.05058  0.56736  0.38848  Biso   1.000  O
  N81      1.0000 0.03403  0.53665  0.27000  Biso   1.000  N
  N82      1.0000 0.00820  0.55219  0.31060  Biso   1.000  N
  C511     1.0000 0.08182  0.50088  0.18050  Biso   1.000  C
  C512     1.0000 0.10176  0.48022  0.13510  Biso   1.000  C
  H571     1.0000 0.12340  0.47530  0.15150  Biso   1.000  H
  C513     1.0000 0.09013  0.46732  0.06770  Biso   1.000  C
  H572     1.0000 0.10420  0.45400  0.03740  Biso   1.000  H
  C514     1.0000 0.05885  0.47284  0.04220  Biso   1.000  C
  H573     1.0000 0.05140  0.46390  0.99470  Biso   1.000  H
  C515     1.0000 0.03839  0.49192  0.08780  Biso   1.000  C
  H574     1.0000 0.01660  0.49590  0.07090  Biso   1.000  H
  C516     1.0000 0.04877  0.50544  0.15750  Biso   1.000  C
  C517     1.0000 0.02482  0.52348  0.20400  Biso   1.000  C
  C518     1.0000 0.01948  0.56693  0.37170  Biso   1.000  C
  C519     1.0000 0.99659  0.58442  0.42500  Biso   1.000  C
  H575     1.0000 0.97400  0.58220  0.40530  Biso   1.000  H
  H576     1.0000 0.99750  0.57410  0.47680  Biso   1.000  H
  C520     1.0000 0.00493  0.62024  0.43250  Biso   1.000  C
  H577     1.0000 0.99110  0.63020  0.47310  Biso   1.000  H
  H578     1.0000 0.02800  0.62250  0.44850  Biso   1.000  H
  C521     1.0000 0.99967  0.63848  0.35650  Biso   1.000  C
  H579     1.0000 0.97710  0.63450  0.33810  Biso   1.000  H
  H580     1.0000 0.01490  0.62970  0.31720  Biso   1.000  H
  C522     1.0000 0.00500  0.67500  0.36420  Biso   1.000  C
  H581     1.0000 0.02770  0.67900  0.38150  Biso   1.000  H
  H582     1.0000 0.99010  0.68360  0.40440  Biso   1.000  H
  C523     1.0000 0.99920  0.69300  0.29060  Biso   1.000  C
  H583     1.0000 0.97600  0.69880  0.28670  Biso   1.000  H
  H584     1.0000 0.01250  0.71290  0.28990  Biso   1.000  H
  H585     1.0000 0.00530  0.67900  0.24680  Biso   1.000  H
  Mn32     1.0000 0.96060  0.53807  0.25330  Biso   1.000  Mn
  O94      1.0000 0.95228  0.57945  0.21330  Biso   1.000  O
  O95      1.0000 0.88526  0.56698  0.39974  Biso   1.000  O
  O96      1.0000 0.96339  0.49633  0.30571  Biso   1.000  O
  N83      1.0000 0.92627  0.54364  0.32940  Biso   1.000  N
  N84      1.0000 0.92153  0.51611  0.37820  Biso   1.000  N
  N85      1.0000 0.92650  0.51173  0.16880  Biso   1.000  N
  C524     1.0000 0.92844  0.60023  0.23030  Biso   1.000  C
  C525     1.0000 0.92626  0.62860  0.18420  Biso   1.000  C
  H586     1.0000 0.94180  0.63220  0.14420  Biso   1.000  H
  C526     1.0000 0.90155  0.65129  0.19690  Biso   1.000  C
  H587     1.0000 0.90020  0.67010  0.16490  Biso   1.000  H
  C527     1.0000 0.87898  0.64694  0.25500  Biso   1.000  C
  H588     1.0000 0.86200  0.66240  0.26300  Biso   1.000  H
  C528     1.0000 0.88158  0.62005  0.30100  Biso   1.000  C
  H589     1.0000 0.86620  0.61720  0.34150  Biso   1.000  H
  C529     1.0000 0.90602  0.59632  0.29110  Biso   1.000  C
  C530     1.0000 0.90567  0.56772  0.34380  Biso   1.000  C
  C531     1.0000 0.94192  0.49288  0.35960  Biso   1.000  C
  C532     1.0000 0.93910  0.46015  0.39800  Biso   1.000  C
  H590     1.0000 0.96110  0.45280  0.41470  Biso   1.000  H
  H591     1.0000 0.92520  0.46220  0.44470  Biso   1.000  H
  C533     1.0000 0.92426  0.43464  0.34370  Biso   1.000  C
  H592     1.0000 0.92650  0.41270  0.36740  Biso   1.000  H
  H593     1.0000 0.93660  0.43460  0.29450  Biso   1.000  H
  C534     1.0000 0.88835  0.44119  0.32660  Biso   1.000  C
  H594     1.0000 0.87600  0.44150  0.37580  Biso   1.000  H
  H595     1.0000 0.88620  0.46300  0.30240  Biso   1.000  H
  C535     1.0000 0.87310  0.41545  0.27270  Biso   1.000  C
  H596     1.0000 0.87530  0.39350  0.29650  Biso   1.000  H
  H597     1.0000 0.88510  0.41530  0.22290  Biso   1.000  H
  C536     1.0000 0.83690  0.42280  0.25790  Biso   1.000  C
  H598     1.0000 0.83420  0.44630  0.24790  Biso   1.000  H
  H599     1.0000 0.82940  0.41040  0.21300  Biso   1.000  H
  H600     1.0000 0.82410  0.41660  0.30340  Biso   1.000  H
  C537     1.0000 0.93515  0.48272  0.14390  Biso   1.000  C
  H601     1.0000 0.95680  0.47540  0.15400  Biso   1.000  H
  C538     1.0000 0.91430  0.46240  0.10350  Biso   1.000  C
  H602     1.0000 0.92160  0.44160  0.08610  Biso   1.000  H
  C539     1.0000 0.88242  0.47280  0.08850  Biso   1.000  C
  C540     1.0000 0.87461  0.50295  0.11340  Biso   1.000  C
  H603     1.0000 0.85340  0.51130  0.10240  Biso   1.000  H
  C541     1.0000 0.89600  0.52219  0.15410  Biso   1.000  C
  H604     1.0000 0.88920  0.54310  0.17200  Biso   1.000  H
  C542     1.0000 0.85979  0.45110  0.04230  Biso   1.000  C
  H605     1.0000 0.83710  0.45900  0.04880  Biso   1.000  H
  H606     1.0000 0.86090  0.42860  0.06320  Biso   1.000  H
  Mn33     1.0000 0.11290  0.47013  0.52725  Biso   1.000  Mn
  O97      1.0000 0.14919  0.49169  0.56712  Biso   1.000  O
  O98      1.0000 0.11759  0.54845  0.37454  Biso   1.000  O
  O99      1.0000 0.07497  0.45326  0.47398  Biso   1.000  O
  N86      1.0000 0.10622  0.50505  0.45170  Biso   1.000  N
  N87      1.0000 0.07813  0.50065  0.40540  Biso   1.000  N
  N88      1.0000 0.80859  0.39432  0.80690  Biso   1.000  N
  C543     1.0000 0.16588  0.51595  0.53670  Biso   1.000  C
  C544     1.0000 0.19637  0.52292  0.57110  Biso   1.000  C
  H607     1.0000 0.20350  0.51040  0.61410  Biso   1.000  H
  C545     1.0000 0.21598  0.54765  0.54310  Biso   1.000  C
  H608     1.0000 0.23660  0.55170  0.56640  Biso   1.000  H
  C546     1.0000 0.20590  0.56666  0.48150  Biso   1.000  C
  H609     1.0000 0.21930  0.58390  0.46310  Biso   1.000  H
  C547     1.0000 0.17654  0.56044  0.44740  Biso   1.000  C
  H610     1.0000 0.16970  0.57370  0.40530  Biso   1.000  H
  C548     1.0000 0.15617  0.53505  0.47280  Biso   1.000  C
  C549     1.0000 0.12521  0.52962  0.43190  Biso   1.000  C
  C550     1.0000 0.06397  0.47314  0.42220  Biso   1.000  C
  C551     1.0000 0.03491  0.46221  0.37650  Biso   1.000  C
  H611     1.0000 0.02590  0.48100  0.34750  Biso   1.000  H
  H612     1.0000 0.01780  0.45420  0.41230  Biso   1.000  H
  C552     1.0000 0.04440  0.43390  0.31770  Biso   1.000  C
  H613     1.0000 0.05180  0.41460  0.34740  Biso   1.000  H
  H614     1.0000 0.06300  0.44130  0.28550  Biso   1.000  H
  C553     1.0000 0.01460  0.42290  0.26100  Biso   1.000  C
  H615     1.0000 0.99720  0.41220  0.29180  Biso   1.000  H
  H616     1.0000 0.00500  0.44250  0.23600  Biso   1.000  H
  C554     1.0000 0.02520  0.40260  0.20760  Biso   1.000  C
  H617     1.0000 0.03380  0.38190  0.22940  Biso   1.000  H
  H618     1.0000 0.04160  0.41260  0.17270  Biso   1.000  H
  C555     1.0000 0.98870  0.39820  0.16620  Biso   1.000  C
  H619     1.0000 0.97770  0.41940  0.16350  Biso   1.000  H
  H620     1.0000 0.97540  0.38310  0.19700  Biso   1.000  H
  H621     1.0000 0.99140  0.38940  0.11390  Biso   1.000  H
  C556     1.0000 0.80641  0.38941  0.88330  Biso   1.000  C
  H622     1.0000 0.79160  0.37320  0.90160  Biso   1.000  H
  C557     1.0000 0.82436  0.40655  0.93660  Biso   1.000  C
  H623     1.0000 0.82210  0.40210  0.99020  Biso   1.000  H
  C558     1.0000 0.84593  0.43061  0.91090  Biso   1.000  C
  C559     1.0000 0.84749  0.43601  0.83270  Biso   1.000  C
  H624     1.0000 0.86160  0.45240  0.81260  Biso   1.000  H
  C560     1.0000 0.82862  0.41773  0.78360  Biso   1.000  C
  H625     1.0000 0.83000  0.42210  0.72970  Biso   1.000  H
  C561     1.0000 0.86700  0.45030  0.96580  Biso   1.000  C
  H626     1.0000 0.86710  0.47310  0.94700  Biso   1.000  H
  H627     1.0000 0.88970  0.44200  0.96080  Biso   1.000  H
  Mn34     1.0000 0.57646  0.04115  0.81816  Biso   1.000  Mn
  O100     1.0000 0.59498  0.01400  0.74330  Biso   1.000  O
  O101     1.0000 0.49550  0.02560  0.67897  Biso   1.000  O
  O102     1.0000 0.55058  0.06736  0.88848  Biso   1.000  O
  N89      1.0000 0.53403  0.03665  0.77000  Biso   1.000  N
  N90      1.0000 0.50820  0.05219  0.81060  Biso   1.000  N
  C562     1.0000 0.58182  0.00088  0.68050  Biso   1.000  C
  C563     1.0000 0.60176  0.98022  0.63510  Biso   1.000  C
  H628     1.0000 0.62340  0.97530  0.65150  Biso   1.000  H
  C564     1.0000 0.59013  0.96732  0.56770  Biso   1.000  C
  H629     1.0000 0.60420  0.95400  0.53740  Biso   1.000  H
  C565     1.0000 0.55885  0.97284  0.54220  Biso   1.000  C
  H630     1.0000 0.55140  0.96390  0.49470  Biso   1.000  H
  C566     1.0000 0.53839  0.99192  0.58780  Biso   1.000  C
  H631     1.0000 0.51660  0.99590  0.57090  Biso   1.000  H
  C567     1.0000 0.54877  0.00544  0.65750  Biso   1.000  C
  C568     1.0000 0.52482  0.02348  0.70400  Biso   1.000  C
  C569     1.0000 0.51948  0.06693  0.87170  Biso   1.000  C
  C570     1.0000 0.49659  0.08442  0.92500  Biso   1.000  C
  H632     1.0000 0.47400  0.08220  0.90530  Biso   1.000  H
  H633     1.0000 0.49750  0.07410  0.97680  Biso   1.000  H
  C571     1.0000 0.50493  0.12024  0.93250  Biso   1.000  C
  H634     1.0000 0.49110  0.13020  0.97310  Biso   1.000  H
  H635     1.0000 0.52800  0.12250  0.94850  Biso   1.000  H
  C572     1.0000 0.49967  0.13848  0.85650  Biso   1.000  C
  H636     1.0000 0.47710  0.13450  0.83810  Biso   1.000  H
  H637     1.0000 0.51490  0.12970  0.81720  Biso   1.000  H
  C573     1.0000 0.50500  0.17500  0.86420  Biso   1.000  C
  H638     1.0000 0.52770  0.17900  0.88150  Biso   1.000  H
  H639     1.0000 0.49010  0.18360  0.90440  Biso   1.000  H
  C574     1.0000 0.49920  0.19300  0.79060  Biso   1.000  C
  H640     1.0000 0.47600  0.19880  0.78670  Biso   1.000  H
  H641     1.0000 0.51250  0.21290  0.78990  Biso   1.000  H
  H642     1.0000 0.50530  0.17900  0.74680  Biso   1.000  H
  Mn35     1.0000 0.46060  0.03807  0.75330  Biso   1.000  Mn
  O103     1.0000 0.45228  0.07945  0.71330  Biso   1.000  O
  O104     1.0000 0.38526  0.06698  0.89974  Biso   1.000  O
  O105     1.0000 0.46339  0.99633  0.80571  Biso   1.000  O
  N91      1.0000 0.42627  0.04364  0.82940  Biso   1.000  N
  N92      1.0000 0.42153  0.01611  0.87820  Biso   1.000  N
  N93      1.0000 0.42650  0.01173  0.66880  Biso   1.000  N
  C575     1.0000 0.42844  0.10023  0.73030  Biso   1.000  C
  C576     1.0000 0.42626  0.12860  0.68420  Biso   1.000  C
  H643     1.0000 0.44180  0.13220  0.64420  Biso   1.000  H
  C577     1.0000 0.40155  0.15129  0.69690  Biso   1.000  C
  H644     1.0000 0.40020  0.17010  0.66490  Biso   1.000  H
  C578     1.0000 0.37898  0.14694  0.75500  Biso   1.000  C
  H645     1.0000 0.36200  0.16240  0.76300  Biso   1.000  H
  C579     1.0000 0.38158  0.12005  0.80100  Biso   1.000  C
  H646     1.0000 0.36620  0.11720  0.84150  Biso   1.000  H
  C580     1.0000 0.40602  0.09632  0.79110  Biso   1.000  C
  C581     1.0000 0.40567  0.06772  0.84380  Biso   1.000  C
  C582     1.0000 0.44192  0.99288  0.85960  Biso   1.000  C
  C583     1.0000 0.43910  0.96015  0.89800  Biso   1.000  C
  H647     1.0000 0.46110  0.95280  0.91470  Biso   1.000  H
  H648     1.0000 0.42520  0.96220  0.94470  Biso   1.000  H
  C584     1.0000 0.42426  0.93464  0.84370  Biso   1.000  C
  H649     1.0000 0.42650  0.91270  0.86740  Biso   1.000  H
  H650     1.0000 0.43660  0.93460  0.79450  Biso   1.000  H
  C585     1.0000 0.38835  0.94119  0.82660  Biso   1.000  C
  H651     1.0000 0.37600  0.94150  0.87580  Biso   1.000  H
  H652     1.0000 0.38620  0.96300  0.80240  Biso   1.000  H
  C586     1.0000 0.37310  0.91545  0.77270  Biso   1.000  C
  H653     1.0000 0.37530  0.89350  0.79650  Biso   1.000  H
  H654     1.0000 0.38510  0.91530  0.72290  Biso   1.000  H
  C587     1.0000 0.33690  0.92280  0.75790  Biso   1.000  C
  H655     1.0000 0.33420  0.94630  0.74790  Biso   1.000  H
  H656     1.0000 0.32940  0.91040  0.71300  Biso   1.000  H
  H657     1.0000 0.32410  0.91660  0.80340  Biso   1.000  H
  C588     1.0000 0.43515  0.98272  0.64390  Biso   1.000  C
  H658     1.0000 0.45680  0.97540  0.65400  Biso   1.000  H
  C589     1.0000 0.41430  0.96240  0.60350  Biso   1.000  C
  H659     1.0000 0.42160  0.94160  0.58610  Biso   1.000  H
  C590     1.0000 0.38242  0.97280  0.58850  Biso   1.000  C
  C591     1.0000 0.37461  0.00295  0.61340  Biso   1.000  C
  H660     1.0000 0.35340  0.01130  0.60240  Biso   1.000  H
  C592     1.0000 0.39600  0.02219  0.65410  Biso   1.000  C
  H661     1.0000 0.38920  0.04310  0.67200  Biso   1.000  H
  C593     1.0000 0.35979  0.95110  0.54230  Biso   1.000  C
  H662     1.0000 0.33710  0.95900  0.54880  Biso   1.000  H
  H663     1.0000 0.36090  0.92860  0.56320  Biso   1.000  H
  Mn36     1.0000 0.61290  0.97013  0.02725  Biso   1.000  Mn
  O106     1.0000 0.64919  0.99169  0.06712  Biso   1.000  O
  O107     1.0000 0.61759  0.04845  0.87454  Biso   1.000  O
  O108     1.0000 0.57497  0.95326  0.97398  Biso   1.000  O
  N94      1.0000 0.60622  0.00505  0.95170  Biso   1.000  N
  N95      1.0000 0.57813  0.00065  0.90540  Biso   1.000  N
  N96      1.0000 0.30859  0.89432  0.30690  Biso   1.000  N
  C594     1.0000 0.66588  0.01595  0.03670  Biso   1.000  C
  C595     1.0000 0.69637  0.02292  0.07110  Biso   1.000  C
  H664     1.0000 0.70350  0.01040  0.11410  Biso   1.000  H
  C596     1.0000 0.71598  0.04765  0.04310  Biso   1.000  C
  H665     1.0000 0.73660  0.05170  0.06640  Biso   1.000  H
  C597     1.0000 0.70590  0.06666  0.98150  Biso   1.000  C
  H666     1.0000 0.71930  0.08390  0.96310  Biso   1.000  H
  C598     1.0000 0.67654  0.06044  0.94740  Biso   1.000  C
  H667     1.0000 0.66970  0.07370  0.90530  Biso   1.000  H
  C599     1.0000 0.65617  0.03505  0.97280  Biso   1.000  C
  C600     1.0000 0.62521  0.02962  0.93190  Biso   1.000  C
  C601     1.0000 0.56397  0.97314  0.92220  Biso   1.000  C
  C602     1.0000 0.53491  0.96221  0.87650  Biso   1.000  C
  H668     1.0000 0.52590  0.98100  0.84750  Biso   1.000  H
  H669     1.0000 0.51780  0.95420  0.91230  Biso   1.000  H
  C603     1.0000 0.54440  0.93390  0.81770  Biso   1.000  C
  H670     1.0000 0.55180  0.91460  0.84740  Biso   1.000  H
  H671     1.0000 0.56300  0.94130  0.78550  Biso   1.000  H
  C604     1.0000 0.51460  0.92290  0.76100  Biso   1.000  C
  H672     1.0000 0.49720  0.91220  0.79180  Biso   1.000  H
  H673     1.0000 0.50500  0.94250  0.73600  Biso   1.000  H
  C605     1.0000 0.52520  0.90260  0.70760  Biso   1.000  C
  H674     1.0000 0.53380  0.88190  0.72940  Biso   1.000  H
  H675     1.0000 0.54160  0.91260  0.67270  Biso   1.000  H
  C606     1.0000 0.48870  0.89820  0.66620  Biso   1.000  C
  H676     1.0000 0.47770  0.91940  0.66350  Biso   1.000  H
  H677     1.0000 0.47540  0.88310  0.69700  Biso   1.000  H
  H678     1.0000 0.49140  0.88940  0.61390  Biso   1.000  H
  C607     1.0000 0.30641  0.88941  0.38330  Biso   1.000  C
  H679     1.0000 0.29160  0.87320  0.40160  Biso   1.000  H
  C608     1.0000 0.32436  0.90655  0.43660  Biso   1.000  C
  H680     1.0000 0.32210  0.90210  0.49020  Biso   1.000  H
  C609     1.0000 0.34593  0.93061  0.41090  Biso   1.000  C
  C610     1.0000 0.34749  0.93601  0.33270  Biso   1.000  C
  H681     1.0000 0.36160  0.95240  0.31260  Biso   1.000  H
  C611     1.0000 0.32862  0.91773  0.28360  Biso   1.000  C
  H682     1.0000 0.33000  0.92210  0.22970  Biso   1.000  H
  C612     1.0000 0.36700  0.95030  0.46580  Biso   1.000  C
  H683     1.0000 0.36710  0.97310  0.44700  Biso   1.000  H
  H684     1.0000 0.38970  0.94200  0.46080  Biso   1.000  H
  Mn37     1.0000 0.79115  0.17354  0.56816  Biso   1.000  Mn
  O109     1.0000 0.76400  0.15502  0.49330  Biso   1.000  O
  O110     1.0000 0.77560  0.25450  0.42897  Biso   1.000  O
  O111     1.0000 0.81736  0.19942  0.63848  Biso   1.000  O
  N97      1.0000 0.78665  0.21597  0.52000  Biso   1.000  N
  N98      1.0000 0.80219  0.24180  0.56060  Biso   1.000  N
  C613     1.0000 0.75088  0.16818  0.43050  Biso   1.000  C
  C614     1.0000 0.73022  0.14824  0.38510  Biso   1.000  C
  H685     1.0000 0.72530  0.12660  0.40150  Biso   1.000  H
  C615     1.0000 0.71732  0.15987  0.31770  Biso   1.000  C
  H686     1.0000 0.70400  0.14580  0.28740  Biso   1.000  H
  C616     1.0000 0.72284  0.19115  0.29220  Biso   1.000  C
  H687     1.0000 0.71390  0.19860  0.24470  Biso   1.000  H
  C617     1.0000 0.74192  0.21161  0.33780  Biso   1.000  C
  H688     1.0000 0.74590  0.23340  0.32090  Biso   1.000  H
  C618     1.0000 0.75544  0.20123  0.40750  Biso   1.000  C
  C619     1.0000 0.77348  0.22518  0.45400  Biso   1.000  C
  C620     1.0000 0.81693  0.23052  0.62170  Biso   1.000  C
  C621     1.0000 0.83442  0.25341  0.67500  Biso   1.000  C
  H689     1.0000 0.83220  0.27600  0.65530  Biso   1.000  H
  H690     1.0000 0.82410  0.25250  0.72680  Biso   1.000  H
  C622     1.0000 0.87024  0.24507  0.68250  Biso   1.000  C
  H691     1.0000 0.88020  0.25890  0.72310  Biso   1.000  H
  H692     1.0000 0.87250  0.22200  0.69850  Biso   1.000  H
  C623     1.0000 0.88848  0.25033  0.60650  Biso   1.000  C
  H693     1.0000 0.88450  0.27290  0.58810  Biso   1.000  H
  H694     1.0000 0.87970  0.23510  0.56720  Biso   1.000  H
  C624     1.0000 0.92500  0.24500  0.61420  Biso   1.000  C
  H695     1.0000 0.92900  0.22230  0.63150  Biso   1.000  H
  H696     1.0000 0.93360  0.25990  0.65440  Biso   1.000  H
  C625     1.0000 0.94300  0.25080  0.54060  Biso   1.000  C
  H697     1.0000 0.94880  0.27400  0.53670  Biso   1.000  H
  H698     1.0000 0.96290  0.23750  0.53990  Biso   1.000  H
  H699     1.0000 0.92900  0.24470  0.49680  Biso   1.000  H
  Mn38     1.0000 0.78807  0.28940  0.50330  Biso   1.000  Mn
  O112     1.0000 0.82945  0.29772  0.46330  Biso   1.000  O
  O113     1.0000 0.81698  0.36474  0.64974  Biso   1.000  O
  O114     1.0000 0.74633  0.28661  0.55571  Biso   1.000  O
  N99      1.0000 0.79364  0.32373  0.57940  Biso   1.000  N
  N100     1.0000 0.76611  0.32847  0.62820  Biso   1.000  N
  N101     1.0000 0.76173  0.32350  0.41880  Biso   1.000  N
  C626     1.0000 0.85023  0.32156  0.48030  Biso   1.000  C
  C627     1.0000 0.87860  0.32374  0.43420  Biso   1.000  C
  H700     1.0000 0.88220  0.30820  0.39420  Biso   1.000  H
  C628     1.0000 0.90129  0.34845  0.44690  Biso   1.000  C
  H701     1.0000 0.92010  0.34980  0.41490  Biso   1.000  H
  C629     1.0000 0.89694  0.37102  0.50500  Biso   1.000  C
  H702     1.0000 0.91240  0.38800  0.51300  Biso   1.000  H
  C630     1.0000 0.87005  0.36842  0.55100  Biso   1.000  C
  H703     1.0000 0.86720  0.38380  0.59150  Biso   1.000  H
  C631     1.0000 0.84632  0.34398  0.54110  Biso   1.000  C
  C632     1.0000 0.81772  0.34433  0.59380  Biso   1.000  C
  C633     1.0000 0.74288  0.30808  0.60960  Biso   1.000  C
  C634     1.0000 0.71015  0.31090  0.64800  Biso   1.000  C
  H704     1.0000 0.70280  0.28890  0.66470  Biso   1.000  H
  H705     1.0000 0.71220  0.32480  0.69470  Biso   1.000  H
  C635     1.0000 0.68464  0.32574  0.59370  Biso   1.000  C
  H706     1.0000 0.66270  0.32350  0.61740  Biso   1.000  H
  H707     1.0000 0.68460  0.31340  0.54450  Biso   1.000  H
  C636     1.0000 0.69119  0.36165  0.57660  Biso   1.000  C
  H708     1.0000 0.69150  0.37400  0.62580  Biso   1.000  H
  H709     1.0000 0.71300  0.36380  0.55240  Biso   1.000  H
  C637     1.0000 0.66545  0.37690  0.52270  Biso   1.000  C
  H710     1.0000 0.64350  0.37470  0.54650  Biso   1.000  H
  H711     1.0000 0.66530  0.36490  0.47290  Biso   1.000  H
  C638     1.0000 0.67280  0.41310  0.50790  Biso   1.000  C
  H712     1.0000 0.69630  0.41580  0.49790  Biso   1.000  H
  H713     1.0000 0.66040  0.42060  0.46300  Biso   1.000  H
  H714     1.0000 0.66660  0.42590  0.55340  Biso   1.000  H
  C639     1.0000 0.73272  0.31485  0.39390  Biso   1.000  C
  H715     1.0000 0.72540  0.29320  0.40400  Biso   1.000  H
  C640     1.0000 0.71240  0.33570  0.35350  Biso   1.000  C
  H716     1.0000 0.69160  0.32840  0.33610  Biso   1.000  H
  C641     1.0000 0.72280  0.36758  0.33850  Biso   1.000  C
  C642     1.0000 0.75295  0.37539  0.36340  Biso   1.000  C
  H717     1.0000 0.76130  0.39660  0.35240  Biso   1.000  H
  C643     1.0000 0.77219  0.35400  0.40410  Biso   1.000  C
  H718     1.0000 0.79310  0.36080  0.42200  Biso   1.000  H
  C644     1.0000 0.70110  0.39021  0.29230  Biso   1.000  C
  H719     1.0000 0.70900  0.41290  0.29880  Biso   1.000  H
  H720     1.0000 0.67860  0.38910  0.31320  Biso   1.000  H
  Mn39     1.0000 0.72013  0.13710  0.77725  Biso   1.000  Mn
  O115     1.0000 0.74169  0.10081  0.81712  Biso   1.000  O
  O116     1.0000 0.79845  0.13241  0.62454  Biso   1.000  O
  O117     1.0000 0.70326  0.17503  0.72398  Biso   1.000  O
  N102     1.0000 0.75505  0.14378  0.70170  Biso   1.000  N
  N103     1.0000 0.75065  0.17187  0.65540  Biso   1.000  N
  N104     1.0000 0.64432  0.44141  0.05690  Biso   1.000  N
  C645     1.0000 0.76595  0.08412  0.78670  Biso   1.000  C
  C646     1.0000 0.77292  0.05363  0.82110  Biso   1.000  C
  H721     1.0000 0.76040  0.04650  0.86410  Biso   1.000  H
  C647     1.0000 0.79765  0.03402  0.79310  Biso   1.000  C
  H722     1.0000 0.80170  0.01340  0.81640  Biso   1.000  H
  C648     1.0000 0.81666  0.04410  0.73150  Biso   1.000  C
  H723     1.0000 0.83390  0.03070  0.71310  Biso   1.000  H
  C649     1.0000 0.81044  0.07346  0.69740  Biso   1.000  C
  H724     1.0000 0.82370  0.08030  0.65530  Biso   1.000  H
  C650     1.0000 0.78505  0.09383  0.72280  Biso   1.000  C
  C651     1.0000 0.77962  0.12479  0.68190  Biso   1.000  C
  C652     1.0000 0.72314  0.18603  0.67220  Biso   1.000  C
  C653     1.0000 0.71221  0.21509  0.62650  Biso   1.000  C
  H725     1.0000 0.73100  0.22410  0.59750  Biso   1.000  H
  H726     1.0000 0.70420  0.23220  0.66230  Biso   1.000  H
  C654     1.0000 0.68390  0.20560  0.56770  Biso   1.000  C
  H727     1.0000 0.66460  0.19820  0.59740  Biso   1.000  H
  H728     1.0000 0.69130  0.18700  0.53550  Biso   1.000  H
  C655     1.0000 0.67290  0.23540  0.51100  Biso   1.000  C
  H729     1.0000 0.66220  0.25280  0.54180  Biso   1.000  H
  H730     1.0000 0.69250  0.24500  0.48600  Biso   1.000  H
  C656     1.0000 0.65260  0.22480  0.45760  Biso   1.000  C
  H731     1.0000 0.63190  0.21620  0.47940  Biso   1.000  H
  H732     1.0000 0.66260  0.20840  0.42270  Biso   1.000  H
  C657     1.0000 0.64820  0.26130  0.41620  Biso   1.000  C
  H733     1.0000 0.66940  0.27230  0.41350  Biso   1.000  H
  H734     1.0000 0.63310  0.27460  0.44700  Biso   1.000  H
  H735     1.0000 0.63940  0.25860  0.36390  Biso   1.000  H
  C658     1.0000 0.63941  0.44359  0.13330  Biso   1.000  C
  H736     1.0000 0.62320  0.45840  0.15160  Biso   1.000  H
  C659     1.0000 0.65655  0.42564  0.18660  Biso   1.000  C
  H737     1.0000 0.65210  0.42790  0.24020  Biso   1.000  H
  C660     1.0000 0.68061  0.40407  0.16090  Biso   1.000  C
  C661     1.0000 0.68601  0.40251  0.08270  Biso   1.000  C
  H738     1.0000 0.70240  0.38840  0.06260  Biso   1.000  H
  C662     1.0000 0.66773  0.42138  0.03360  Biso   1.000  C
  H739     1.0000 0.67210  0.42000  0.97970  Biso   1.000  H
  C663     1.0000 0.70030  0.38300  0.21580  Biso   1.000  C
  H740     1.0000 0.72310  0.38290  0.19700  Biso   1.000  H
  H741     1.0000 0.69200  0.36030  0.21080  Biso   1.000  H
  Mn40     1.0000 0.29115  0.67354  0.06816  Biso   1.000  Mn
  O118     1.0000 0.26400  0.65502  0.99330  Biso   1.000  O
  O119     1.0000 0.27560  0.75450  0.92897  Biso   1.000  O
  O120     1.0000 0.31736  0.69942  0.13848  Biso   1.000  O
  N105     1.0000 0.28665  0.71597  0.02000  Biso   1.000  N
  N106     1.0000 0.30219  0.74180  0.06060  Biso   1.000  N
  C664     1.0000 0.25088  0.66818  0.93050  Biso   1.000  C
  C665     1.0000 0.23022  0.64824  0.88510  Biso   1.000  C
  H742     1.0000 0.22530  0.62660  0.90150  Biso   1.000  H
  C666     1.0000 0.21732  0.65987  0.81770  Biso   1.000  C
  H743     1.0000 0.20400  0.64580  0.78740  Biso   1.000  H
  C667     1.0000 0.22284  0.69115  0.79220  Biso   1.000  C
  H744     1.0000 0.21390  0.69860  0.74470  Biso   1.000  H
  C668     1.0000 0.24192  0.71161  0.83780  Biso   1.000  C
  H745     1.0000 0.24590  0.73340  0.82090  Biso   1.000  H
  C669     1.0000 0.25544  0.70123  0.90750  Biso   1.000  C
  C670     1.0000 0.27348  0.72518  0.95400  Biso   1.000  C
  C671     1.0000 0.31693  0.73052  0.12170  Biso   1.000  C
  C672     1.0000 0.33442  0.75341  0.17500  Biso   1.000  C
  H746     1.0000 0.33220  0.77600  0.15530  Biso   1.000  H
  H747     1.0000 0.32410  0.75250  0.22680  Biso   1.000  H
  C673     1.0000 0.37024  0.74507  0.18250  Biso   1.000  C
  H748     1.0000 0.38020  0.75890  0.22310  Biso   1.000  H
  H749     1.0000 0.37250  0.72200  0.19850  Biso   1.000  H
  C674     1.0000 0.38848  0.75033  0.10650  Biso   1.000  C
  H750     1.0000 0.38450  0.77290  0.08810  Biso   1.000  H
  H751     1.0000 0.37970  0.73510  0.06720  Biso   1.000  H
  C675     1.0000 0.42500  0.74500  0.11420  Biso   1.000  C
  H752     1.0000 0.42900  0.72230  0.13150  Biso   1.000  H
  H753     1.0000 0.43360  0.75990  0.15440  Biso   1.000  H
  C676     1.0000 0.44300  0.75080  0.04060  Biso   1.000  C
  H754     1.0000 0.44880  0.77400  0.03670  Biso   1.000  H
  H755     1.0000 0.46290  0.73750  0.03990  Biso   1.000  H
  H756     1.0000 0.42900  0.74470  0.99680  Biso   1.000  H
  Mn41     1.0000 0.28807  0.78940  0.00330  Biso   1.000  Mn
  O121     1.0000 0.32945  0.79772  0.96330  Biso   1.000  O
  O122     1.0000 0.31698  0.86474  0.14974  Biso   1.000  O
  O123     1.0000 0.24633  0.78661  0.05571  Biso   1.000  O
  N107     1.0000 0.29364  0.82373  0.07940  Biso   1.000  N
  N108     1.0000 0.26611  0.82847  0.12820  Biso   1.000  N
  N109     1.0000 0.26173  0.82350  0.91880  Biso   1.000  N
  C677     1.0000 0.35023  0.82156  0.98030  Biso   1.000  C
  C678     1.0000 0.37860  0.82374  0.93420  Biso   1.000  C
  H757     1.0000 0.38220  0.80820  0.89420  Biso   1.000  H
  C679     1.0000 0.40129  0.84845  0.94690  Biso   1.000  C
  H758     1.0000 0.42010  0.84980  0.91490  Biso   1.000  H
  C680     1.0000 0.39694  0.87102  0.00500  Biso   1.000  C
  H759     1.0000 0.41240  0.88800  0.01300  Biso   1.000  H
  C681     1.0000 0.37005  0.86842  0.05100  Biso   1.000  C
  H760     1.0000 0.36720  0.88380  0.09150  Biso   1.000  H
  C682     1.0000 0.34632  0.84398  0.04110  Biso   1.000  C
  C683     1.0000 0.31772  0.84433  0.09380  Biso   1.000  C
  C684     1.0000 0.24288  0.80808  0.10960  Biso   1.000  C
  C685     1.0000 0.21015  0.81090  0.14800  Biso   1.000  C
  H761     1.0000 0.20280  0.78890  0.16470  Biso   1.000  H
  H762     1.0000 0.21220  0.82480  0.19470  Biso   1.000  H
  C686     1.0000 0.18464  0.82574  0.09370  Biso   1.000  C
  H763     1.0000 0.16270  0.82350  0.11740  Biso   1.000  H
  H764     1.0000 0.18460  0.81340  0.04450  Biso   1.000  H
  C687     1.0000 0.19119  0.86165  0.07660  Biso   1.000  C
  H765     1.0000 0.19150  0.87400  0.12580  Biso   1.000  H
  H766     1.0000 0.21300  0.86380  0.05240  Biso   1.000  H
  C688     1.0000 0.16545  0.87690  0.02270  Biso   1.000  C
  H767     1.0000 0.14350  0.87470  0.04650  Biso   1.000  H
  H768     1.0000 0.16530  0.86490  0.97290  Biso   1.000  H
  C689     1.0000 0.17280  0.91310  0.00790  Biso   1.000  C
  H769     1.0000 0.19630  0.91580  0.99790  Biso   1.000  H
  H770     1.0000 0.16040  0.92060  0.96300  Biso   1.000  H
  H771     1.0000 0.16660  0.92590  0.05340  Biso   1.000  H
  C690     1.0000 0.23272  0.81485  0.89390  Biso   1.000  C
  H772     1.0000 0.22540  0.79320  0.90400  Biso   1.000  H
  C691     1.0000 0.21240  0.83570  0.85350  Biso   1.000  C
  H773     1.0000 0.19160  0.82840  0.83610  Biso   1.000  H
  C692     1.0000 0.22280  0.86758  0.83850  Biso   1.000  C
  C693     1.0000 0.25295  0.87539  0.86340  Biso   1.000  C
  H774     1.0000 0.26130  0.89660  0.85240  Biso   1.000  H
  C694     1.0000 0.27219  0.85400  0.90410  Biso   1.000  C
  H775     1.0000 0.29310  0.86080  0.92200  Biso   1.000  H
  C695     1.0000 0.20110  0.89021  0.79230  Biso   1.000  C
  H776     1.0000 0.20900  0.91290  0.79880  Biso   1.000  H
  H777     1.0000 0.17860  0.88910  0.81320  Biso   1.000  H
  Mn42     1.0000 0.22013  0.63710  0.27725  Biso   1.000  Mn
  O124     1.0000 0.24169  0.60081  0.31712  Biso   1.000  O
  O125     1.0000 0.29845  0.63241  0.12454  Biso   1.000  O
  O126     1.0000 0.20326  0.67503  0.22398  Biso   1.000  O
  N110     1.0000 0.25505  0.64378  0.20170  Biso   1.000  N
  N111     1.0000 0.25065  0.67187  0.15540  Biso   1.000  N
  N112     1.0000 0.14432  0.94141  0.55690  Biso   1.000  N
  C696     1.0000 0.26595  0.58412  0.28670  Biso   1.000  C
  C697     1.0000 0.27292  0.55363  0.32110  Biso   1.000  C
  H778     1.0000 0.26040  0.54650  0.36410  Biso   1.000  H
  C698     1.0000 0.29765  0.53402  0.29310  Biso   1.000  C
  H779     1.0000 0.30170  0.51340  0.31640  Biso   1.000  H
  C699     1.0000 0.31666  0.54410  0.23150  Biso   1.000  C
  H780     1.0000 0.33390  0.53070  0.21310  Biso   1.000  H
  C700     1.0000 0.31044  0.57346  0.19740  Biso   1.000  C
  H781     1.0000 0.32370  0.58030  0.15530  Biso   1.000  H
  C701     1.0000 0.28505  0.59383  0.22280  Biso   1.000  C
  C702     1.0000 0.27962  0.62479  0.18190  Biso   1.000  C
  C703     1.0000 0.22314  0.68603  0.17220  Biso   1.000  C
  C704     1.0000 0.21221  0.71509  0.12650  Biso   1.000  C
  H782     1.0000 0.23100  0.72410  0.09750  Biso   1.000  H
  H783     1.0000 0.20420  0.73220  0.16230  Biso   1.000  H
  C705     1.0000 0.18390  0.70560  0.06770  Biso   1.000  C
  H784     1.0000 0.16460  0.69820  0.09740  Biso   1.000  H
  H785     1.0000 0.19130  0.68700  0.03550  Biso   1.000  H
  C706     1.0000 0.17290  0.73540  0.01100  Biso   1.000  C
  H786     1.0000 0.16220  0.75280  0.04180  Biso   1.000  H
  H787     1.0000 0.19250  0.74500  0.98600  Biso   1.000  H
  C707     1.0000 0.15260  0.72480  0.95760  Biso   1.000  C
  H788     1.0000 0.13190  0.71620  0.97940  Biso   1.000  H
  H789     1.0000 0.16260  0.70840  0.92270  Biso   1.000  H
  C708     1.0000 0.14820  0.76130  0.91620  Biso   1.000  C
  H790     1.0000 0.16940  0.77230  0.91350  Biso   1.000  H
  H791     1.0000 0.13310  0.77460  0.94700  Biso   1.000  H
  H792     1.0000 0.13940  0.75860  0.86390  Biso   1.000  H
  C709     1.0000 0.13941  0.94359  0.63330  Biso   1.000  C
  H793     1.0000 0.12320  0.95840  0.65160  Biso   1.000  H
  C710     1.0000 0.15655  0.92564  0.68660  Biso   1.000  C
  H794     1.0000 0.15210  0.92790  0.74020  Biso   1.000  H
  C711     1.0000 0.18061  0.90407  0.66090  Biso   1.000  C
  C712     1.0000 0.18601  0.90251  0.58270  Biso   1.000  C
  H795     1.0000 0.20240  0.88840  0.56260  Biso   1.000  H
  C713     1.0000 0.16773  0.92138  0.53360  Biso   1.000  C
  H796     1.0000 0.17210  0.92000  0.47970  Biso   1.000  H
  C714     1.0000 0.20030  0.88300  0.71580  Biso   1.000  C
  H797     1.0000 0.22310  0.88290  0.69700  Biso   1.000  H
  H798     1.0000 0.19200  0.86030  0.71080  Biso   1.000  H
  Mn43     1.0000 0.70885  0.82646  0.06816  Biso   1.000  Mn
  O127     1.0000 0.73600  0.84498  0.99330  Biso   1.000  O
  O128     1.0000 0.72440  0.74550  0.92897  Biso   1.000  O
  O129     1.0000 0.68264  0.80058  0.13848  Biso   1.000  O
  N113     1.0000 0.71335  0.78403  0.02000  Biso   1.000  N
  N114     1.0000 0.69781  0.75820  0.06060  Biso   1.000  N
  C715     1.0000 0.74912  0.83182  0.93050  Biso   1.000  C
  C716     1.0000 0.76978  0.85176  0.88510  Biso   1.000  C
  H799     1.0000 0.77470  0.87340  0.90150  Biso   1.000  H
  C717     1.0000 0.78268  0.84013  0.81770  Biso   1.000  C
  H800     1.0000 0.79600  0.85420  0.78740  Biso   1.000  H
  C718     1.0000 0.77716  0.80885  0.79220  Biso   1.000  C
  H801     1.0000 0.78610  0.80140  0.74470  Biso   1.000  H
  C719     1.0000 0.75808  0.78839  0.83780  Biso   1.000  C
  H802     1.0000 0.75410  0.76660  0.82090  Biso   1.000  H
  C720     1.0000 0.74456  0.79877  0.90750  Biso   1.000  C
  C721     1.0000 0.72652  0.77482  0.95400  Biso   1.000  C
  C722     1.0000 0.68307  0.76948  0.12170  Biso   1.000  C
  C723     1.0000 0.66558  0.74659  0.17500  Biso   1.000  C
  H803     1.0000 0.66780  0.72400  0.15530  Biso   1.000  H
  H804     1.0000 0.67590  0.74750  0.22680  Biso   1.000  H
  C724     1.0000 0.62976  0.75493  0.18250  Biso   1.000  C
  H805     1.0000 0.61980  0.74110  0.22310  Biso   1.000  H
  H806     1.0000 0.62750  0.77800  0.19850  Biso   1.000  H
  C725     1.0000 0.61152  0.74967  0.10650  Biso   1.000  C
  H807     1.0000 0.61550  0.72710  0.08810  Biso   1.000  H
  H808     1.0000 0.62030  0.76490  0.06720  Biso   1.000  H
  C726     1.0000 0.57500  0.75500  0.11420  Biso   1.000  C
  H809     1.0000 0.57100  0.77770  0.13150  Biso   1.000  H
  H810     1.0000 0.56640  0.74010  0.15440  Biso   1.000  H
  C727     1.0000 0.55700  0.74920  0.04060  Biso   1.000  C
  H811     1.0000 0.55120  0.72600  0.03670  Biso   1.000  H
  H812     1.0000 0.53710  0.76250  0.03990  Biso   1.000  H
  H813     1.0000 0.57100  0.75530  0.99680  Biso   1.000  H
  Mn44     1.0000 0.71193  0.71060  0.00330  Biso   1.000  Mn
  O130     1.0000 0.67055  0.70228  0.96330  Biso   1.000  O
  O131     1.0000 0.68302  0.63526  0.14974  Biso   1.000  O
  O132     1.0000 0.75367  0.71339  0.05571  Biso   1.000  O
  N115     1.0000 0.70636  0.67627  0.07940  Biso   1.000  N
  N116     1.0000 0.73389  0.67153  0.12820  Biso   1.000  N
  N117     1.0000 0.73827  0.67650  0.91880  Biso   1.000  N
  C728     1.0000 0.64977  0.67844  0.98030  Biso   1.000  C
  C729     1.0000 0.62140  0.67626  0.93420  Biso   1.000  C
  H814     1.0000 0.61780  0.69180  0.89420  Biso   1.000  H
  C730     1.0000 0.59871  0.65155  0.94690  Biso   1.000  C
  H815     1.0000 0.57990  0.65020  0.91490  Biso   1.000  H
  C731     1.0000 0.60306  0.62898  0.00500  Biso   1.000  C
  H816     1.0000 0.58760  0.61200  0.01300  Biso   1.000  H
  C732     1.0000 0.62995  0.63158  0.05100  Biso   1.000  C
  H817     1.0000 0.63280  0.61620  0.09150  Biso   1.000  H
  C733     1.0000 0.65368  0.65602  0.04110  Biso   1.000  C
  C734     1.0000 0.68228  0.65567  0.09380  Biso   1.000  C
  C735     1.0000 0.75712  0.69192  0.10960  Biso   1.000  C
  C736     1.0000 0.78985  0.68910  0.14800  Biso   1.000  C
  H818     1.0000 0.79720  0.71110  0.16470  Biso   1.000  H
  H819     1.0000 0.78780  0.67520  0.19470  Biso   1.000  H
  C737     1.0000 0.81536  0.67426  0.09370  Biso   1.000  C
  H820     1.0000 0.83730  0.67650  0.11740  Biso   1.000  H
  H821     1.0000 0.81540  0.68660  0.04450  Biso   1.000  H
  C738     1.0000 0.80881  0.63835  0.07660  Biso   1.000  C
  H822     1.0000 0.80850  0.62600  0.12580  Biso   1.000  H
  H823     1.0000 0.78700  0.63620  0.05240  Biso   1.000  H
  C739     1.0000 0.83455  0.62310  0.02270  Biso   1.000  C
  H824     1.0000 0.85650  0.62530  0.04650  Biso   1.000  H
  H825     1.0000 0.83470  0.63510  0.97290  Biso   1.000  H
  C740     1.0000 0.82720  0.58690  0.00790  Biso   1.000  C
  H826     1.0000 0.80370  0.58420  0.99790  Biso   1.000  H
  H827     1.0000 0.83960  0.57940  0.96300  Biso   1.000  H
  H828     1.0000 0.83340  0.57410  0.05340  Biso   1.000  H
  C741     1.0000 0.76728  0.68515  0.89390  Biso   1.000  C
  H829     1.0000 0.77460  0.70680  0.90400  Biso   1.000  H
  C742     1.0000 0.78760  0.66430  0.85350  Biso   1.000  C
  H830     1.0000 0.80840  0.67160  0.83610  Biso   1.000  H
  C743     1.0000 0.77720  0.63242  0.83850  Biso   1.000  C
  C744     1.0000 0.74705  0.62461  0.86340  Biso   1.000  C
  H831     1.0000 0.73870  0.60340  0.85240  Biso   1.000  H
  C745     1.0000 0.72781  0.64600  0.90410  Biso   1.000  C
  H832     1.0000 0.70690  0.63920  0.92200  Biso   1.000  H
  C746     1.0000 0.79890  0.60979  0.79230  Biso   1.000  C
  H833     1.0000 0.79100  0.58710  0.79880  Biso   1.000  H
  H834     1.0000 0.82140  0.61090  0.81320  Biso   1.000  H
  Mn45     1.0000 0.77987  0.86290  0.27725  Biso   1.000  Mn
  O133     1.0000 0.75831  0.89919  0.31712  Biso   1.000  O
  O134     1.0000 0.70155  0.86759  0.12454  Biso   1.000  O
  O135     1.0000 0.79674  0.82497  0.22398  Biso   1.000  O
  N118     1.0000 0.74495  0.85622  0.20170  Biso   1.000  N
  N119     1.0000 0.74935  0.82813  0.15540  Biso   1.000  N
  N120     1.0000 0.85568  0.55859  0.55690  Biso   1.000  N
  C747     1.0000 0.73405  0.91588  0.28670  Biso   1.000  C
  C748     1.0000 0.72708  0.94637  0.32110  Biso   1.000  C
  H835     1.0000 0.73960  0.95350  0.36410  Biso   1.000  H
  C749     1.0000 0.70235  0.96598  0.29310  Biso   1.000  C
  H836     1.0000 0.69830  0.98660  0.31640  Biso   1.000  H
  C750     1.0000 0.68334  0.95590  0.23150  Biso   1.000  C
  H837     1.0000 0.66610  0.96930  0.21310  Biso   1.000  H
  C751     1.0000 0.68956  0.92654  0.19740  Biso   1.000  C
  H838     1.0000 0.67630  0.91970  0.15530  Biso   1.000  H
  C752     1.0000 0.71495  0.90617  0.22280  Biso   1.000  C
  C753     1.0000 0.72038  0.87521  0.18190  Biso   1.000  C
  C754     1.0000 0.77686  0.81397  0.17220  Biso   1.000  C
  C755     1.0000 0.78779  0.78491  0.12650  Biso   1.000  C
  H839     1.0000 0.76900  0.77590  0.09750  Biso   1.000  H
  H840     1.0000 0.79580  0.76780  0.16230  Biso   1.000  H
  C756     1.0000 0.81610  0.79440  0.06770  Biso   1.000  C
  H841     1.0000 0.83540  0.80180  0.09740  Biso   1.000  H
  H842     1.0000 0.80870  0.81300  0.03550  Biso   1.000  H
  C757     1.0000 0.82710  0.76460  0.01100  Biso   1.000  C
  H843     1.0000 0.83780  0.74720  0.04180  Biso   1.000  H
  H844     1.0000 0.80750  0.75500  0.98600  Biso   1.000  H
  C758     1.0000 0.84740  0.77520  0.95760  Biso   1.000  C
  H845     1.0000 0.86810  0.78380  0.97940  Biso   1.000  H
  H846     1.0000 0.83740  0.79160  0.92270  Biso   1.000  H
  C759     1.0000 0.85180  0.73870  0.91620  Biso   1.000  C
  H847     1.0000 0.83060  0.72770  0.91350  Biso   1.000  H
  H848     1.0000 0.86690  0.72540  0.94700  Biso   1.000  H
  H849     1.0000 0.86060  0.74140  0.86390  Biso   1.000  H
  C760     1.0000 0.86059  0.55641  0.63330  Biso   1.000  C
  H850     1.0000 0.87680  0.54160  0.65160  Biso   1.000  H
  C761     1.0000 0.84345  0.57436  0.68660  Biso   1.000  C
  H851     1.0000 0.84790  0.57210  0.74020  Biso   1.000  H
  C762     1.0000 0.81939  0.59593  0.66090  Biso   1.000  C
  C763     1.0000 0.81399  0.59749  0.58270  Biso   1.000  C
  H852     1.0000 0.79760  0.61160  0.56260  Biso   1.000  H
  C764     1.0000 0.83227  0.57862  0.53360  Biso   1.000  C
  H853     1.0000 0.82790  0.58000  0.47970  Biso   1.000  H
  C765     1.0000 0.79970  0.61700  0.71580  Biso   1.000  C
  H854     1.0000 0.77690  0.61710  0.69700  Biso   1.000  H
  H855     1.0000 0.80800  0.63970  0.71080  Biso   1.000  H
  Mn46     1.0000 0.20885  0.32646  0.56816  Biso   1.000  Mn
  O136     1.0000 0.23600  0.34498  0.49330  Biso   1.000  O
  O137     1.0000 0.22440  0.24550  0.42897  Biso   1.000  O
  O138     1.0000 0.18264  0.30058  0.63848  Biso   1.000  O
  N121     1.0000 0.21335  0.28403  0.52000  Biso   1.000  N
  N122     1.0000 0.19781  0.25820  0.56060  Biso   1.000  N
  C766     1.0000 0.24912  0.33182  0.43050  Biso   1.000  C
  C767     1.0000 0.26978  0.35176  0.38510  Biso   1.000  C
  H856     1.0000 0.27470  0.37340  0.40150  Biso   1.000  H
  C768     1.0000 0.28268  0.34013  0.31770  Biso   1.000  C
  H857     1.0000 0.29600  0.35420  0.28740  Biso   1.000  H
  C769     1.0000 0.27716  0.30885  0.29220  Biso   1.000  C
  H858     1.0000 0.28610  0.30140  0.24470  Biso   1.000  H
  C770     1.0000 0.25808  0.28839  0.33780  Biso   1.000  C
  H859     1.0000 0.25410  0.26660  0.32090  Biso   1.000  H
  C771     1.0000 0.24456  0.29877  0.40750  Biso   1.000  C
  C772     1.0000 0.22652  0.27482  0.45400  Biso   1.000  C
  C773     1.0000 0.18307  0.26948  0.62170  Biso   1.000  C
  C774     1.0000 0.16558  0.24659  0.67500  Biso   1.000  C
  H860     1.0000 0.16780  0.22400  0.65530  Biso   1.000  H
  H861     1.0000 0.17590  0.24750  0.72680  Biso   1.000  H
  C775     1.0000 0.12976  0.25493  0.68250  Biso   1.000  C
  H862     1.0000 0.11980  0.24110  0.72310  Biso   1.000  H
  H863     1.0000 0.12750  0.27800  0.69850  Biso   1.000  H
  C776     1.0000 0.11152  0.24967  0.60650  Biso   1.000  C
  H864     1.0000 0.11550  0.22710  0.58810  Biso   1.000  H
  H865     1.0000 0.12030  0.26490  0.56720  Biso   1.000  H
  C777     1.0000 0.07500  0.25500  0.61420  Biso   1.000  C
  H866     1.0000 0.07100  0.27770  0.63150  Biso   1.000  H
  H867     1.0000 0.06640  0.24010  0.65440  Biso   1.000  H
  C778     1.0000 0.05700  0.24920  0.54060  Biso   1.000  C
  H868     1.0000 0.05120  0.22600  0.53670  Biso   1.000  H
  H869     1.0000 0.03710  0.26250  0.53990  Biso   1.000  H
  H870     1.0000 0.07100  0.25530  0.49680  Biso   1.000  H
  Mn47     1.0000 0.21193  0.21060  0.50330  Biso   1.000  Mn
  O139     1.0000 0.17055  0.20228  0.46330  Biso   1.000  O
  O140     1.0000 0.18302  0.13526  0.64974  Biso   1.000  O
  O141     1.0000 0.25367  0.21339  0.55571  Biso   1.000  O
  N123     1.0000 0.20636  0.17627  0.57940  Biso   1.000  N
  N124     1.0000 0.23389  0.17153  0.62820  Biso   1.000  N
  N125     1.0000 0.23827  0.17650  0.41880  Biso   1.000  N
  C779     1.0000 0.14977  0.17844  0.48030  Biso   1.000  C
  C780     1.0000 0.12140  0.17626  0.43420  Biso   1.000  C
  H871     1.0000 0.11780  0.19180  0.39420  Biso   1.000  H
  C781     1.0000 0.09871  0.15155  0.44690  Biso   1.000  C
  H872     1.0000 0.07990  0.15020  0.41490  Biso   1.000  H
  C782     1.0000 0.10306  0.12898  0.50500  Biso   1.000  C
  H873     1.0000 0.08760  0.11200  0.51300  Biso   1.000  H
  C783     1.0000 0.12995  0.13158  0.55100  Biso   1.000  C
  H874     1.0000 0.13280  0.11620  0.59150  Biso   1.000  H
  C784     1.0000 0.15368  0.15602  0.54110  Biso   1.000  C
  C785     1.0000 0.18228  0.15567  0.59380  Biso   1.000  C
  C786     1.0000 0.25712  0.19192  0.60960  Biso   1.000  C
  C787     1.0000 0.28985  0.18910  0.64800  Biso   1.000  C
  H875     1.0000 0.29720  0.21110  0.66470  Biso   1.000  H
  H876     1.0000 0.28780  0.17520  0.69470  Biso   1.000  H
  C788     1.0000 0.31536  0.17426  0.59370  Biso   1.000  C
  H877     1.0000 0.33730  0.17650  0.61740  Biso   1.000  H
  H878     1.0000 0.31540  0.18660  0.54450  Biso   1.000  H
  C789     1.0000 0.30881  0.13835  0.57660  Biso   1.000  C
  H879     1.0000 0.30850  0.12600  0.62580  Biso   1.000  H
  H880     1.0000 0.28700  0.13620  0.55240  Biso   1.000  H
  C790     1.0000 0.33455  0.12310  0.52270  Biso   1.000  C
  H881     1.0000 0.35650  0.12530  0.54650  Biso   1.000  H
  H882     1.0000 0.33470  0.13510  0.47290  Biso   1.000  H
  C791     1.0000 0.32720  0.08690  0.50790  Biso   1.000  C
  H883     1.0000 0.30370  0.08420  0.49790  Biso   1.000  H
  H884     1.0000 0.33960  0.07940  0.46300  Biso   1.000  H
  H885     1.0000 0.33340  0.07410  0.55340  Biso   1.000  H
  C792     1.0000 0.26728  0.18515  0.39390  Biso   1.000  C
  H886     1.0000 0.27460  0.20680  0.40400  Biso   1.000  H
  C793     1.0000 0.28760  0.16430  0.35350  Biso   1.000  C
  H887     1.0000 0.30840  0.17160  0.33610  Biso   1.000  H
  C794     1.0000 0.27720  0.13242  0.33850  Biso   1.000  C
  C795     1.0000 0.24705  0.12461  0.36340  Biso   1.000  C
  H888     1.0000 0.23870  0.10340  0.35240  Biso   1.000  H
  C796     1.0000 0.22781  0.14600  0.40410  Biso   1.000  C
  H889     1.0000 0.20690  0.13920  0.42200  Biso   1.000  H
  C797     1.0000 0.29890  0.10979  0.29230  Biso   1.000  C
  H890     1.0000 0.29100  0.08710  0.29880  Biso   1.000  H
  H891     1.0000 0.32140  0.11090  0.31320  Biso   1.000  H
  Mn48     1.0000 0.27987  0.36290  0.77725  Biso   1.000  Mn
  O142     1.0000 0.25831  0.39919  0.81712  Biso   1.000  O
  O143     1.0000 0.20155  0.36759  0.62454  Biso   1.000  O
  O144     1.0000 0.29674  0.32497  0.72398  Biso   1.000  O
  N126     1.0000 0.24495  0.35622  0.70170  Biso   1.000  N
  N127     1.0000 0.24935  0.32813  0.65540  Biso   1.000  N
  N128     1.0000 0.35568  0.05859  0.05690  Biso   1.000  N
  C798     1.0000 0.23405  0.41588  0.78670  Biso   1.000  C
  C799     1.0000 0.22708  0.44637  0.82110  Biso   1.000  C
  H892     1.0000 0.23960  0.45350  0.86410  Biso   1.000  H
  C800     1.0000 0.20235  0.46598  0.79310  Biso   1.000  C
  H893     1.0000 0.19830  0.48660  0.81640  Biso   1.000  H
  C801     1.0000 0.18334  0.45590  0.73150  Biso   1.000  C
  H894     1.0000 0.16610  0.46930  0.71310  Biso   1.000  H
  C802     1.0000 0.18956  0.42654  0.69740  Biso   1.000  C
  H895     1.0000 0.17630  0.41970  0.65530  Biso   1.000  H
  C803     1.0000 0.21495  0.40617  0.72280  Biso   1.000  C
  C804     1.0000 0.22038  0.37521  0.68190  Biso   1.000  C
  C805     1.0000 0.27686  0.31397  0.67220  Biso   1.000  C
  C806     1.0000 0.28779  0.28491  0.62650  Biso   1.000  C
  H896     1.0000 0.26900  0.27590  0.59750  Biso   1.000  H
  H897     1.0000 0.29580  0.26780  0.66230  Biso   1.000  H
  C807     1.0000 0.31610  0.29440  0.56770  Biso   1.000  C
  H898     1.0000 0.33540  0.30180  0.59740  Biso   1.000  H
  H899     1.0000 0.30870  0.31300  0.53550  Biso   1.000  H
  C808     1.0000 0.32710  0.26460  0.51100  Biso   1.000  C
  H900     1.0000 0.33780  0.24720  0.54180  Biso   1.000  H
  H901     1.0000 0.30750  0.25500  0.48600  Biso   1.000  H
  C809     1.0000 0.34740  0.27520  0.45760  Biso   1.000  C
  H902     1.0000 0.36810  0.28380  0.47940  Biso   1.000  H
  H903     1.0000 0.33740  0.29160  0.42270  Biso   1.000  H
  C810     1.0000 0.35180  0.23870  0.41620  Biso   1.000  C
  H904     1.0000 0.33060  0.22770  0.41350  Biso   1.000  H
  H905     1.0000 0.36690  0.22540  0.44700  Biso   1.000  H
  H906     1.0000 0.36060  0.24140  0.36390  Biso   1.000  H
  C811     1.0000 0.36059  0.05641  0.13330  Biso   1.000  C
  H907     1.0000 0.37680  0.04160  0.15160  Biso   1.000  H
  C812     1.0000 0.34345  0.07436  0.18660  Biso   1.000  C
  H908     1.0000 0.34790  0.07210  0.24020  Biso   1.000  H
  C813     1.0000 0.31939  0.09593  0.16090  Biso   1.000  C
  C814     1.0000 0.31399  0.09749  0.08270  Biso   1.000  C
  H909     1.0000 0.29760  0.11160  0.06260  Biso   1.000  H
  C815     1.0000 0.33227  0.07862  0.03360  Biso   1.000  C
  H910     1.0000 0.32790  0.08000  0.97970  Biso   1.000  H
  C816     1.0000 0.29970  0.11700  0.21580  Biso   1.000  C
  H911     1.0000 0.27690  0.11710  0.19700  Biso   1.000  H
  H912     1.0000 0.30800  0.13970  0.21080  Biso   1.000  H
