data_image0
_cell_length_a       40.9064
_cell_length_b       40.9064
_cell_length_c       17.4574
_cell_angle_alpha    90
_cell_angle_beta     90
_cell_angle_gamma    90

_symmetry_space_group_name_H-M    "P 1"
_symmetry_int_tables_number       1

loop_
  _symmetry_equiv_pos_as_xyz
  'x, y, z'

loop_
  _atom_site_label
  _atom_site_occupancy
  _atom_site_fract_x
  _atom_site_fract_y
  _atom_site_fract_z
  _atom_site_thermal_displace_type
  _atom_site_B_iso_or_equiv
  _atom_site_type_symbol
  Mn1      1.0000 0.07662  0.04019  0.18411  Biso   1.000  Mn
  O1       1.0000 0.09454  0.01303  0.25969  Biso   1.000  O
  O2       1.0000 0.99453  0.02522  0.31964  Biso   1.000  O
  O3       1.0000 0.05125  0.06634  0.11309  Biso   1.000  O
  N1       1.0000 0.03399  0.03611  0.23084  Biso   1.000  N
  N2       1.0000 0.00835  0.05137  0.18890  Biso   1.000  N
  C1       1.0000 0.08075  0.00016  0.32213  Biso   1.000  C
  C2       1.0000 0.10029  0.98021  0.36810  Biso   1.000  C
  H1       1.0000 0.12210  0.97560  0.35290  Biso   1.000  H
  C3       1.0000 0.08840  0.96708  0.43550  Biso   1.000  C
  H2       1.0000 0.10210  0.95340  0.46560  Biso   1.000  H
  C4       1.0000 0.05689  0.97343  0.46010  Biso   1.000  C
  H3       1.0000 0.04910  0.96510  0.50750  Biso   1.000  H
  C5       1.0000 0.03685  0.99234  0.41340  Biso   1.000  C
  H4       1.0000 0.01500  0.99640  0.42890  Biso   1.000  H
  C6       1.0000 0.04811  0.00557  0.34406  Biso   1.000  C
  C7       1.0000 0.02440  0.02321  0.29661  Biso   1.000  C
  C8       1.0000 0.01991  0.06594  0.12827  Biso   1.000  C
  C9       1.0000 0.99763  0.08313  0.07333  Biso   1.000  C
  H5       1.0000 0.97480  0.08060  0.09100  Biso   1.000  H
  H6       1.0000 0.99950  0.07270  0.02240  Biso   1.000  H
  C10      1.0000 0.00533  0.11932  0.06550  Biso   1.000  C
  H7       1.0000 0.99140  0.12880  0.02480  Biso   1.000  H
  H8       1.0000 0.02840  0.12190  0.04980  Biso   1.000  H
  C11      1.0000 0.99962  0.13814  0.14040  Biso   1.000  C
  H9       1.0000 0.01430  0.12930  0.18040  Biso   1.000  H
  H10      1.0000 0.97680  0.13460  0.15740  Biso   1.000  H
  C12      1.0000 0.00571  0.17504  0.13240  Biso   1.000  C
  H11      1.0000 0.99120  0.18400  0.09210  Biso   1.000  H
  H12      1.0000 0.02860  0.17880  0.11640  Biso   1.000  H
  C13      1.0000 0.99921  0.19319  0.20870  Biso   1.000  C
  H13      1.0000 0.97760  0.18710  0.22830  Biso   1.000  H
  H14      1.0000 0.00000  0.21680  0.20000  Biso   1.000  H
  H15      1.0000 0.01600  0.18710  0.24630  Biso   1.000  H
  Mn2      1.0000 0.96017  0.03785  0.24507  Biso   1.000  Mn
  N3       1.0000 0.92616  0.04355  0.16866  Biso   1.000  N
  N4       1.0000 0.92170  0.01632  0.11937  Biso   1.000  N
  N5       1.0000 0.92618  0.01159  0.32875  Biso   1.000  N
  O4       1.0000 0.95153  0.07909  0.28429  Biso   1.000  O
  O5       1.0000 0.88506  0.06698  0.09968  Biso   1.000  O
  O6       1.0000 0.96312  0.99617  0.19315  Biso   1.000  O
  C14      1.0000 0.92774  0.10008  0.26819  Biso   1.000  C
  C15      1.0000 0.92513  0.12811  0.31450  Biso   1.000  C
  H16      1.0000 0.94030  0.13150  0.35490  Biso   1.000  H
  C16      1.0000 0.90074  0.15082  0.30200  Biso   1.000  C
  H17      1.0000 0.89940  0.16960  0.33390  Biso   1.000  H
  C17      1.0000 0.87843  0.14669  0.24420  Biso   1.000  C
  H18      1.0000 0.86140  0.16220  0.23670  Biso   1.000  H
  C18      1.0000 0.88095  0.11986  0.19721  Biso   1.000  C
  H19      1.0000 0.86580  0.11730  0.15650  Biso   1.000  H
  C19      1.0000 0.90533  0.09616  0.20783  Biso   1.000  C
  C20      1.0000 0.90548  0.06771  0.15578  Biso   1.000  C
  C21      1.0000 0.94181  0.99297  0.13822  Biso   1.000  C
  C22      1.0000 0.93984  0.96032  0.09880  Biso   1.000  C
  H20      1.0000 0.96200  0.95340  0.08290  Biso   1.000  H
  H21      1.0000 0.92610  0.96230  0.05230  Biso   1.000  H
  C23      1.0000 0.92504  0.93451  0.15280  Biso   1.000  C
  H22      1.0000 0.92760  0.91270  0.12910  Biso   1.000  H
  H23      1.0000 0.93750  0.93450  0.20140  Biso   1.000  H
  C24      1.0000 0.88929  0.94011  0.17030  Biso   1.000  C
  H24      1.0000 0.87700  0.94050  0.12150  Biso   1.000  H
  H25      1.0000 0.88680  0.96190  0.19450  Biso   1.000  H
  C25      1.0000 0.87416  0.91455  0.22260  Biso   1.000  C
  H26      1.0000 0.88660  0.91380  0.27120  Biso   1.000  H
  H27      1.0000 0.87600  0.89280  0.19800  Biso   1.000  H
  C26      1.0000 0.83800  0.92152  0.24030  Biso   1.000  C
  H28      1.0000 0.83570  0.94400  0.25900  Biso   1.000  H
  H29      1.0000 0.83030  0.90620  0.27950  Biso   1.000  H
  H30      1.0000 0.82500  0.91880  0.19360  Biso   1.000  H
  C27      1.0000 0.89615  0.02134  0.34550  Biso   1.000  C
  H31      1.0000 0.88940  0.04250  0.32940  Biso   1.000  H
  C28      1.0000 0.87425  0.00193  0.38540  Biso   1.000  C
  H32      1.0000 0.85300  0.01000  0.39670  Biso   1.000  H
  C29      1.0000 0.88310  0.97109  0.40870  Biso   1.000  C
  C30      1.0000 0.91400  0.96137  0.39240  Biso   1.000  C
  H33      1.0000 0.92130  0.94040  0.40850  Biso   1.000  H
  C31      1.0000 0.93483  0.98161  0.35270  Biso   1.000  C
  H34      1.0000 0.95630  0.97400  0.34170  Biso   1.000  H
  C32      1.0000 0.86023  0.94918  0.45400  Biso   1.000  C
  H35      1.0000 0.83730  0.95530  0.44280  Biso   1.000  H
  H36      1.0000 0.86350  0.92620  0.43810  Biso   1.000  H
  Mn3      1.0000 0.11288  0.97001  0.97416  Biso   1.000  Mn
  O7       1.0000 0.14867  0.99195  0.93405  Biso   1.000  O
  O8       1.0000 0.11813  0.04746  0.12779  Biso   1.000  O
  O9       1.0000 0.07537  0.95244  0.02720  Biso   1.000  O
  N6       1.0000 0.10629  0.00439  0.05004  Biso   1.000  N
  N7       1.0000 0.07849  0.99969  0.09708  Biso   1.000  N
  N8       1.0000 0.80875  0.89500  0.69200  Biso   1.000  N
  C33      1.0000 0.16570  0.01652  0.96427  Biso   1.000  C
  C34      1.0000 0.19556  0.02420  0.92879  Biso   1.000  C
  H37      1.0000 0.20240  0.01200  0.88530  Biso   1.000  H
  C35      1.0000 0.21499  0.04911  0.95610  Biso   1.000  C
  H38      1.0000 0.23510  0.05380  0.93120  Biso   1.000  H
  C36      1.0000 0.20575  0.06739  0.01943  Biso   1.000  C
  H39      1.0000 0.21930  0.08450  0.03820  Biso   1.000  H
  C37      1.0000 0.17651  0.06012  0.05434  Biso   1.000  C
  H40      1.0000 0.17000  0.07260  0.09760  Biso   1.000  H
  C38      1.0000 0.15592  0.03507  0.02880  Biso   1.000  C
  C39      1.0000 0.12541  0.02880  0.07019  Biso   1.000  C
  C40      1.0000 0.06475  0.97192  0.08098  Biso   1.000  C
  C41      1.0000 0.03628  0.96002  0.12780  Biso   1.000  C
  H41      1.0000 0.02790  0.97820  0.15970  Biso   1.000  H
  H42      1.0000 0.01850  0.95290  0.09310  Biso   1.000  H
  C42      1.0000 0.04635  0.93102  0.18040  Biso   1.000  C
  H43      1.0000 0.06280  0.93880  0.21770  Biso   1.000  H
  H44      1.0000 0.05680  0.91390  0.14860  Biso   1.000  H
  C43      1.0000 0.01803  0.91610  0.22350  Biso   1.000  C
  H45      1.0000 0.02010  0.89210  0.21760  Biso   1.000  H
  H46      1.0000 0.99790  0.92260  0.19570  Biso   1.000  H
  C44      1.0000 0.01300  0.92100  0.28830  Biso   1.000  C
  H47      1.0000 0.03390  0.91770  0.31590  Biso   1.000  H
  H48      1.0000 0.00740  0.94440  0.29360  Biso   1.000  H
  C45      1.0000 0.98652  0.90120  0.33120  Biso   1.000  C
  H49      1.0000 0.98130  0.88140  0.30220  Biso   1.000  H
  H50      1.0000 0.99460  0.89520  0.38210  Biso   1.000  H
  H51      1.0000 0.96680  0.91460  0.33660  Biso   1.000  H
  C46      1.0000 0.80683  0.89009  0.61681  Biso   1.000  C
  H52      1.0000 0.79240  0.87360  0.59870  Biso   1.000  H
  C47      1.0000 0.82471  0.90764  0.56360  Biso   1.000  C
  H53      1.0000 0.82260  0.90310  0.51040  Biso   1.000  H
  C48      1.0000 0.84563  0.93179  0.58890  Biso   1.000  C
  C49      1.0000 0.84718  0.93741  0.66670  Biso   1.000  C
  H54      1.0000 0.86090  0.95420  0.68650  Biso   1.000  H
  C50      1.0000 0.82864  0.91850  0.71560  Biso   1.000  C
  H55      1.0000 0.83020  0.92250  0.76910  Biso   1.000  H
  C51      1.0000 0.86620  0.95219  0.53450  Biso   1.000  C
  H56      1.0000 0.86320  0.97550  0.54860  Biso   1.000  H
  H57      1.0000 0.88940  0.94670  0.54380  Biso   1.000  H
  Mn4      1.0000 0.57662  0.54019  0.68411  Biso   1.000  Mn
  O10      1.0000 0.59454  0.51303  0.75969  Biso   1.000  O
  O11      1.0000 0.49453  0.52522  0.81964  Biso   1.000  O
  O12      1.0000 0.55125  0.56634  0.61309  Biso   1.000  O
  N9       1.0000 0.53399  0.53611  0.73084  Biso   1.000  N
  N10      1.0000 0.50835  0.55137  0.68890  Biso   1.000  N
  C52      1.0000 0.58075  0.50016  0.82213  Biso   1.000  C
  C53      1.0000 0.60029  0.48021  0.86810  Biso   1.000  C
  H58      1.0000 0.62210  0.47560  0.85290  Biso   1.000  H
  C54      1.0000 0.58840  0.46708  0.93550  Biso   1.000  C
  H59      1.0000 0.60210  0.45340  0.96560  Biso   1.000  H
  C55      1.0000 0.55689  0.47343  0.96010  Biso   1.000  C
  H60      1.0000 0.54910  0.46510  0.00750  Biso   1.000  H
  C56      1.0000 0.53685  0.49234  0.91340  Biso   1.000  C
  H61      1.0000 0.51500  0.49640  0.92890  Biso   1.000  H
  C57      1.0000 0.54811  0.50557  0.84406  Biso   1.000  C
  C58      1.0000 0.52440  0.52321  0.79661  Biso   1.000  C
  C59      1.0000 0.51991  0.56594  0.62827  Biso   1.000  C
  C60      1.0000 0.49763  0.58313  0.57333  Biso   1.000  C
  H62      1.0000 0.47480  0.58060  0.59100  Biso   1.000  H
  H63      1.0000 0.49950  0.57270  0.52240  Biso   1.000  H
  C61      1.0000 0.50533  0.61932  0.56550  Biso   1.000  C
  H64      1.0000 0.49140  0.62880  0.52480  Biso   1.000  H
  H65      1.0000 0.52840  0.62190  0.54980  Biso   1.000  H
  C62      1.0000 0.49962  0.63814  0.64040  Biso   1.000  C
  H66      1.0000 0.51430  0.62930  0.68040  Biso   1.000  H
  H67      1.0000 0.47680  0.63460  0.65740  Biso   1.000  H
  C63      1.0000 0.50571  0.67504  0.63240  Biso   1.000  C
  H68      1.0000 0.49120  0.68400  0.59210  Biso   1.000  H
  H69      1.0000 0.52860  0.67880  0.61640  Biso   1.000  H
  C64      1.0000 0.49921  0.69319  0.70870  Biso   1.000  C
  H70      1.0000 0.47760  0.68710  0.72830  Biso   1.000  H
  H71      1.0000 0.50000  0.71680  0.70000  Biso   1.000  H
  H72      1.0000 0.51600  0.68710  0.74630  Biso   1.000  H
  Mn5      1.0000 0.46017  0.53785  0.74507  Biso   1.000  Mn
  N11      1.0000 0.42616  0.54355  0.66866  Biso   1.000  N
  N12      1.0000 0.42170  0.51632  0.61937  Biso   1.000  N
  N13      1.0000 0.42618  0.51159  0.82875  Biso   1.000  N
  O13      1.0000 0.45153  0.57909  0.78429  Biso   1.000  O
  O14      1.0000 0.38506  0.56698  0.59968  Biso   1.000  O
  O15      1.0000 0.46312  0.49617  0.69315  Biso   1.000  O
  C65      1.0000 0.42774  0.60008  0.76819  Biso   1.000  C
  C66      1.0000 0.42513  0.62811  0.81450  Biso   1.000  C
  H73      1.0000 0.44030  0.63150  0.85490  Biso   1.000  H
  C67      1.0000 0.40074  0.65082  0.80200  Biso   1.000  C
  H74      1.0000 0.39940  0.66960  0.83390  Biso   1.000  H
  C68      1.0000 0.37843  0.64669  0.74420  Biso   1.000  C
  H75      1.0000 0.36140  0.66220  0.73670  Biso   1.000  H
  C69      1.0000 0.38095  0.61986  0.69721  Biso   1.000  C
  H76      1.0000 0.36580  0.61730  0.65650  Biso   1.000  H
  C70      1.0000 0.40533  0.59616  0.70783  Biso   1.000  C
  C71      1.0000 0.40548  0.56771  0.65578  Biso   1.000  C
  C72      1.0000 0.44181  0.49297  0.63822  Biso   1.000  C
  C73      1.0000 0.43984  0.46032  0.59880  Biso   1.000  C
  H77      1.0000 0.46200  0.45340  0.58290  Biso   1.000  H
  H78      1.0000 0.42610  0.46230  0.55230  Biso   1.000  H
  C74      1.0000 0.42504  0.43451  0.65280  Biso   1.000  C
  H79      1.0000 0.42760  0.41270  0.62910  Biso   1.000  H
  H80      1.0000 0.43750  0.43450  0.70140  Biso   1.000  H
  C75      1.0000 0.38929  0.44011  0.67030  Biso   1.000  C
  H81      1.0000 0.37700  0.44050  0.62150  Biso   1.000  H
  H82      1.0000 0.38680  0.46190  0.69450  Biso   1.000  H
  C76      1.0000 0.37416  0.41455  0.72260  Biso   1.000  C
  H83      1.0000 0.38660  0.41380  0.77120  Biso   1.000  H
  H84      1.0000 0.37600  0.39280  0.69800  Biso   1.000  H
  C77      1.0000 0.33800  0.42152  0.74030  Biso   1.000  C
  H85      1.0000 0.33570  0.44400  0.75900  Biso   1.000  H
  H86      1.0000 0.33030  0.40620  0.77950  Biso   1.000  H
  H87      1.0000 0.32500  0.41880  0.69360  Biso   1.000  H
  C78      1.0000 0.39615  0.52134  0.84550  Biso   1.000  C
  H88      1.0000 0.38940  0.54250  0.82940  Biso   1.000  H
  C79      1.0000 0.37425  0.50193  0.88540  Biso   1.000  C
  H89      1.0000 0.35300  0.51000  0.89670  Biso   1.000  H
  C80      1.0000 0.38310  0.47109  0.90870  Biso   1.000  C
  C81      1.0000 0.41400  0.46137  0.89240  Biso   1.000  C
  H90      1.0000 0.42130  0.44040  0.90850  Biso   1.000  H
  C82      1.0000 0.43483  0.48161  0.85270  Biso   1.000  C
  H91      1.0000 0.45630  0.47400  0.84170  Biso   1.000  H
  C83      1.0000 0.36023  0.44918  0.95400  Biso   1.000  C
  H92      1.0000 0.33730  0.45530  0.94280  Biso   1.000  H
  H93      1.0000 0.36350  0.42620  0.93810  Biso   1.000  H
  Mn6      1.0000 0.61288  0.47001  0.47416  Biso   1.000  Mn
  O16      1.0000 0.64867  0.49195  0.43405  Biso   1.000  O
  O17      1.0000 0.61813  0.54746  0.62779  Biso   1.000  O
  O18      1.0000 0.57537  0.45244  0.52720  Biso   1.000  O
  N14      1.0000 0.60629  0.50439  0.55004  Biso   1.000  N
  N15      1.0000 0.57849  0.49969  0.59708  Biso   1.000  N
  N16      1.0000 0.30875  0.39500  0.19200  Biso   1.000  N
  C84      1.0000 0.66570  0.51652  0.46427  Biso   1.000  C
  C85      1.0000 0.69556  0.52420  0.42879  Biso   1.000  C
  H94      1.0000 0.70240  0.51200  0.38530  Biso   1.000  H
  C86      1.0000 0.71499  0.54911  0.45610  Biso   1.000  C
  H95      1.0000 0.73510  0.55380  0.43120  Biso   1.000  H
  C87      1.0000 0.70575  0.56739  0.51943  Biso   1.000  C
  H96      1.0000 0.71930  0.58450  0.53820  Biso   1.000  H
  C88      1.0000 0.67651  0.56012  0.55434  Biso   1.000  C
  H97      1.0000 0.67000  0.57260  0.59760  Biso   1.000  H
  C89      1.0000 0.65592  0.53507  0.52880  Biso   1.000  C
  C90      1.0000 0.62541  0.52880  0.57019  Biso   1.000  C
  C91      1.0000 0.56475  0.47192  0.58098  Biso   1.000  C
  C92      1.0000 0.53628  0.46002  0.62780  Biso   1.000  C
  H98      1.0000 0.52790  0.47820  0.65970  Biso   1.000  H
  H99      1.0000 0.51850  0.45290  0.59310  Biso   1.000  H
  C93      1.0000 0.54635  0.43102  0.68040  Biso   1.000  C
  H100     1.0000 0.56280  0.43880  0.71770  Biso   1.000  H
  H101     1.0000 0.55680  0.41390  0.64860  Biso   1.000  H
  C94      1.0000 0.51803  0.41610  0.72350  Biso   1.000  C
  H102     1.0000 0.52010  0.39210  0.71760  Biso   1.000  H
  H103     1.0000 0.49790  0.42260  0.69570  Biso   1.000  H
  C95      1.0000 0.51300  0.42100  0.78830  Biso   1.000  C
  H104     1.0000 0.53390  0.41770  0.81590  Biso   1.000  H
  H105     1.0000 0.50740  0.44440  0.79360  Biso   1.000  H
  C96      1.0000 0.48652  0.40120  0.83120  Biso   1.000  C
  H106     1.0000 0.48130  0.38140  0.80220  Biso   1.000  H
  H107     1.0000 0.49460  0.39520  0.88210  Biso   1.000  H
  H108     1.0000 0.46680  0.41460  0.83660  Biso   1.000  H
  C97      1.0000 0.30683  0.39009  0.11681  Biso   1.000  C
  H109     1.0000 0.29240  0.37360  0.09870  Biso   1.000  H
  C98      1.0000 0.32471  0.40764  0.06360  Biso   1.000  C
  H110     1.0000 0.32260  0.40310  0.01040  Biso   1.000  H
  C99      1.0000 0.34563  0.43179  0.08890  Biso   1.000  C
  C100     1.0000 0.34718  0.43741  0.16670  Biso   1.000  C
  H111     1.0000 0.36090  0.45420  0.18650  Biso   1.000  H
  C101     1.0000 0.32864  0.41850  0.21560  Biso   1.000  C
  H112     1.0000 0.33020  0.42250  0.26910  Biso   1.000  H
  C102     1.0000 0.36620  0.45219  0.03450  Biso   1.000  C
  H113     1.0000 0.36320  0.47550  0.04860  Biso   1.000  H
  H114     1.0000 0.38940  0.44670  0.04380  Biso   1.000  H
  Mn7      1.0000 0.42338  0.95981  0.68411  Biso   1.000  Mn
  O19      1.0000 0.40546  0.98697  0.75969  Biso   1.000  O
  O20      1.0000 0.50547  0.97478  0.81964  Biso   1.000  O
  O21      1.0000 0.44875  0.93366  0.61309  Biso   1.000  O
  N17      1.0000 0.46601  0.96389  0.73084  Biso   1.000  N
  N18      1.0000 0.49165  0.94863  0.68890  Biso   1.000  N
  C103     1.0000 0.41925  0.99984  0.82213  Biso   1.000  C
  C104     1.0000 0.39971  0.01979  0.86810  Biso   1.000  C
  H115     1.0000 0.37790  0.02440  0.85290  Biso   1.000  H
  C105     1.0000 0.41160  0.03292  0.93550  Biso   1.000  C
  H116     1.0000 0.39790  0.04660  0.96560  Biso   1.000  H
  C106     1.0000 0.44311  0.02657  0.96010  Biso   1.000  C
  H117     1.0000 0.45090  0.03490  0.00750  Biso   1.000  H
  C107     1.0000 0.46315  0.00766  0.91340  Biso   1.000  C
  H118     1.0000 0.48500  0.00360  0.92890  Biso   1.000  H
  C108     1.0000 0.45189  0.99443  0.84406  Biso   1.000  C
  C109     1.0000 0.47560  0.97679  0.79661  Biso   1.000  C
  C110     1.0000 0.48009  0.93406  0.62827  Biso   1.000  C
  C111     1.0000 0.50237  0.91687  0.57333  Biso   1.000  C
  H119     1.0000 0.52520  0.91940  0.59100  Biso   1.000  H
  H120     1.0000 0.50050  0.92730  0.52240  Biso   1.000  H
  C112     1.0000 0.49467  0.88068  0.56550  Biso   1.000  C
  H121     1.0000 0.50860  0.87120  0.52480  Biso   1.000  H
  H122     1.0000 0.47160  0.87810  0.54980  Biso   1.000  H
  C113     1.0000 0.50038  0.86186  0.64040  Biso   1.000  C
  H123     1.0000 0.48570  0.87070  0.68040  Biso   1.000  H
  H124     1.0000 0.52320  0.86540  0.65740  Biso   1.000  H
  C114     1.0000 0.49429  0.82496  0.63240  Biso   1.000  C
  H125     1.0000 0.50880  0.81600  0.59210  Biso   1.000  H
  H126     1.0000 0.47140  0.82120  0.61640  Biso   1.000  H
  C115     1.0000 0.50079  0.80681  0.70870  Biso   1.000  C
  H127     1.0000 0.52240  0.81290  0.72830  Biso   1.000  H
  H128     1.0000 0.50000  0.78320  0.70000  Biso   1.000  H
  H129     1.0000 0.48400  0.81290  0.74630  Biso   1.000  H
  Mn8      1.0000 0.53983  0.96215  0.74507  Biso   1.000  Mn
  N19      1.0000 0.57384  0.95645  0.66866  Biso   1.000  N
  N20      1.0000 0.57830  0.98368  0.61937  Biso   1.000  N
  N21      1.0000 0.57382  0.98841  0.82875  Biso   1.000  N
  O22      1.0000 0.54847  0.92091  0.78429  Biso   1.000  O
  O23      1.0000 0.61494  0.93302  0.59968  Biso   1.000  O
  O24      1.0000 0.53688  0.00383  0.69315  Biso   1.000  O
  C116     1.0000 0.57226  0.89992  0.76819  Biso   1.000  C
  C117     1.0000 0.57487  0.87189  0.81450  Biso   1.000  C
  H130     1.0000 0.55970  0.86850  0.85490  Biso   1.000  H
  C118     1.0000 0.59926  0.84918  0.80200  Biso   1.000  C
  H131     1.0000 0.60060  0.83040  0.83390  Biso   1.000  H
  C119     1.0000 0.62157  0.85331  0.74420  Biso   1.000  C
  H132     1.0000 0.63860  0.83780  0.73670  Biso   1.000  H
  C120     1.0000 0.61905  0.88014  0.69721  Biso   1.000  C
  H133     1.0000 0.63420  0.88270  0.65650  Biso   1.000  H
  C121     1.0000 0.59467  0.90384  0.70783  Biso   1.000  C
  C122     1.0000 0.59452  0.93229  0.65578  Biso   1.000  C
  C123     1.0000 0.55819  0.00703  0.63822  Biso   1.000  C
  C124     1.0000 0.56016  0.03968  0.59880  Biso   1.000  C
  H134     1.0000 0.53800  0.04660  0.58290  Biso   1.000  H
  H135     1.0000 0.57390  0.03770  0.55230  Biso   1.000  H
  C125     1.0000 0.57496  0.06549  0.65280  Biso   1.000  C
  H136     1.0000 0.57240  0.08730  0.62910  Biso   1.000  H
  H137     1.0000 0.56250  0.06550  0.70140  Biso   1.000  H
  C126     1.0000 0.61071  0.05989  0.67030  Biso   1.000  C
  H138     1.0000 0.62300  0.05950  0.62150  Biso   1.000  H
  H139     1.0000 0.61320  0.03810  0.69450  Biso   1.000  H
  C127     1.0000 0.62584  0.08545  0.72260  Biso   1.000  C
  H140     1.0000 0.61340  0.08620  0.77120  Biso   1.000  H
  H141     1.0000 0.62400  0.10720  0.69800  Biso   1.000  H
  C128     1.0000 0.66200  0.07848  0.74030  Biso   1.000  C
  H142     1.0000 0.66430  0.05600  0.75900  Biso   1.000  H
  H143     1.0000 0.66970  0.09380  0.77950  Biso   1.000  H
  H144     1.0000 0.67500  0.08120  0.69360  Biso   1.000  H
  C129     1.0000 0.60385  0.97866  0.84550  Biso   1.000  C
  H145     1.0000 0.61060  0.95750  0.82940  Biso   1.000  H
  C130     1.0000 0.62575  0.99807  0.88540  Biso   1.000  C
  H146     1.0000 0.64700  0.99000  0.89670  Biso   1.000  H
  C131     1.0000 0.61690  0.02891  0.90870  Biso   1.000  C
  C132     1.0000 0.58600  0.03863  0.89240  Biso   1.000  C
  H147     1.0000 0.57870  0.05960  0.90850  Biso   1.000  H
  C133     1.0000 0.56517  0.01839  0.85270  Biso   1.000  C
  H148     1.0000 0.54370  0.02600  0.84170  Biso   1.000  H
  C134     1.0000 0.63977  0.05082  0.95400  Biso   1.000  C
  H149     1.0000 0.66270  0.04470  0.94280  Biso   1.000  H
  H150     1.0000 0.63650  0.07380  0.93810  Biso   1.000  H
  Mn9      1.0000 0.38712  0.02999  0.47416  Biso   1.000  Mn
  O25      1.0000 0.35133  0.00805  0.43405  Biso   1.000  O
  O26      1.0000 0.38187  0.95254  0.62779  Biso   1.000  O
  O27      1.0000 0.42463  0.04756  0.52720  Biso   1.000  O
  N22      1.0000 0.39371  0.99561  0.55004  Biso   1.000  N
  N23      1.0000 0.42151  0.00031  0.59708  Biso   1.000  N
  N24      1.0000 0.69125  0.10500  0.19200  Biso   1.000  N
  C135     1.0000 0.33430  0.98348  0.46427  Biso   1.000  C
  C136     1.0000 0.30444  0.97580  0.42879  Biso   1.000  C
  H151     1.0000 0.29760  0.98800  0.38530  Biso   1.000  H
  C137     1.0000 0.28501  0.95089  0.45610  Biso   1.000  C
  H152     1.0000 0.26490  0.94620  0.43120  Biso   1.000  H
  C138     1.0000 0.29425  0.93261  0.51943  Biso   1.000  C
  H153     1.0000 0.28070  0.91550  0.53820  Biso   1.000  H
  C139     1.0000 0.32349  0.93988  0.55434  Biso   1.000  C
  H154     1.0000 0.33000  0.92740  0.59760  Biso   1.000  H
  C140     1.0000 0.34408  0.96493  0.52880  Biso   1.000  C
  C141     1.0000 0.37459  0.97120  0.57019  Biso   1.000  C
  C142     1.0000 0.43525  0.02808  0.58098  Biso   1.000  C
  C143     1.0000 0.46372  0.03998  0.62780  Biso   1.000  C
  H155     1.0000 0.47210  0.02180  0.65970  Biso   1.000  H
  H156     1.0000 0.48150  0.04710  0.59310  Biso   1.000  H
  C144     1.0000 0.45365  0.06898  0.68040  Biso   1.000  C
  H157     1.0000 0.43720  0.06120  0.71770  Biso   1.000  H
  H158     1.0000 0.44320  0.08610  0.64860  Biso   1.000  H
  C145     1.0000 0.48197  0.08390  0.72350  Biso   1.000  C
  H159     1.0000 0.47990  0.10790  0.71760  Biso   1.000  H
  H160     1.0000 0.50210  0.07740  0.69570  Biso   1.000  H
  C146     1.0000 0.48700  0.07900  0.78830  Biso   1.000  C
  H161     1.0000 0.46610  0.08230  0.81590  Biso   1.000  H
  H162     1.0000 0.49260  0.05560  0.79360  Biso   1.000  H
  C147     1.0000 0.51348  0.09880  0.83120  Biso   1.000  C
  H163     1.0000 0.51870  0.11860  0.80220  Biso   1.000  H
  H164     1.0000 0.50540  0.10480  0.88210  Biso   1.000  H
  H165     1.0000 0.53320  0.08540  0.83660  Biso   1.000  H
  C148     1.0000 0.69317  0.10991  0.11681  Biso   1.000  C
  H166     1.0000 0.70760  0.12640  0.09870  Biso   1.000  H
  C149     1.0000 0.67529  0.09236  0.06360  Biso   1.000  C
  H167     1.0000 0.67740  0.09690  0.01040  Biso   1.000  H
  C150     1.0000 0.65437  0.06821  0.08890  Biso   1.000  C
  C151     1.0000 0.65282  0.06259  0.16670  Biso   1.000  C
  H168     1.0000 0.63910  0.04580  0.18650  Biso   1.000  H
  C152     1.0000 0.67136  0.08150  0.21560  Biso   1.000  C
  H169     1.0000 0.66980  0.07750  0.26910  Biso   1.000  H
  C153     1.0000 0.63380  0.04781  0.03450  Biso   1.000  C
  H170     1.0000 0.63680  0.02450  0.04860  Biso   1.000  H
  H171     1.0000 0.61060  0.05330  0.04380  Biso   1.000  H
  Mn10     1.0000 0.92338  0.45981  0.18411  Biso   1.000  Mn
  O28      1.0000 0.90546  0.48697  0.25969  Biso   1.000  O
  O29      1.0000 0.00547  0.47478  0.31964  Biso   1.000  O
  O30      1.0000 0.94875  0.43366  0.11309  Biso   1.000  O
  N25      1.0000 0.96601  0.46389  0.23084  Biso   1.000  N
  N26      1.0000 0.99165  0.44863  0.18890  Biso   1.000  N
  C154     1.0000 0.91925  0.49984  0.32213  Biso   1.000  C
  C155     1.0000 0.89971  0.51979  0.36810  Biso   1.000  C
  H172     1.0000 0.87790  0.52440  0.35290  Biso   1.000  H
  C156     1.0000 0.91160  0.53292  0.43550  Biso   1.000  C
  H173     1.0000 0.89790  0.54660  0.46560  Biso   1.000  H
  C157     1.0000 0.94311  0.52657  0.46010  Biso   1.000  C
  H174     1.0000 0.95090  0.53490  0.50750  Biso   1.000  H
  C158     1.0000 0.96315  0.50766  0.41340  Biso   1.000  C
  H175     1.0000 0.98500  0.50360  0.42890  Biso   1.000  H
  C159     1.0000 0.95189  0.49443  0.34406  Biso   1.000  C
  C160     1.0000 0.97560  0.47679  0.29661  Biso   1.000  C
  C161     1.0000 0.98009  0.43406  0.12827  Biso   1.000  C
  C162     1.0000 0.00237  0.41687  0.07333  Biso   1.000  C
  H176     1.0000 0.02520  0.41940  0.09100  Biso   1.000  H
  H177     1.0000 0.00050  0.42730  0.02240  Biso   1.000  H
  C163     1.0000 0.99467  0.38068  0.06550  Biso   1.000  C
  H178     1.0000 0.00860  0.37120  0.02480  Biso   1.000  H
  H179     1.0000 0.97160  0.37810  0.04980  Biso   1.000  H
  C164     1.0000 0.00038  0.36186  0.14040  Biso   1.000  C
  H180     1.0000 0.98570  0.37070  0.18040  Biso   1.000  H
  H181     1.0000 0.02320  0.36540  0.15740  Biso   1.000  H
  C165     1.0000 0.99429  0.32496  0.13240  Biso   1.000  C
  H182     1.0000 0.00880  0.31600  0.09210  Biso   1.000  H
  H183     1.0000 0.97140  0.32120  0.11640  Biso   1.000  H
  C166     1.0000 0.00079  0.30681  0.20870  Biso   1.000  C
  H184     1.0000 0.02240  0.31290  0.22830  Biso   1.000  H
  H185     1.0000 0.00000  0.28320  0.20000  Biso   1.000  H
  H186     1.0000 0.98400  0.31290  0.24630  Biso   1.000  H
  Mn11     1.0000 0.03983  0.46215  0.24507  Biso   1.000  Mn
  N27      1.0000 0.07384  0.45645  0.16866  Biso   1.000  N
  N28      1.0000 0.07830  0.48368  0.11937  Biso   1.000  N
  N29      1.0000 0.07382  0.48841  0.32875  Biso   1.000  N
  O31      1.0000 0.04847  0.42091  0.28429  Biso   1.000  O
  O32      1.0000 0.11494  0.43302  0.09968  Biso   1.000  O
  O33      1.0000 0.03688  0.50383  0.19315  Biso   1.000  O
  C167     1.0000 0.07226  0.39992  0.26819  Biso   1.000  C
  C168     1.0000 0.07487  0.37189  0.31450  Biso   1.000  C
  H187     1.0000 0.05970  0.36850  0.35490  Biso   1.000  H
  C169     1.0000 0.09926  0.34918  0.30200  Biso   1.000  C
  H188     1.0000 0.10060  0.33040  0.33390  Biso   1.000  H
  C170     1.0000 0.12157  0.35331  0.24420  Biso   1.000  C
  H189     1.0000 0.13860  0.33780  0.23670  Biso   1.000  H
  C171     1.0000 0.11905  0.38014  0.19721  Biso   1.000  C
  H190     1.0000 0.13420  0.38270  0.15650  Biso   1.000  H
  C172     1.0000 0.09467  0.40384  0.20783  Biso   1.000  C
  C173     1.0000 0.09452  0.43229  0.15578  Biso   1.000  C
  C174     1.0000 0.05819  0.50703  0.13822  Biso   1.000  C
  C175     1.0000 0.06016  0.53968  0.09880  Biso   1.000  C
  H191     1.0000 0.03800  0.54660  0.08290  Biso   1.000  H
  H192     1.0000 0.07390  0.53770  0.05230  Biso   1.000  H
  C176     1.0000 0.07496  0.56549  0.15280  Biso   1.000  C
  H193     1.0000 0.07240  0.58730  0.12910  Biso   1.000  H
  H194     1.0000 0.06250  0.56550  0.20140  Biso   1.000  H
  C177     1.0000 0.11071  0.55989  0.17030  Biso   1.000  C
  H195     1.0000 0.12300  0.55950  0.12150  Biso   1.000  H
  H196     1.0000 0.11320  0.53810  0.19450  Biso   1.000  H
  C178     1.0000 0.12584  0.58545  0.22260  Biso   1.000  C
  H197     1.0000 0.11340  0.58620  0.27120  Biso   1.000  H
  H198     1.0000 0.12400  0.60720  0.19800  Biso   1.000  H
  C179     1.0000 0.16200  0.57848  0.24030  Biso   1.000  C
  H199     1.0000 0.16430  0.55600  0.25900  Biso   1.000  H
  H200     1.0000 0.16970  0.59380  0.27950  Biso   1.000  H
  H201     1.0000 0.17500  0.58120  0.19360  Biso   1.000  H
  C180     1.0000 0.10385  0.47866  0.34550  Biso   1.000  C
  H202     1.0000 0.11060  0.45750  0.32940  Biso   1.000  H
  C181     1.0000 0.12575  0.49807  0.38540  Biso   1.000  C
  H203     1.0000 0.14700  0.49000  0.39670  Biso   1.000  H
  C182     1.0000 0.11690  0.52891  0.40870  Biso   1.000  C
  C183     1.0000 0.08600  0.53863  0.39240  Biso   1.000  C
  H204     1.0000 0.07870  0.55960  0.40850  Biso   1.000  H
  C184     1.0000 0.06517  0.51839  0.35270  Biso   1.000  C
  H205     1.0000 0.04370  0.52600  0.34170  Biso   1.000  H
  C185     1.0000 0.13977  0.55082  0.45400  Biso   1.000  C
  H206     1.0000 0.16270  0.54470  0.44280  Biso   1.000  H
  H207     1.0000 0.13650  0.57380  0.43810  Biso   1.000  H
  Mn12     1.0000 0.88712  0.52999  0.97416  Biso   1.000  Mn
  O34      1.0000 0.85133  0.50805  0.93405  Biso   1.000  O
  O35      1.0000 0.88187  0.45254  0.12779  Biso   1.000  O
  O36      1.0000 0.92463  0.54756  0.02720  Biso   1.000  O
  N30      1.0000 0.89371  0.49561  0.05004  Biso   1.000  N
  N31      1.0000 0.92151  0.50031  0.09708  Biso   1.000  N
  N32      1.0000 0.19125  0.60500  0.69200  Biso   1.000  N
  C186     1.0000 0.83430  0.48348  0.96427  Biso   1.000  C
  C187     1.0000 0.80444  0.47580  0.92879  Biso   1.000  C
  H208     1.0000 0.79760  0.48800  0.88530  Biso   1.000  H
  C188     1.0000 0.78501  0.45089  0.95610  Biso   1.000  C
  H209     1.0000 0.76490  0.44620  0.93120  Biso   1.000  H
  C189     1.0000 0.79425  0.43261  0.01943  Biso   1.000  C
  H210     1.0000 0.78070  0.41550  0.03820  Biso   1.000  H
  C190     1.0000 0.82349  0.43988  0.05434  Biso   1.000  C
  H211     1.0000 0.83000  0.42740  0.09760  Biso   1.000  H
  C191     1.0000 0.84408  0.46493  0.02880  Biso   1.000  C
  C192     1.0000 0.87459  0.47120  0.07019  Biso   1.000  C
  C193     1.0000 0.93525  0.52808  0.08098  Biso   1.000  C
  C194     1.0000 0.96372  0.53998  0.12780  Biso   1.000  C
  H212     1.0000 0.97210  0.52180  0.15970  Biso   1.000  H
  H213     1.0000 0.98150  0.54710  0.09310  Biso   1.000  H
  C195     1.0000 0.95365  0.56898  0.18040  Biso   1.000  C
  H214     1.0000 0.93720  0.56120  0.21770  Biso   1.000  H
  H215     1.0000 0.94320  0.58610  0.14860  Biso   1.000  H
  C196     1.0000 0.98197  0.58390  0.22350  Biso   1.000  C
  H216     1.0000 0.97990  0.60790  0.21760  Biso   1.000  H
  H217     1.0000 0.00210  0.57740  0.19570  Biso   1.000  H
  C197     1.0000 0.98700  0.57900  0.28830  Biso   1.000  C
  H218     1.0000 0.96610  0.58230  0.31590  Biso   1.000  H
  H219     1.0000 0.99260  0.55560  0.29360  Biso   1.000  H
  C198     1.0000 0.01348  0.59880  0.33120  Biso   1.000  C
  H220     1.0000 0.01870  0.61860  0.30220  Biso   1.000  H
  H221     1.0000 0.00540  0.60480  0.38210  Biso   1.000  H
  H222     1.0000 0.03320  0.58540  0.33660  Biso   1.000  H
  C199     1.0000 0.19317  0.60991  0.61681  Biso   1.000  C
  H223     1.0000 0.20760  0.62640  0.59870  Biso   1.000  H
  C200     1.0000 0.17529  0.59236  0.56360  Biso   1.000  C
  H224     1.0000 0.17740  0.59690  0.51040  Biso   1.000  H
  C201     1.0000 0.15437  0.56821  0.58890  Biso   1.000  C
  C202     1.0000 0.15282  0.56259  0.66670  Biso   1.000  C
  H225     1.0000 0.13910  0.54580  0.68650  Biso   1.000  H
  C203     1.0000 0.17136  0.58150  0.71560  Biso   1.000  C
  H226     1.0000 0.16980  0.57750  0.76910  Biso   1.000  H
  C204     1.0000 0.13380  0.54781  0.53450  Biso   1.000  C
  H227     1.0000 0.13680  0.52450  0.54860  Biso   1.000  H
  H228     1.0000 0.11060  0.55330  0.54380  Biso   1.000  H
  Mn13     1.0000 0.70981  0.32662  0.43411  Biso   1.000  Mn
  O37      1.0000 0.73697  0.34454  0.50969  Biso   1.000  O
  O38      1.0000 0.72478  0.24453  0.56964  Biso   1.000  O
  O39      1.0000 0.68366  0.30125  0.36309  Biso   1.000  O
  N33      1.0000 0.71389  0.28399  0.48084  Biso   1.000  N
  N34      1.0000 0.69863  0.25835  0.43890  Biso   1.000  N
  C205     1.0000 0.74984  0.33075  0.57213  Biso   1.000  C
  C206     1.0000 0.76979  0.35029  0.61810  Biso   1.000  C
  H229     1.0000 0.77440  0.37210  0.60290  Biso   1.000  H
  C207     1.0000 0.78292  0.33840  0.68550  Biso   1.000  C
  H230     1.0000 0.79660  0.35210  0.71560  Biso   1.000  H
  C208     1.0000 0.77657  0.30689  0.71010  Biso   1.000  C
  H231     1.0000 0.78490  0.29910  0.75750  Biso   1.000  H
  C209     1.0000 0.75766  0.28685  0.66340  Biso   1.000  C
  H232     1.0000 0.75360  0.26500  0.67890  Biso   1.000  H
  C210     1.0000 0.74443  0.29811  0.59406  Biso   1.000  C
  C211     1.0000 0.72679  0.27440  0.54661  Biso   1.000  C
  C212     1.0000 0.68406  0.26991  0.37827  Biso   1.000  C
  C213     1.0000 0.66687  0.24763  0.32333  Biso   1.000  C
  H233     1.0000 0.66940  0.22480  0.34100  Biso   1.000  H
  H234     1.0000 0.67730  0.24950  0.27240  Biso   1.000  H
  C214     1.0000 0.63068  0.25533  0.31550  Biso   1.000  C
  H235     1.0000 0.62120  0.24140  0.27480  Biso   1.000  H
  H236     1.0000 0.62810  0.27840  0.29980  Biso   1.000  H
  C215     1.0000 0.61186  0.24962  0.39040  Biso   1.000  C
  H237     1.0000 0.62070  0.26430  0.43040  Biso   1.000  H
  H238     1.0000 0.61540  0.22680  0.40740  Biso   1.000  H
  C216     1.0000 0.57496  0.25571  0.38240  Biso   1.000  C
  H239     1.0000 0.56600  0.24120  0.34210  Biso   1.000  H
  H240     1.0000 0.57120  0.27860  0.36640  Biso   1.000  H
  C217     1.0000 0.55681  0.24921  0.45870  Biso   1.000  C
  H241     1.0000 0.56290  0.22760  0.47830  Biso   1.000  H
  H242     1.0000 0.53320  0.25000  0.45000  Biso   1.000  H
  H243     1.0000 0.56290  0.26600  0.49630  Biso   1.000  H
  Mn14     1.0000 0.71215  0.21017  0.49507  Biso   1.000  Mn
  N35      1.0000 0.70645  0.17616  0.41866  Biso   1.000  N
  N36      1.0000 0.73368  0.17170  0.36937  Biso   1.000  N
  N37      1.0000 0.73841  0.17618  0.57875  Biso   1.000  N
  O40      1.0000 0.67091  0.20153  0.53429  Biso   1.000  O
  O41      1.0000 0.68302  0.13506  0.34968  Biso   1.000  O
  O42      1.0000 0.75383  0.21312  0.44315  Biso   1.000  O
  C218     1.0000 0.64992  0.17774  0.51819  Biso   1.000  C
  C219     1.0000 0.62189  0.17513  0.56450  Biso   1.000  C
  H244     1.0000 0.61850  0.19030  0.60490  Biso   1.000  H
  C220     1.0000 0.59918  0.15074  0.55200  Biso   1.000  C
  H245     1.0000 0.58040  0.14940  0.58390  Biso   1.000  H
  C221     1.0000 0.60331  0.12843  0.49420  Biso   1.000  C
  H246     1.0000 0.58780  0.11140  0.48670  Biso   1.000  H
  C222     1.0000 0.63014  0.13095  0.44721  Biso   1.000  C
  H247     1.0000 0.63270  0.11580  0.40650  Biso   1.000  H
  C223     1.0000 0.65384  0.15533  0.45783  Biso   1.000  C
  C224     1.0000 0.68229  0.15548  0.40578  Biso   1.000  C
  C225     1.0000 0.75703  0.19181  0.38822  Biso   1.000  C
  C226     1.0000 0.78968  0.18984  0.34880  Biso   1.000  C
  H248     1.0000 0.79660  0.21200  0.33290  Biso   1.000  H
  H249     1.0000 0.78770  0.17610  0.30230  Biso   1.000  H
  C227     1.0000 0.81549  0.17504  0.40280  Biso   1.000  C
  H250     1.0000 0.83730  0.17760  0.37910  Biso   1.000  H
  H251     1.0000 0.81550  0.18750  0.45140  Biso   1.000  H
  C228     1.0000 0.80989  0.13929  0.42030  Biso   1.000  C
  H252     1.0000 0.80950  0.12700  0.37150  Biso   1.000  H
  H253     1.0000 0.78810  0.13680  0.44450  Biso   1.000  H
  C229     1.0000 0.83545  0.12416  0.47260  Biso   1.000  C
  H254     1.0000 0.83620  0.13660  0.52120  Biso   1.000  H
  H255     1.0000 0.85720  0.12600  0.44800  Biso   1.000  H
  C230     1.0000 0.82848  0.08800  0.49030  Biso   1.000  C
  H256     1.0000 0.80600  0.08570  0.50900  Biso   1.000  H
  H257     1.0000 0.84380  0.08030  0.52950  Biso   1.000  H
  H258     1.0000 0.83120  0.07500  0.44360  Biso   1.000  H
  C231     1.0000 0.72866  0.14615  0.59550  Biso   1.000  C
  H259     1.0000 0.70750  0.13940  0.57940  Biso   1.000  H
  C232     1.0000 0.74807  0.12425  0.63540  Biso   1.000  C
  H260     1.0000 0.74000  0.10300  0.64670  Biso   1.000  H
  C233     1.0000 0.77891  0.13310  0.65870  Biso   1.000  C
  C234     1.0000 0.78863  0.16400  0.64240  Biso   1.000  C
  H261     1.0000 0.80960  0.17130  0.65850  Biso   1.000  H
  C235     1.0000 0.76839  0.18483  0.60270  Biso   1.000  C
  H262     1.0000 0.77600  0.20630  0.59170  Biso   1.000  H
  C236     1.0000 0.80082  0.11023  0.70400  Biso   1.000  C
  H263     1.0000 0.79470  0.08730  0.69280  Biso   1.000  H
  H264     1.0000 0.82380  0.11350  0.68810  Biso   1.000  H
  Mn15     1.0000 0.77999  0.36288  0.22416  Biso   1.000  Mn
  O43      1.0000 0.75805  0.39867  0.18405  Biso   1.000  O
  O44      1.0000 0.70254  0.36813  0.37779  Biso   1.000  O
  O45      1.0000 0.79756  0.32537  0.27720  Biso   1.000  O
  N38      1.0000 0.74561  0.35629  0.30004  Biso   1.000  N
  N39      1.0000 0.75031  0.32849  0.34708  Biso   1.000  N
  N40      1.0000 0.85500  0.05875  0.94200  Biso   1.000  N
  C237     1.0000 0.73348  0.41570  0.21427  Biso   1.000  C
  C238     1.0000 0.72580  0.44556  0.17879  Biso   1.000  C
  H265     1.0000 0.73800  0.45240  0.13530  Biso   1.000  H
  C239     1.0000 0.70089  0.46499  0.20610  Biso   1.000  C
  H266     1.0000 0.69620  0.48510  0.18120  Biso   1.000  H
  C240     1.0000 0.68261  0.45575  0.26943  Biso   1.000  C
  H267     1.0000 0.66550  0.46930  0.28820  Biso   1.000  H
  C241     1.0000 0.68988  0.42651  0.30434  Biso   1.000  C
  H268     1.0000 0.67740  0.42000  0.34760  Biso   1.000  H
  C242     1.0000 0.71493  0.40592  0.27880  Biso   1.000  C
  C243     1.0000 0.72120  0.37541  0.32019  Biso   1.000  C
  C244     1.0000 0.77808  0.31475  0.33098  Biso   1.000  C
  C245     1.0000 0.78998  0.28628  0.37780  Biso   1.000  C
  H269     1.0000 0.77180  0.27790  0.40970  Biso   1.000  H
  H270     1.0000 0.79710  0.26850  0.34310  Biso   1.000  H
  C246     1.0000 0.81898  0.29635  0.43040  Biso   1.000  C
  H271     1.0000 0.81120  0.31280  0.46770  Biso   1.000  H
  H272     1.0000 0.83610  0.30680  0.39860  Biso   1.000  H
  C247     1.0000 0.83390  0.26803  0.47350  Biso   1.000  C
  H273     1.0000 0.85790  0.27010  0.46760  Biso   1.000  H
  H274     1.0000 0.82740  0.24790  0.44570  Biso   1.000  H
  C248     1.0000 0.82900  0.26300  0.53830  Biso   1.000  C
  H275     1.0000 0.83230  0.28390  0.56590  Biso   1.000  H
  H276     1.0000 0.80560  0.25740  0.54360  Biso   1.000  H
  C249     1.0000 0.84880  0.23652  0.58120  Biso   1.000  C
  H277     1.0000 0.86860  0.23130  0.55220  Biso   1.000  H
  H278     1.0000 0.85480  0.24460  0.63210  Biso   1.000  H
  H279     1.0000 0.83540  0.21680  0.58660  Biso   1.000  H
  C250     1.0000 0.85991  0.05683  0.86681  Biso   1.000  C
  H280     1.0000 0.87640  0.04240  0.84870  Biso   1.000  H
  C251     1.0000 0.84236  0.07471  0.81360  Biso   1.000  C
  H281     1.0000 0.84690  0.07260  0.76040  Biso   1.000  H
  C252     1.0000 0.81821  0.09563  0.83890  Biso   1.000  C
  C253     1.0000 0.81259  0.09718  0.91670  Biso   1.000  C
  H282     1.0000 0.79580  0.11090  0.93650  Biso   1.000  H
  C254     1.0000 0.83150  0.07864  0.96560  Biso   1.000  C
  H283     1.0000 0.82750  0.08020  0.01910  Biso   1.000  H
  C255     1.0000 0.79781  0.11620  0.78450  Biso   1.000  C
  H284     1.0000 0.77450  0.11320  0.79860  Biso   1.000  H
  H285     1.0000 0.80330  0.13940  0.79380  Biso   1.000  H
  Mn16     1.0000 0.20981  0.82662  0.93411  Biso   1.000  Mn
  O46      1.0000 0.23697  0.84454  0.00969  Biso   1.000  O
  O47      1.0000 0.22478  0.74453  0.06964  Biso   1.000  O
  O48      1.0000 0.18366  0.80125  0.86309  Biso   1.000  O
  N41      1.0000 0.21389  0.78399  0.98084  Biso   1.000  N
  N42      1.0000 0.19863  0.75835  0.93890  Biso   1.000  N
  C256     1.0000 0.24984  0.83075  0.07213  Biso   1.000  C
  C257     1.0000 0.26979  0.85029  0.11810  Biso   1.000  C
  H286     1.0000 0.27440  0.87210  0.10290  Biso   1.000  H
  C258     1.0000 0.28292  0.83840  0.18550  Biso   1.000  C
  H287     1.0000 0.29660  0.85210  0.21560  Biso   1.000  H
  C259     1.0000 0.27657  0.80689  0.21010  Biso   1.000  C
  H288     1.0000 0.28490  0.79910  0.25750  Biso   1.000  H
  C260     1.0000 0.25766  0.78685  0.16340  Biso   1.000  C
  H289     1.0000 0.25360  0.76500  0.17890  Biso   1.000  H
  C261     1.0000 0.24443  0.79811  0.09406  Biso   1.000  C
  C262     1.0000 0.22679  0.77440  0.04661  Biso   1.000  C
  C263     1.0000 0.18406  0.76991  0.87827  Biso   1.000  C
  C264     1.0000 0.16687  0.74763  0.82333  Biso   1.000  C
  H290     1.0000 0.16940  0.72480  0.84100  Biso   1.000  H
  H291     1.0000 0.17730  0.74950  0.77240  Biso   1.000  H
  C265     1.0000 0.13068  0.75533  0.81550  Biso   1.000  C
  H292     1.0000 0.12120  0.74140  0.77480  Biso   1.000  H
  H293     1.0000 0.12810  0.77840  0.79980  Biso   1.000  H
  C266     1.0000 0.11186  0.74962  0.89040  Biso   1.000  C
  H294     1.0000 0.12070  0.76430  0.93040  Biso   1.000  H
  H295     1.0000 0.11540  0.72680  0.90740  Biso   1.000  H
  C267     1.0000 0.07496  0.75571  0.88240  Biso   1.000  C
  H296     1.0000 0.06600  0.74120  0.84210  Biso   1.000  H
  H297     1.0000 0.07120  0.77860  0.86640  Biso   1.000  H
  C268     1.0000 0.05681  0.74921  0.95870  Biso   1.000  C
  H298     1.0000 0.06290  0.72760  0.97830  Biso   1.000  H
  H299     1.0000 0.03320  0.75000  0.95000  Biso   1.000  H
  H300     1.0000 0.06290  0.76600  0.99630  Biso   1.000  H
  Mn17     1.0000 0.21215  0.71017  0.99507  Biso   1.000  Mn
  N43      1.0000 0.20645  0.67616  0.91866  Biso   1.000  N
  N44      1.0000 0.23368  0.67170  0.86937  Biso   1.000  N
  N45      1.0000 0.23841  0.67618  0.07875  Biso   1.000  N
  O49      1.0000 0.17091  0.70153  0.03429  Biso   1.000  O
  O50      1.0000 0.18302  0.63506  0.84968  Biso   1.000  O
  O51      1.0000 0.25383  0.71312  0.94315  Biso   1.000  O
  C269     1.0000 0.14992  0.67774  0.01819  Biso   1.000  C
  C270     1.0000 0.12189  0.67513  0.06450  Biso   1.000  C
  H301     1.0000 0.11850  0.69030  0.10490  Biso   1.000  H
  C271     1.0000 0.09918  0.65074  0.05200  Biso   1.000  C
  H302     1.0000 0.08040  0.64940  0.08390  Biso   1.000  H
  C272     1.0000 0.10331  0.62843  0.99420  Biso   1.000  C
  H303     1.0000 0.08780  0.61140  0.98670  Biso   1.000  H
  C273     1.0000 0.13014  0.63095  0.94721  Biso   1.000  C
  H304     1.0000 0.13270  0.61580  0.90650  Biso   1.000  H
  C274     1.0000 0.15384  0.65533  0.95783  Biso   1.000  C
  C275     1.0000 0.18229  0.65548  0.90578  Biso   1.000  C
  C276     1.0000 0.25703  0.69181  0.88822  Biso   1.000  C
  C277     1.0000 0.28968  0.68984  0.84880  Biso   1.000  C
  H305     1.0000 0.29660  0.71200  0.83290  Biso   1.000  H
  H306     1.0000 0.28770  0.67610  0.80230  Biso   1.000  H
  C278     1.0000 0.31549  0.67504  0.90280  Biso   1.000  C
  H307     1.0000 0.33730  0.67760  0.87910  Biso   1.000  H
  H308     1.0000 0.31550  0.68750  0.95140  Biso   1.000  H
  C279     1.0000 0.30989  0.63929  0.92030  Biso   1.000  C
  H309     1.0000 0.30950  0.62700  0.87150  Biso   1.000  H
  H310     1.0000 0.28810  0.63680  0.94450  Biso   1.000  H
  C280     1.0000 0.33545  0.62416  0.97260  Biso   1.000  C
  H311     1.0000 0.33620  0.63660  0.02120  Biso   1.000  H
  H312     1.0000 0.35720  0.62600  0.94800  Biso   1.000  H
  C281     1.0000 0.32848  0.58800  0.99030  Biso   1.000  C
  H313     1.0000 0.30600  0.58570  0.00900  Biso   1.000  H
  H314     1.0000 0.34380  0.58030  0.02950  Biso   1.000  H
  H315     1.0000 0.33120  0.57500  0.94360  Biso   1.000  H
  C282     1.0000 0.22866  0.64615  0.09550  Biso   1.000  C
  H316     1.0000 0.20750  0.63940  0.07940  Biso   1.000  H
  C283     1.0000 0.24807  0.62425  0.13540  Biso   1.000  C
  H317     1.0000 0.24000  0.60300  0.14670  Biso   1.000  H
  C284     1.0000 0.27891  0.63310  0.15870  Biso   1.000  C
  C285     1.0000 0.28863  0.66400  0.14240  Biso   1.000  C
  H318     1.0000 0.30960  0.67130  0.15850  Biso   1.000  H
  C286     1.0000 0.26839  0.68483  0.10270  Biso   1.000  C
  H319     1.0000 0.27600  0.70630  0.09170  Biso   1.000  H
  C287     1.0000 0.30082  0.61023  0.20400  Biso   1.000  C
  H320     1.0000 0.29470  0.58730  0.19280  Biso   1.000  H
  H321     1.0000 0.32380  0.61350  0.18810  Biso   1.000  H
  Mn18     1.0000 0.27999  0.86288  0.72416  Biso   1.000  Mn
  O52      1.0000 0.25805  0.89867  0.68405  Biso   1.000  O
  O53      1.0000 0.20254  0.86813  0.87779  Biso   1.000  O
  O54      1.0000 0.29756  0.82537  0.77720  Biso   1.000  O
  N46      1.0000 0.24561  0.85629  0.80004  Biso   1.000  N
  N47      1.0000 0.25031  0.82849  0.84708  Biso   1.000  N
  N48      1.0000 0.35500  0.55875  0.44200  Biso   1.000  N
  C288     1.0000 0.23348  0.91570  0.71427  Biso   1.000  C
  C289     1.0000 0.22580  0.94556  0.67879  Biso   1.000  C
  H322     1.0000 0.23800  0.95240  0.63530  Biso   1.000  H
  C290     1.0000 0.20089  0.96499  0.70610  Biso   1.000  C
  H323     1.0000 0.19620  0.98510  0.68120  Biso   1.000  H
  C291     1.0000 0.18261  0.95575  0.76943  Biso   1.000  C
  H324     1.0000 0.16550  0.96930  0.78820  Biso   1.000  H
  C292     1.0000 0.18988  0.92651  0.80434  Biso   1.000  C
  H325     1.0000 0.17740  0.92000  0.84760  Biso   1.000  H
  C293     1.0000 0.21493  0.90592  0.77880  Biso   1.000  C
  C294     1.0000 0.22120  0.87541  0.82019  Biso   1.000  C
  C295     1.0000 0.27808  0.81475  0.83098  Biso   1.000  C
  C296     1.0000 0.28998  0.78628  0.87780  Biso   1.000  C
  H326     1.0000 0.27180  0.77790  0.90970  Biso   1.000  H
  H327     1.0000 0.29710  0.76850  0.84310  Biso   1.000  H
  C297     1.0000 0.31898  0.79635  0.93040  Biso   1.000  C
  H328     1.0000 0.31120  0.81280  0.96770  Biso   1.000  H
  H329     1.0000 0.33610  0.80680  0.89860  Biso   1.000  H
  C298     1.0000 0.33390  0.76803  0.97350  Biso   1.000  C
  H330     1.0000 0.35790  0.77010  0.96760  Biso   1.000  H
  H331     1.0000 0.32740  0.74790  0.94570  Biso   1.000  H
  C299     1.0000 0.32900  0.76300  0.03830  Biso   1.000  C
  H332     1.0000 0.33230  0.78390  0.06590  Biso   1.000  H
  H333     1.0000 0.30560  0.75740  0.04360  Biso   1.000  H
  C300     1.0000 0.34880  0.73652  0.08120  Biso   1.000  C
  H334     1.0000 0.36860  0.73130  0.05220  Biso   1.000  H
  H335     1.0000 0.35480  0.74460  0.13210  Biso   1.000  H
  H336     1.0000 0.33540  0.71680  0.08660  Biso   1.000  H
  C301     1.0000 0.35991  0.55683  0.36681  Biso   1.000  C
  H337     1.0000 0.37640  0.54240  0.34870  Biso   1.000  H
  C302     1.0000 0.34236  0.57471  0.31360  Biso   1.000  C
  H338     1.0000 0.34690  0.57260  0.26040  Biso   1.000  H
  C303     1.0000 0.31821  0.59563  0.33890  Biso   1.000  C
  C304     1.0000 0.31259  0.59718  0.41670  Biso   1.000  C
  H339     1.0000 0.29580  0.61090  0.43650  Biso   1.000  H
  C305     1.0000 0.33150  0.57864  0.46560  Biso   1.000  C
  H340     1.0000 0.32750  0.58020  0.51910  Biso   1.000  H
  C306     1.0000 0.29781  0.61620  0.28450  Biso   1.000  C
  H341     1.0000 0.27450  0.61320  0.29860  Biso   1.000  H
  H342     1.0000 0.30330  0.63940  0.29380  Biso   1.000  H
  Mn19     1.0000 0.79019  0.67338  0.93411  Biso   1.000  Mn
  O55      1.0000 0.76303  0.65546  0.00969  Biso   1.000  O
  O56      1.0000 0.77522  0.75547  0.06964  Biso   1.000  O
  O57      1.0000 0.81634  0.69875  0.86309  Biso   1.000  O
  N49      1.0000 0.78611  0.71601  0.98084  Biso   1.000  N
  N50      1.0000 0.80137  0.74165  0.93890  Biso   1.000  N
  C307     1.0000 0.75016  0.66925  0.07213  Biso   1.000  C
  C308     1.0000 0.73021  0.64971  0.11810  Biso   1.000  C
  H343     1.0000 0.72560  0.62790  0.10290  Biso   1.000  H
  C309     1.0000 0.71708  0.66160  0.18550  Biso   1.000  C
  H344     1.0000 0.70340  0.64790  0.21560  Biso   1.000  H
  C310     1.0000 0.72343  0.69311  0.21010  Biso   1.000  C
  H345     1.0000 0.71510  0.70090  0.25750  Biso   1.000  H
  C311     1.0000 0.74234  0.71315  0.16340  Biso   1.000  C
  H346     1.0000 0.74640  0.73500  0.17890  Biso   1.000  H
  C312     1.0000 0.75557  0.70189  0.09406  Biso   1.000  C
  C313     1.0000 0.77321  0.72560  0.04661  Biso   1.000  C
  C314     1.0000 0.81594  0.73009  0.87827  Biso   1.000  C
  C315     1.0000 0.83313  0.75237  0.82333  Biso   1.000  C
  H347     1.0000 0.83060  0.77520  0.84100  Biso   1.000  H
  H348     1.0000 0.82270  0.75050  0.77240  Biso   1.000  H
  C316     1.0000 0.86932  0.74467  0.81550  Biso   1.000  C
  H349     1.0000 0.87880  0.75860  0.77480  Biso   1.000  H
  H350     1.0000 0.87190  0.72160  0.79980  Biso   1.000  H
  C317     1.0000 0.88814  0.75038  0.89040  Biso   1.000  C
  H351     1.0000 0.87930  0.73570  0.93040  Biso   1.000  H
  H352     1.0000 0.88460  0.77320  0.90740  Biso   1.000  H
  C318     1.0000 0.92504  0.74429  0.88240  Biso   1.000  C
  H353     1.0000 0.93400  0.75880  0.84210  Biso   1.000  H
  H354     1.0000 0.92880  0.72140  0.86640  Biso   1.000  H
  C319     1.0000 0.94319  0.75079  0.95870  Biso   1.000  C
  H355     1.0000 0.93710  0.77240  0.97830  Biso   1.000  H
  H356     1.0000 0.96680  0.75000  0.95000  Biso   1.000  H
  H357     1.0000 0.93710  0.73400  0.99630  Biso   1.000  H
  Mn20     1.0000 0.78785  0.78983  0.99507  Biso   1.000  Mn
  N51      1.0000 0.79355  0.82384  0.91866  Biso   1.000  N
  N52      1.0000 0.76632  0.82830  0.86937  Biso   1.000  N
  N53      1.0000 0.76159  0.82382  0.07875  Biso   1.000  N
  O58      1.0000 0.82909  0.79847  0.03429  Biso   1.000  O
  O59      1.0000 0.81698  0.86494  0.84968  Biso   1.000  O
  O60      1.0000 0.74617  0.78688  0.94315  Biso   1.000  O
  C320     1.0000 0.85008  0.82226  0.01819  Biso   1.000  C
  C321     1.0000 0.87811  0.82487  0.06450  Biso   1.000  C
  H358     1.0000 0.88150  0.80970  0.10490  Biso   1.000  H
  C322     1.0000 0.90082  0.84926  0.05200  Biso   1.000  C
  H359     1.0000 0.91960  0.85060  0.08390  Biso   1.000  H
  C323     1.0000 0.89669  0.87157  0.99420  Biso   1.000  C
  H360     1.0000 0.91220  0.88860  0.98670  Biso   1.000  H
  C324     1.0000 0.86986  0.86905  0.94721  Biso   1.000  C
  H361     1.0000 0.86730  0.88420  0.90650  Biso   1.000  H
  C325     1.0000 0.84616  0.84467  0.95783  Biso   1.000  C
  C326     1.0000 0.81771  0.84452  0.90578  Biso   1.000  C
  C327     1.0000 0.74297  0.80819  0.88822  Biso   1.000  C
  C328     1.0000 0.71032  0.81016  0.84880  Biso   1.000  C
  H362     1.0000 0.70340  0.78800  0.83290  Biso   1.000  H
  H363     1.0000 0.71230  0.82390  0.80230  Biso   1.000  H
  C329     1.0000 0.68451  0.82496  0.90280  Biso   1.000  C
  H364     1.0000 0.66270  0.82240  0.87910  Biso   1.000  H
  H365     1.0000 0.68450  0.81250  0.95140  Biso   1.000  H
  C330     1.0000 0.69011  0.86071  0.92030  Biso   1.000  C
  H366     1.0000 0.69050  0.87300  0.87150  Biso   1.000  H
  H367     1.0000 0.71190  0.86320  0.94450  Biso   1.000  H
  C331     1.0000 0.66455  0.87584  0.97260  Biso   1.000  C
  H368     1.0000 0.66380  0.86340  0.02120  Biso   1.000  H
  H369     1.0000 0.64280  0.87400  0.94800  Biso   1.000  H
  C332     1.0000 0.67152  0.91200  0.99030  Biso   1.000  C
  H370     1.0000 0.69400  0.91430  0.00900  Biso   1.000  H
  H371     1.0000 0.65620  0.91970  0.02950  Biso   1.000  H
  H372     1.0000 0.66880  0.92500  0.94360  Biso   1.000  H
  C333     1.0000 0.77134  0.85385  0.09550  Biso   1.000  C
  H373     1.0000 0.79250  0.86060  0.07940  Biso   1.000  H
  C334     1.0000 0.75193  0.87575  0.13540  Biso   1.000  C
  H374     1.0000 0.76000  0.89700  0.14670  Biso   1.000  H
  C335     1.0000 0.72109  0.86690  0.15870  Biso   1.000  C
  C336     1.0000 0.71137  0.83600  0.14240  Biso   1.000  C
  H375     1.0000 0.69040  0.82870  0.15850  Biso   1.000  H
  C337     1.0000 0.73161  0.81517  0.10270  Biso   1.000  C
  H376     1.0000 0.72400  0.79370  0.09170  Biso   1.000  H
  C338     1.0000 0.69918  0.88977  0.20400  Biso   1.000  C
  H377     1.0000 0.70530  0.91270  0.19280  Biso   1.000  H
  H378     1.0000 0.67620  0.88650  0.18810  Biso   1.000  H
  Mn21     1.0000 0.72001  0.63712  0.72416  Biso   1.000  Mn
  O61      1.0000 0.74195  0.60133  0.68405  Biso   1.000  O
  O62      1.0000 0.79746  0.63187  0.87779  Biso   1.000  O
  O63      1.0000 0.70244  0.67463  0.77720  Biso   1.000  O
  N54      1.0000 0.75439  0.64371  0.80004  Biso   1.000  N
  N55      1.0000 0.74969  0.67151  0.84708  Biso   1.000  N
  N56      1.0000 0.64500  0.94125  0.44200  Biso   1.000  N
  C339     1.0000 0.76652  0.58430  0.71427  Biso   1.000  C
  C340     1.0000 0.77420  0.55444  0.67879  Biso   1.000  C
  H379     1.0000 0.76200  0.54760  0.63530  Biso   1.000  H
  C341     1.0000 0.79911  0.53501  0.70610  Biso   1.000  C
  H380     1.0000 0.80380  0.51490  0.68120  Biso   1.000  H
  C342     1.0000 0.81739  0.54425  0.76943  Biso   1.000  C
  H381     1.0000 0.83450  0.53070  0.78820  Biso   1.000  H
  C343     1.0000 0.81012  0.57349  0.80434  Biso   1.000  C
  H382     1.0000 0.82260  0.58000  0.84760  Biso   1.000  H
  C344     1.0000 0.78507  0.59408  0.77880  Biso   1.000  C
  C345     1.0000 0.77880  0.62459  0.82019  Biso   1.000  C
  C346     1.0000 0.72192  0.68525  0.83098  Biso   1.000  C
  C347     1.0000 0.71002  0.71372  0.87780  Biso   1.000  C
  H383     1.0000 0.72820  0.72210  0.90970  Biso   1.000  H
  H384     1.0000 0.70290  0.73150  0.84310  Biso   1.000  H
  C348     1.0000 0.68102  0.70365  0.93040  Biso   1.000  C
  H385     1.0000 0.68880  0.68720  0.96770  Biso   1.000  H
  H386     1.0000 0.66390  0.69320  0.89860  Biso   1.000  H
  C349     1.0000 0.66610  0.73197  0.97350  Biso   1.000  C
  H387     1.0000 0.64210  0.72990  0.96760  Biso   1.000  H
  H388     1.0000 0.67260  0.75210  0.94570  Biso   1.000  H
  C350     1.0000 0.67100  0.73700  0.03830  Biso   1.000  C
  H389     1.0000 0.66770  0.71610  0.06590  Biso   1.000  H
  H390     1.0000 0.69440  0.74260  0.04360  Biso   1.000  H
  C351     1.0000 0.65120  0.76348  0.08120  Biso   1.000  C
  H391     1.0000 0.63140  0.76870  0.05220  Biso   1.000  H
  H392     1.0000 0.64520  0.75540  0.13210  Biso   1.000  H
  H393     1.0000 0.66460  0.78320  0.08660  Biso   1.000  H
  C352     1.0000 0.64009  0.94317  0.36681  Biso   1.000  C
  H394     1.0000 0.62360  0.95760  0.34870  Biso   1.000  H
  C353     1.0000 0.65764  0.92529  0.31360  Biso   1.000  C
  H395     1.0000 0.65310  0.92740  0.26040  Biso   1.000  H
  C354     1.0000 0.68179  0.90437  0.33890  Biso   1.000  C
  C355     1.0000 0.68741  0.90282  0.41670  Biso   1.000  C
  H396     1.0000 0.70420  0.88910  0.43650  Biso   1.000  H
  C356     1.0000 0.66850  0.92136  0.46560  Biso   1.000  C
  H397     1.0000 0.67250  0.91980  0.51910  Biso   1.000  H
  C357     1.0000 0.70219  0.88380  0.28450  Biso   1.000  C
  H398     1.0000 0.72550  0.88680  0.29860  Biso   1.000  H
  H399     1.0000 0.69670  0.86060  0.29380  Biso   1.000  H
  Mn22     1.0000 0.29019  0.17338  0.43411  Biso   1.000  Mn
  O64      1.0000 0.26303  0.15546  0.50969  Biso   1.000  O
  O65      1.0000 0.27522  0.25547  0.56964  Biso   1.000  O
  O66      1.0000 0.31634  0.19875  0.36309  Biso   1.000  O
  N57      1.0000 0.28611  0.21601  0.48084  Biso   1.000  N
  N58      1.0000 0.30137  0.24165  0.43890  Biso   1.000  N
  C358     1.0000 0.25016  0.16925  0.57213  Biso   1.000  C
  C359     1.0000 0.23021  0.14971  0.61810  Biso   1.000  C
  H400     1.0000 0.22560  0.12790  0.60290  Biso   1.000  H
  C360     1.0000 0.21708  0.16160  0.68550  Biso   1.000  C
  H401     1.0000 0.20340  0.14790  0.71560  Biso   1.000  H
  C361     1.0000 0.22343  0.19311  0.71010  Biso   1.000  C
  H402     1.0000 0.21510  0.20090  0.75750  Biso   1.000  H
  C362     1.0000 0.24234  0.21315  0.66340  Biso   1.000  C
  H403     1.0000 0.24640  0.23500  0.67890  Biso   1.000  H
  C363     1.0000 0.25557  0.20189  0.59406  Biso   1.000  C
  C364     1.0000 0.27321  0.22560  0.54661  Biso   1.000  C
  C365     1.0000 0.31594  0.23009  0.37827  Biso   1.000  C
  C366     1.0000 0.33313  0.25237  0.32333  Biso   1.000  C
  H404     1.0000 0.33060  0.27520  0.34100  Biso   1.000  H
  H405     1.0000 0.32270  0.25050  0.27240  Biso   1.000  H
  C367     1.0000 0.36932  0.24467  0.31550  Biso   1.000  C
  H406     1.0000 0.37880  0.25860  0.27480  Biso   1.000  H
  H407     1.0000 0.37190  0.22160  0.29980  Biso   1.000  H
  C368     1.0000 0.38814  0.25038  0.39040  Biso   1.000  C
  H408     1.0000 0.37930  0.23570  0.43040  Biso   1.000  H
  H409     1.0000 0.38460  0.27320  0.40740  Biso   1.000  H
  C369     1.0000 0.42504  0.24429  0.38240  Biso   1.000  C
  H410     1.0000 0.43400  0.25880  0.34210  Biso   1.000  H
  H411     1.0000 0.42880  0.22140  0.36640  Biso   1.000  H
  C370     1.0000 0.44319  0.25079  0.45870  Biso   1.000  C
  H412     1.0000 0.43710  0.27240  0.47830  Biso   1.000  H
  H413     1.0000 0.46680  0.25000  0.45000  Biso   1.000  H
  H414     1.0000 0.43710  0.23400  0.49630  Biso   1.000  H
  Mn23     1.0000 0.28785  0.28983  0.49507  Biso   1.000  Mn
  N59      1.0000 0.29355  0.32384  0.41866  Biso   1.000  N
  N60      1.0000 0.26632  0.32830  0.36937  Biso   1.000  N
  N61      1.0000 0.26159  0.32382  0.57875  Biso   1.000  N
  O67      1.0000 0.32909  0.29847  0.53429  Biso   1.000  O
  O68      1.0000 0.31698  0.36494  0.34968  Biso   1.000  O
  O69      1.0000 0.24617  0.28688  0.44315  Biso   1.000  O
  C371     1.0000 0.35008  0.32226  0.51819  Biso   1.000  C
  C372     1.0000 0.37811  0.32487  0.56450  Biso   1.000  C
  H415     1.0000 0.38150  0.30970  0.60490  Biso   1.000  H
  C373     1.0000 0.40082  0.34926  0.55200  Biso   1.000  C
  H416     1.0000 0.41960  0.35060  0.58390  Biso   1.000  H
  C374     1.0000 0.39669  0.37157  0.49420  Biso   1.000  C
  H417     1.0000 0.41220  0.38860  0.48670  Biso   1.000  H
  C375     1.0000 0.36986  0.36905  0.44721  Biso   1.000  C
  H418     1.0000 0.36730  0.38420  0.40650  Biso   1.000  H
  C376     1.0000 0.34616  0.34467  0.45783  Biso   1.000  C
  C377     1.0000 0.31771  0.34452  0.40578  Biso   1.000  C
  C378     1.0000 0.24297  0.30819  0.38822  Biso   1.000  C
  C379     1.0000 0.21032  0.31016  0.34880  Biso   1.000  C
  H419     1.0000 0.20340  0.28800  0.33290  Biso   1.000  H
  H420     1.0000 0.21230  0.32390  0.30230  Biso   1.000  H
  C380     1.0000 0.18451  0.32496  0.40280  Biso   1.000  C
  H421     1.0000 0.16270  0.32240  0.37910  Biso   1.000  H
  H422     1.0000 0.18450  0.31250  0.45140  Biso   1.000  H
  C381     1.0000 0.19011  0.36071  0.42030  Biso   1.000  C
  H423     1.0000 0.19050  0.37300  0.37150  Biso   1.000  H
  H424     1.0000 0.21190  0.36320  0.44450  Biso   1.000  H
  C382     1.0000 0.16455  0.37584  0.47260  Biso   1.000  C
  H425     1.0000 0.16380  0.36340  0.52120  Biso   1.000  H
  H426     1.0000 0.14280  0.37400  0.44800  Biso   1.000  H
  C383     1.0000 0.17152  0.41200  0.49030  Biso   1.000  C
  H427     1.0000 0.19400  0.41430  0.50900  Biso   1.000  H
  H428     1.0000 0.15620  0.41970  0.52950  Biso   1.000  H
  H429     1.0000 0.16880  0.42500  0.44360  Biso   1.000  H
  C384     1.0000 0.27134  0.35385  0.59550  Biso   1.000  C
  H430     1.0000 0.29250  0.36060  0.57940  Biso   1.000  H
  C385     1.0000 0.25193  0.37575  0.63540  Biso   1.000  C
  H431     1.0000 0.26000  0.39700  0.64670  Biso   1.000  H
  C386     1.0000 0.22109  0.36690  0.65870  Biso   1.000  C
  C387     1.0000 0.21137  0.33600  0.64240  Biso   1.000  C
  H432     1.0000 0.19040  0.32870  0.65850  Biso   1.000  H
  C388     1.0000 0.23161  0.31517  0.60270  Biso   1.000  C
  H433     1.0000 0.22400  0.29370  0.59170  Biso   1.000  H
  C389     1.0000 0.19918  0.38977  0.70400  Biso   1.000  C
  H434     1.0000 0.20530  0.41270  0.69280  Biso   1.000  H
  H435     1.0000 0.17620  0.38650  0.68810  Biso   1.000  H
  Mn24     1.0000 0.22001  0.13712  0.22416  Biso   1.000  Mn
  O70      1.0000 0.24195  0.10133  0.18405  Biso   1.000  O
  O71      1.0000 0.29746  0.13187  0.37779  Biso   1.000  O
  O72      1.0000 0.20244  0.17463  0.27720  Biso   1.000  O
  N62      1.0000 0.25439  0.14371  0.30004  Biso   1.000  N
  N63      1.0000 0.24969  0.17151  0.34708  Biso   1.000  N
  N64      1.0000 0.14500  0.44125  0.94200  Biso   1.000  N
  C390     1.0000 0.26652  0.08430  0.21427  Biso   1.000  C
  C391     1.0000 0.27420  0.05444  0.17879  Biso   1.000  C
  H436     1.0000 0.26200  0.04760  0.13530  Biso   1.000  H
  C392     1.0000 0.29911  0.03501  0.20610  Biso   1.000  C
  H437     1.0000 0.30380  0.01490  0.18120  Biso   1.000  H
  C393     1.0000 0.31739  0.04425  0.26943  Biso   1.000  C
  H438     1.0000 0.33450  0.03070  0.28820  Biso   1.000  H
  C394     1.0000 0.31012  0.07349  0.30434  Biso   1.000  C
  H439     1.0000 0.32260  0.08000  0.34760  Biso   1.000  H
  C395     1.0000 0.28507  0.09408  0.27880  Biso   1.000  C
  C396     1.0000 0.27880  0.12459  0.32019  Biso   1.000  C
  C397     1.0000 0.22192  0.18525  0.33098  Biso   1.000  C
  C398     1.0000 0.21002  0.21372  0.37780  Biso   1.000  C
  H440     1.0000 0.22820  0.22210  0.40970  Biso   1.000  H
  H441     1.0000 0.20290  0.23150  0.34310  Biso   1.000  H
  C399     1.0000 0.18102  0.20365  0.43040  Biso   1.000  C
  H442     1.0000 0.18880  0.18720  0.46770  Biso   1.000  H
  H443     1.0000 0.16390  0.19320  0.39860  Biso   1.000  H
  C400     1.0000 0.16610  0.23197  0.47350  Biso   1.000  C
  H444     1.0000 0.14210  0.22990  0.46760  Biso   1.000  H
  H445     1.0000 0.17260  0.25210  0.44570  Biso   1.000  H
  C401     1.0000 0.17100  0.23700  0.53830  Biso   1.000  C
  H446     1.0000 0.16770  0.21610  0.56590  Biso   1.000  H
  H447     1.0000 0.19440  0.24260  0.54360  Biso   1.000  H
  C402     1.0000 0.15120  0.26348  0.58120  Biso   1.000  C
  H448     1.0000 0.13140  0.26870  0.55220  Biso   1.000  H
  H449     1.0000 0.14520  0.25540  0.63210  Biso   1.000  H
  H450     1.0000 0.16460  0.28320  0.58660  Biso   1.000  H
  C403     1.0000 0.14009  0.44317  0.86681  Biso   1.000  C
  H451     1.0000 0.12360  0.45760  0.84870  Biso   1.000  H
  C404     1.0000 0.15764  0.42529  0.81360  Biso   1.000  C
  H452     1.0000 0.15310  0.42740  0.76040  Biso   1.000  H
  C405     1.0000 0.18179  0.40437  0.83890  Biso   1.000  C
  C406     1.0000 0.18741  0.40282  0.91670  Biso   1.000  C
  H453     1.0000 0.20420  0.38910  0.93650  Biso   1.000  H
  C407     1.0000 0.16850  0.42136  0.96560  Biso   1.000  C
  H454     1.0000 0.17250  0.41980  0.01910  Biso   1.000  H
  C408     1.0000 0.20219  0.38380  0.78450  Biso   1.000  C
  H455     1.0000 0.22550  0.38680  0.79860  Biso   1.000  H
  H456     1.0000 0.19670  0.36060  0.79380  Biso   1.000  H
  Mn25     1.0000 0.92338  0.95981  0.81589  Biso   1.000  Mn
  O73      1.0000 0.90546  0.98697  0.74031  Biso   1.000  O
  O74      1.0000 0.00547  0.97478  0.68036  Biso   1.000  O
  O75      1.0000 0.94875  0.93366  0.88691  Biso   1.000  O
  N65      1.0000 0.96601  0.96389  0.76916  Biso   1.000  N
  N66      1.0000 0.99165  0.94863  0.81110  Biso   1.000  N
  C409     1.0000 0.91925  0.99984  0.67787  Biso   1.000  C
  C410     1.0000 0.89971  0.01979  0.63190  Biso   1.000  C
  H457     1.0000 0.87790  0.02440  0.64710  Biso   1.000  H
  C411     1.0000 0.91160  0.03292  0.56450  Biso   1.000  C
  H458     1.0000 0.89790  0.04660  0.53440  Biso   1.000  H
  C412     1.0000 0.94311  0.02657  0.53990  Biso   1.000  C
  H459     1.0000 0.95090  0.03490  0.49250  Biso   1.000  H
  C413     1.0000 0.96315  0.00766  0.58660  Biso   1.000  C
  H460     1.0000 0.98500  0.00360  0.57110  Biso   1.000  H
  C414     1.0000 0.95189  0.99443  0.65594  Biso   1.000  C
  C415     1.0000 0.97560  0.97679  0.70339  Biso   1.000  C
  C416     1.0000 0.98009  0.93406  0.87173  Biso   1.000  C
  C417     1.0000 0.00237  0.91687  0.92667  Biso   1.000  C
  H461     1.0000 0.02520  0.91940  0.90900  Biso   1.000  H
  H462     1.0000 0.00050  0.92730  0.97760  Biso   1.000  H
  C418     1.0000 0.99467  0.88068  0.93450  Biso   1.000  C
  H463     1.0000 0.00860  0.87120  0.97520  Biso   1.000  H
  H464     1.0000 0.97160  0.87810  0.95020  Biso   1.000  H
  C419     1.0000 0.00038  0.86186  0.85960  Biso   1.000  C
  H465     1.0000 0.98570  0.87070  0.81960  Biso   1.000  H
  H466     1.0000 0.02320  0.86540  0.84260  Biso   1.000  H
  C420     1.0000 0.99429  0.82496  0.86760  Biso   1.000  C
  H467     1.0000 0.00880  0.81600  0.90790  Biso   1.000  H
  H468     1.0000 0.97140  0.82120  0.88360  Biso   1.000  H
  C421     1.0000 0.00079  0.80681  0.79130  Biso   1.000  C
  H469     1.0000 0.02240  0.81290  0.77170  Biso   1.000  H
  H470     1.0000 0.00000  0.78320  0.80000  Biso   1.000  H
  H471     1.0000 0.98400  0.81290  0.75370  Biso   1.000  H
  Mn26     1.0000 0.03983  0.96215  0.75493  Biso   1.000  Mn
  N67      1.0000 0.07384  0.95645  0.83134  Biso   1.000  N
  N68      1.0000 0.07830  0.98368  0.88063  Biso   1.000  N
  N69      1.0000 0.07382  0.98841  0.67125  Biso   1.000  N
  O76      1.0000 0.04847  0.92091  0.71571  Biso   1.000  O
  O77      1.0000 0.11494  0.93302  0.90032  Biso   1.000  O
  O78      1.0000 0.03688  0.00383  0.80685  Biso   1.000  O
  C422     1.0000 0.07226  0.89992  0.73181  Biso   1.000  C
  C423     1.0000 0.07487  0.87189  0.68550  Biso   1.000  C
  H472     1.0000 0.05970  0.86850  0.64510  Biso   1.000  H
  C424     1.0000 0.09926  0.84918  0.69800  Biso   1.000  C
  H473     1.0000 0.10060  0.83040  0.66610  Biso   1.000  H
  C425     1.0000 0.12157  0.85331  0.75580  Biso   1.000  C
  H474     1.0000 0.13860  0.83780  0.76330  Biso   1.000  H
  C426     1.0000 0.11905  0.88014  0.80279  Biso   1.000  C
  H475     1.0000 0.13420  0.88270  0.84350  Biso   1.000  H
  C427     1.0000 0.09467  0.90384  0.79217  Biso   1.000  C
  C428     1.0000 0.09452  0.93229  0.84422  Biso   1.000  C
  C429     1.0000 0.05819  0.00703  0.86178  Biso   1.000  C
  C430     1.0000 0.06016  0.03968  0.90120  Biso   1.000  C
  H476     1.0000 0.03800  0.04660  0.91710  Biso   1.000  H
  H477     1.0000 0.07390  0.03770  0.94770  Biso   1.000  H
  C431     1.0000 0.07496  0.06549  0.84720  Biso   1.000  C
  H478     1.0000 0.07240  0.08730  0.87090  Biso   1.000  H
  H479     1.0000 0.06250  0.06550  0.79860  Biso   1.000  H
  C432     1.0000 0.11071  0.05989  0.82970  Biso   1.000  C
  H480     1.0000 0.12300  0.05950  0.87850  Biso   1.000  H
  H481     1.0000 0.11320  0.03810  0.80550  Biso   1.000  H
  C433     1.0000 0.12584  0.08545  0.77740  Biso   1.000  C
  H482     1.0000 0.11340  0.08620  0.72880  Biso   1.000  H
  H483     1.0000 0.12400  0.10720  0.80200  Biso   1.000  H
  C434     1.0000 0.16200  0.07848  0.75970  Biso   1.000  C
  H484     1.0000 0.16430  0.05600  0.74100  Biso   1.000  H
  H485     1.0000 0.16970  0.09380  0.72050  Biso   1.000  H
  H486     1.0000 0.17500  0.08120  0.80640  Biso   1.000  H
  C435     1.0000 0.10385  0.97866  0.65450  Biso   1.000  C
  H487     1.0000 0.11060  0.95750  0.67060  Biso   1.000  H
  C436     1.0000 0.12575  0.99807  0.61460  Biso   1.000  C
  H488     1.0000 0.14700  0.99000  0.60330  Biso   1.000  H
  C437     1.0000 0.11690  0.02891  0.59130  Biso   1.000  C
  C438     1.0000 0.08600  0.03863  0.60760  Biso   1.000  C
  H489     1.0000 0.07870  0.05960  0.59150  Biso   1.000  H
  C439     1.0000 0.06517  0.01839  0.64730  Biso   1.000  C
  H490     1.0000 0.04370  0.02600  0.65830  Biso   1.000  H
  C440     1.0000 0.13977  0.05082  0.54600  Biso   1.000  C
  H491     1.0000 0.16270  0.04470  0.55720  Biso   1.000  H
  H492     1.0000 0.13650  0.07380  0.56190  Biso   1.000  H
  Mn27     1.0000 0.88712  0.02999  0.02584  Biso   1.000  Mn
  O79      1.0000 0.85133  0.00805  0.06595  Biso   1.000  O
  O80      1.0000 0.88187  0.95254  0.87221  Biso   1.000  O
  O81      1.0000 0.92463  0.04756  0.97280  Biso   1.000  O
  N70      1.0000 0.89371  0.99561  0.94996  Biso   1.000  N
  N71      1.0000 0.92151  0.00031  0.90292  Biso   1.000  N
  N72      1.0000 0.19125  0.10500  0.30800  Biso   1.000  N
  C441     1.0000 0.83430  0.98348  0.03573  Biso   1.000  C
  C442     1.0000 0.80444  0.97580  0.07121  Biso   1.000  C
  H493     1.0000 0.79760  0.98800  0.11470  Biso   1.000  H
  C443     1.0000 0.78501  0.95089  0.04390  Biso   1.000  C
  H494     1.0000 0.76490  0.94620  0.06880  Biso   1.000  H
  C444     1.0000 0.79425  0.93261  0.98057  Biso   1.000  C
  H495     1.0000 0.78070  0.91550  0.96180  Biso   1.000  H
  C445     1.0000 0.82349  0.93988  0.94566  Biso   1.000  C
  H496     1.0000 0.83000  0.92740  0.90240  Biso   1.000  H
  C446     1.0000 0.84408  0.96493  0.97120  Biso   1.000  C
  C447     1.0000 0.87459  0.97120  0.92981  Biso   1.000  C
  C448     1.0000 0.93525  0.02808  0.91902  Biso   1.000  C
  C449     1.0000 0.96372  0.03998  0.87220  Biso   1.000  C
  H497     1.0000 0.97210  0.02180  0.84030  Biso   1.000  H
  H498     1.0000 0.98150  0.04710  0.90690  Biso   1.000  H
  C450     1.0000 0.95365  0.06898  0.81960  Biso   1.000  C
  H499     1.0000 0.93720  0.06120  0.78230  Biso   1.000  H
  H500     1.0000 0.94320  0.08610  0.85140  Biso   1.000  H
  C451     1.0000 0.98197  0.08390  0.77650  Biso   1.000  C
  H501     1.0000 0.97990  0.10790  0.78240  Biso   1.000  H
  H502     1.0000 0.00210  0.07740  0.80430  Biso   1.000  H
  C452     1.0000 0.98700  0.07900  0.71170  Biso   1.000  C
  H503     1.0000 0.96610  0.08230  0.68410  Biso   1.000  H
  H504     1.0000 0.99260  0.05560  0.70640  Biso   1.000  H
  C453     1.0000 0.01348  0.09880  0.66880  Biso   1.000  C
  H505     1.0000 0.01870  0.11860  0.69780  Biso   1.000  H
  H506     1.0000 0.00540  0.10480  0.61790  Biso   1.000  H
  H507     1.0000 0.03320  0.08540  0.66340  Biso   1.000  H
  C454     1.0000 0.19317  0.10991  0.38319  Biso   1.000  C
  H508     1.0000 0.20760  0.12640  0.40130  Biso   1.000  H
  C455     1.0000 0.17529  0.09236  0.43640  Biso   1.000  C
  H509     1.0000 0.17740  0.09690  0.48960  Biso   1.000  H
  C456     1.0000 0.15437  0.06821  0.41110  Biso   1.000  C
  C457     1.0000 0.15282  0.06259  0.33330  Biso   1.000  C
  H510     1.0000 0.13910  0.04580  0.31350  Biso   1.000  H
  C458     1.0000 0.17136  0.08150  0.28440  Biso   1.000  C
  H511     1.0000 0.16980  0.07750  0.23090  Biso   1.000  H
  C459     1.0000 0.13380  0.04781  0.46550  Biso   1.000  C
  H512     1.0000 0.13680  0.02450  0.45140  Biso   1.000  H
  H513     1.0000 0.11060  0.05330  0.45620  Biso   1.000  H
  Mn28     1.0000 0.42338  0.45981  0.31589  Biso   1.000  Mn
  O82      1.0000 0.40546  0.48697  0.24031  Biso   1.000  O
  O83      1.0000 0.50547  0.47478  0.18036  Biso   1.000  O
  O84      1.0000 0.44875  0.43366  0.38691  Biso   1.000  O
  N73      1.0000 0.46601  0.46389  0.26916  Biso   1.000  N
  N74      1.0000 0.49165  0.44863  0.31110  Biso   1.000  N
  C460     1.0000 0.41925  0.49984  0.17787  Biso   1.000  C
  C461     1.0000 0.39971  0.51979  0.13190  Biso   1.000  C
  H514     1.0000 0.37790  0.52440  0.14710  Biso   1.000  H
  C462     1.0000 0.41160  0.53292  0.06450  Biso   1.000  C
  H515     1.0000 0.39790  0.54660  0.03440  Biso   1.000  H
  C463     1.0000 0.44311  0.52657  0.03990  Biso   1.000  C
  H516     1.0000 0.45090  0.53490  0.99250  Biso   1.000  H
  C464     1.0000 0.46315  0.50766  0.08660  Biso   1.000  C
  H517     1.0000 0.48500  0.50360  0.07110  Biso   1.000  H
  C465     1.0000 0.45189  0.49443  0.15594  Biso   1.000  C
  C466     1.0000 0.47560  0.47679  0.20339  Biso   1.000  C
  C467     1.0000 0.48009  0.43406  0.37173  Biso   1.000  C
  C468     1.0000 0.50237  0.41687  0.42667  Biso   1.000  C
  H518     1.0000 0.52520  0.41940  0.40900  Biso   1.000  H
  H519     1.0000 0.50050  0.42730  0.47760  Biso   1.000  H
  C469     1.0000 0.49467  0.38068  0.43450  Biso   1.000  C
  H520     1.0000 0.50860  0.37120  0.47520  Biso   1.000  H
  H521     1.0000 0.47160  0.37810  0.45020  Biso   1.000  H
  C470     1.0000 0.50038  0.36186  0.35960  Biso   1.000  C
  H522     1.0000 0.48570  0.37070  0.31960  Biso   1.000  H
  H523     1.0000 0.52320  0.36540  0.34260  Biso   1.000  H
  C471     1.0000 0.49429  0.32496  0.36760  Biso   1.000  C
  H524     1.0000 0.50880  0.31600  0.40790  Biso   1.000  H
  H525     1.0000 0.47140  0.32120  0.38360  Biso   1.000  H
  C472     1.0000 0.50079  0.30681  0.29130  Biso   1.000  C
  H526     1.0000 0.52240  0.31290  0.27170  Biso   1.000  H
  H527     1.0000 0.50000  0.28320  0.30000  Biso   1.000  H
  H528     1.0000 0.48400  0.31290  0.25370  Biso   1.000  H
  Mn29     1.0000 0.53983  0.46215  0.25493  Biso   1.000  Mn
  N75      1.0000 0.57384  0.45645  0.33134  Biso   1.000  N
  N76      1.0000 0.57830  0.48368  0.38063  Biso   1.000  N
  N77      1.0000 0.57382  0.48841  0.17125  Biso   1.000  N
  O85      1.0000 0.54847  0.42091  0.21571  Biso   1.000  O
  O86      1.0000 0.61494  0.43302  0.40032  Biso   1.000  O
  O87      1.0000 0.53688  0.50383  0.30685  Biso   1.000  O
  C473     1.0000 0.57226  0.39992  0.23181  Biso   1.000  C
  C474     1.0000 0.57487  0.37189  0.18550  Biso   1.000  C
  H529     1.0000 0.55970  0.36850  0.14510  Biso   1.000  H
  C475     1.0000 0.59926  0.34918  0.19800  Biso   1.000  C
  H530     1.0000 0.60060  0.33040  0.16610  Biso   1.000  H
  C476     1.0000 0.62157  0.35331  0.25580  Biso   1.000  C
  H531     1.0000 0.63860  0.33780  0.26330  Biso   1.000  H
  C477     1.0000 0.61905  0.38014  0.30279  Biso   1.000  C
  H532     1.0000 0.63420  0.38270  0.34350  Biso   1.000  H
  C478     1.0000 0.59467  0.40384  0.29217  Biso   1.000  C
  C479     1.0000 0.59452  0.43229  0.34422  Biso   1.000  C
  C480     1.0000 0.55819  0.50703  0.36178  Biso   1.000  C
  C481     1.0000 0.56016  0.53968  0.40120  Biso   1.000  C
  H533     1.0000 0.53800  0.54660  0.41710  Biso   1.000  H
  H534     1.0000 0.57390  0.53770  0.44770  Biso   1.000  H
  C482     1.0000 0.57496  0.56549  0.34720  Biso   1.000  C
  H535     1.0000 0.57240  0.58730  0.37090  Biso   1.000  H
  H536     1.0000 0.56250  0.56550  0.29860  Biso   1.000  H
  C483     1.0000 0.61071  0.55989  0.32970  Biso   1.000  C
  H537     1.0000 0.62300  0.55950  0.37850  Biso   1.000  H
  H538     1.0000 0.61320  0.53810  0.30550  Biso   1.000  H
  C484     1.0000 0.62584  0.58545  0.27740  Biso   1.000  C
  H539     1.0000 0.61340  0.58620  0.22880  Biso   1.000  H
  H540     1.0000 0.62400  0.60720  0.30200  Biso   1.000  H
  C485     1.0000 0.66200  0.57848  0.25970  Biso   1.000  C
  H541     1.0000 0.66430  0.55600  0.24100  Biso   1.000  H
  H542     1.0000 0.66970  0.59380  0.22050  Biso   1.000  H
  H543     1.0000 0.67500  0.58120  0.30640  Biso   1.000  H
  C486     1.0000 0.60385  0.47866  0.15450  Biso   1.000  C
  H544     1.0000 0.61060  0.45750  0.17060  Biso   1.000  H
  C487     1.0000 0.62575  0.49807  0.11460  Biso   1.000  C
  H545     1.0000 0.64700  0.49000  0.10330  Biso   1.000  H
  C488     1.0000 0.61690  0.52891  0.09130  Biso   1.000  C
  C489     1.0000 0.58600  0.53863  0.10760  Biso   1.000  C
  H546     1.0000 0.57870  0.55960  0.09150  Biso   1.000  H
  C490     1.0000 0.56517  0.51839  0.14730  Biso   1.000  C
  H547     1.0000 0.54370  0.52600  0.15830  Biso   1.000  H
  C491     1.0000 0.63977  0.55082  0.04600  Biso   1.000  C
  H548     1.0000 0.66270  0.54470  0.05720  Biso   1.000  H
  H549     1.0000 0.63650  0.57380  0.06190  Biso   1.000  H
  Mn30     1.0000 0.38712  0.52999  0.52584  Biso   1.000  Mn
  O88      1.0000 0.35133  0.50805  0.56595  Biso   1.000  O
  O89      1.0000 0.38187  0.45254  0.37221  Biso   1.000  O
  O90      1.0000 0.42463  0.54756  0.47280  Biso   1.000  O
  N78      1.0000 0.39371  0.49561  0.44996  Biso   1.000  N
  N79      1.0000 0.42151  0.50031  0.40292  Biso   1.000  N
  N80      1.0000 0.69125  0.60500  0.80800  Biso   1.000  N
  C492     1.0000 0.33430  0.48348  0.53573  Biso   1.000  C
  C493     1.0000 0.30444  0.47580  0.57121  Biso   1.000  C
  H550     1.0000 0.29760  0.48800  0.61470  Biso   1.000  H
  C494     1.0000 0.28501  0.45089  0.54390  Biso   1.000  C
  H551     1.0000 0.26490  0.44620  0.56880  Biso   1.000  H
  C495     1.0000 0.29425  0.43261  0.48057  Biso   1.000  C
  H552     1.0000 0.28070  0.41550  0.46180  Biso   1.000  H
  C496     1.0000 0.32349  0.43988  0.44566  Biso   1.000  C
  H553     1.0000 0.33000  0.42740  0.40240  Biso   1.000  H
  C497     1.0000 0.34408  0.46493  0.47120  Biso   1.000  C
  C498     1.0000 0.37459  0.47120  0.42981  Biso   1.000  C
  C499     1.0000 0.43525  0.52808  0.41902  Biso   1.000  C
  C500     1.0000 0.46372  0.53998  0.37220  Biso   1.000  C
  H554     1.0000 0.47210  0.52180  0.34030  Biso   1.000  H
  H555     1.0000 0.48150  0.54710  0.40690  Biso   1.000  H
  C501     1.0000 0.45365  0.56898  0.31960  Biso   1.000  C
  H556     1.0000 0.43720  0.56120  0.28230  Biso   1.000  H
  H557     1.0000 0.44320  0.58610  0.35140  Biso   1.000  H
  C502     1.0000 0.48197  0.58390  0.27650  Biso   1.000  C
  H558     1.0000 0.47990  0.60790  0.28240  Biso   1.000  H
  H559     1.0000 0.50210  0.57740  0.30430  Biso   1.000  H
  C503     1.0000 0.48700  0.57900  0.21170  Biso   1.000  C
  H560     1.0000 0.46610  0.58230  0.18410  Biso   1.000  H
  H561     1.0000 0.49260  0.55560  0.20640  Biso   1.000  H
  C504     1.0000 0.51348  0.59880  0.16880  Biso   1.000  C
  H562     1.0000 0.51870  0.61860  0.19780  Biso   1.000  H
  H563     1.0000 0.50540  0.60480  0.11790  Biso   1.000  H
  H564     1.0000 0.53320  0.58540  0.16340  Biso   1.000  H
  C505     1.0000 0.69317  0.60991  0.88319  Biso   1.000  C
  H565     1.0000 0.70760  0.62640  0.90130  Biso   1.000  H
  C506     1.0000 0.67529  0.59236  0.93640  Biso   1.000  C
  H566     1.0000 0.67740  0.59690  0.98960  Biso   1.000  H
  C507     1.0000 0.65437  0.56821  0.91110  Biso   1.000  C
  C508     1.0000 0.65282  0.56259  0.83330  Biso   1.000  C
  H567     1.0000 0.63910  0.54580  0.81350  Biso   1.000  H
  C509     1.0000 0.67136  0.58150  0.78440  Biso   1.000  C
  H568     1.0000 0.66980  0.57750  0.73090  Biso   1.000  H
  C510     1.0000 0.63380  0.54781  0.96550  Biso   1.000  C
  H569     1.0000 0.63680  0.52450  0.95140  Biso   1.000  H
  H570     1.0000 0.61060  0.55330  0.95620  Biso   1.000  H
  Mn31     1.0000 0.57662  0.04019  0.31589  Biso   1.000  Mn
  O91      1.0000 0.59454  0.01303  0.24031  Biso   1.000  O
  O92      1.0000 0.49453  0.02522  0.18036  Biso   1.000  O
  O93      1.0000 0.55125  0.06634  0.38691  Biso   1.000  O
  N81      1.0000 0.53399  0.03611  0.26916  Biso   1.000  N
  N82      1.0000 0.50835  0.05137  0.31110  Biso   1.000  N
  C511     1.0000 0.58075  0.00016  0.17787  Biso   1.000  C
  C512     1.0000 0.60029  0.98021  0.13190  Biso   1.000  C
  H571     1.0000 0.62210  0.97560  0.14710  Biso   1.000  H
  C513     1.0000 0.58840  0.96708  0.06450  Biso   1.000  C
  H572     1.0000 0.60210  0.95340  0.03440  Biso   1.000  H
  C514     1.0000 0.55689  0.97343  0.03990  Biso   1.000  C
  H573     1.0000 0.54910  0.96510  0.99250  Biso   1.000  H
  C515     1.0000 0.53685  0.99234  0.08660  Biso   1.000  C
  H574     1.0000 0.51500  0.99640  0.07110  Biso   1.000  H
  C516     1.0000 0.54811  0.00557  0.15594  Biso   1.000  C
  C517     1.0000 0.52440  0.02321  0.20339  Biso   1.000  C
  C518     1.0000 0.51991  0.06594  0.37173  Biso   1.000  C
  C519     1.0000 0.49763  0.08313  0.42667  Biso   1.000  C
  H575     1.0000 0.47480  0.08060  0.40900  Biso   1.000  H
  H576     1.0000 0.49950  0.07270  0.47760  Biso   1.000  H
  C520     1.0000 0.50533  0.11932  0.43450  Biso   1.000  C
  H577     1.0000 0.49140  0.12880  0.47520  Biso   1.000  H
  H578     1.0000 0.52840  0.12190  0.45020  Biso   1.000  H
  C521     1.0000 0.49962  0.13814  0.35960  Biso   1.000  C
  H579     1.0000 0.51430  0.12930  0.31960  Biso   1.000  H
  H580     1.0000 0.47680  0.13460  0.34260  Biso   1.000  H
  C522     1.0000 0.50571  0.17504  0.36760  Biso   1.000  C
  H581     1.0000 0.49120  0.18400  0.40790  Biso   1.000  H
  H582     1.0000 0.52860  0.17880  0.38360  Biso   1.000  H
  C523     1.0000 0.49921  0.19319  0.29130  Biso   1.000  C
  H583     1.0000 0.47760  0.18710  0.27170  Biso   1.000  H
  H584     1.0000 0.50000  0.21680  0.30000  Biso   1.000  H
  H585     1.0000 0.51600  0.18710  0.25370  Biso   1.000  H
  Mn32     1.0000 0.46017  0.03785  0.25493  Biso   1.000  Mn
  N83      1.0000 0.42616  0.04355  0.33134  Biso   1.000  N
  N84      1.0000 0.42170  0.01632  0.38063  Biso   1.000  N
  N85      1.0000 0.42618  0.01159  0.17125  Biso   1.000  N
  O94      1.0000 0.45153  0.07909  0.21571  Biso   1.000  O
  O95      1.0000 0.38506  0.06698  0.40032  Biso   1.000  O
  O96      1.0000 0.46312  0.99617  0.30685  Biso   1.000  O
  C524     1.0000 0.42774  0.10008  0.23181  Biso   1.000  C
  C525     1.0000 0.42513  0.12811  0.18550  Biso   1.000  C
  H586     1.0000 0.44030  0.13150  0.14510  Biso   1.000  H
  C526     1.0000 0.40074  0.15082  0.19800  Biso   1.000  C
  H587     1.0000 0.39940  0.16960  0.16610  Biso   1.000  H
  C527     1.0000 0.37843  0.14669  0.25580  Biso   1.000  C
  H588     1.0000 0.36140  0.16220  0.26330  Biso   1.000  H
  C528     1.0000 0.38095  0.11986  0.30279  Biso   1.000  C
  H589     1.0000 0.36580  0.11730  0.34350  Biso   1.000  H
  C529     1.0000 0.40533  0.09616  0.29217  Biso   1.000  C
  C530     1.0000 0.40548  0.06771  0.34422  Biso   1.000  C
  C531     1.0000 0.44181  0.99297  0.36178  Biso   1.000  C
  C532     1.0000 0.43984  0.96032  0.40120  Biso   1.000  C
  H590     1.0000 0.46200  0.95340  0.41710  Biso   1.000  H
  H591     1.0000 0.42610  0.96230  0.44770  Biso   1.000  H
  C533     1.0000 0.42504  0.93451  0.34720  Biso   1.000  C
  H592     1.0000 0.42760  0.91270  0.37090  Biso   1.000  H
  H593     1.0000 0.43750  0.93450  0.29860  Biso   1.000  H
  C534     1.0000 0.38929  0.94011  0.32970  Biso   1.000  C
  H594     1.0000 0.37700  0.94050  0.37850  Biso   1.000  H
  H595     1.0000 0.38680  0.96190  0.30550  Biso   1.000  H
  C535     1.0000 0.37416  0.91455  0.27740  Biso   1.000  C
  H596     1.0000 0.38660  0.91380  0.22880  Biso   1.000  H
  H597     1.0000 0.37600  0.89280  0.30200  Biso   1.000  H
  C536     1.0000 0.33800  0.92152  0.25970  Biso   1.000  C
  H598     1.0000 0.33570  0.94400  0.24100  Biso   1.000  H
  H599     1.0000 0.33030  0.90620  0.22050  Biso   1.000  H
  H600     1.0000 0.32500  0.91880  0.30640  Biso   1.000  H
  C537     1.0000 0.39615  0.02134  0.15450  Biso   1.000  C
  H601     1.0000 0.38940  0.04250  0.17060  Biso   1.000  H
  C538     1.0000 0.37425  0.00193  0.11460  Biso   1.000  C
  H602     1.0000 0.35300  0.01000  0.10330  Biso   1.000  H
  C539     1.0000 0.38310  0.97109  0.09130  Biso   1.000  C
  C540     1.0000 0.41400  0.96137  0.10760  Biso   1.000  C
  H603     1.0000 0.42130  0.94040  0.09150  Biso   1.000  H
  C541     1.0000 0.43483  0.98161  0.14730  Biso   1.000  C
  H604     1.0000 0.45630  0.97400  0.15830  Biso   1.000  H
  C542     1.0000 0.36023  0.94918  0.04600  Biso   1.000  C
  H605     1.0000 0.33730  0.95530  0.05720  Biso   1.000  H
  H606     1.0000 0.36350  0.92620  0.06190  Biso   1.000  H
  Mn33     1.0000 0.61288  0.97001  0.52584  Biso   1.000  Mn
  O97      1.0000 0.64867  0.99195  0.56595  Biso   1.000  O
  O98      1.0000 0.61813  0.04746  0.37221  Biso   1.000  O
  O99      1.0000 0.57537  0.95244  0.47280  Biso   1.000  O
  N86      1.0000 0.60629  0.00439  0.44996  Biso   1.000  N
  N87      1.0000 0.57849  0.99969  0.40292  Biso   1.000  N
  N88      1.0000 0.30875  0.89500  0.80800  Biso   1.000  N
  C543     1.0000 0.66570  0.01652  0.53573  Biso   1.000  C
  C544     1.0000 0.69556  0.02420  0.57121  Biso   1.000  C
  H607     1.0000 0.70240  0.01200  0.61470  Biso   1.000  H
  C545     1.0000 0.71499  0.04911  0.54390  Biso   1.000  C
  H608     1.0000 0.73510  0.05380  0.56880  Biso   1.000  H
  C546     1.0000 0.70575  0.06739  0.48057  Biso   1.000  C
  H609     1.0000 0.71930  0.08450  0.46180  Biso   1.000  H
  C547     1.0000 0.67651  0.06012  0.44566  Biso   1.000  C
  H610     1.0000 0.67000  0.07260  0.40240  Biso   1.000  H
  C548     1.0000 0.65592  0.03507  0.47120  Biso   1.000  C
  C549     1.0000 0.62541  0.02880  0.42981  Biso   1.000  C
  C550     1.0000 0.56475  0.97192  0.41902  Biso   1.000  C
  C551     1.0000 0.53628  0.96002  0.37220  Biso   1.000  C
  H611     1.0000 0.52790  0.97820  0.34030  Biso   1.000  H
  H612     1.0000 0.51850  0.95290  0.40690  Biso   1.000  H
  C552     1.0000 0.54635  0.93102  0.31960  Biso   1.000  C
  H613     1.0000 0.56280  0.93880  0.28230  Biso   1.000  H
  H614     1.0000 0.55680  0.91390  0.35140  Biso   1.000  H
  C553     1.0000 0.51803  0.91610  0.27650  Biso   1.000  C
  H615     1.0000 0.52010  0.89210  0.28240  Biso   1.000  H
  H616     1.0000 0.49790  0.92260  0.30430  Biso   1.000  H
  C554     1.0000 0.51300  0.92100  0.21170  Biso   1.000  C
  H617     1.0000 0.53390  0.91770  0.18410  Biso   1.000  H
  H618     1.0000 0.50740  0.94440  0.20640  Biso   1.000  H
  C555     1.0000 0.48652  0.90120  0.16880  Biso   1.000  C
  H619     1.0000 0.48130  0.88140  0.19780  Biso   1.000  H
  H620     1.0000 0.49460  0.89520  0.11790  Biso   1.000  H
  H621     1.0000 0.46680  0.91460  0.16340  Biso   1.000  H
  C556     1.0000 0.30683  0.89009  0.88319  Biso   1.000  C
  H622     1.0000 0.29240  0.87360  0.90130  Biso   1.000  H
  C557     1.0000 0.32471  0.90764  0.93640  Biso   1.000  C
  H623     1.0000 0.32260  0.90310  0.98960  Biso   1.000  H
  C558     1.0000 0.34563  0.93179  0.91110  Biso   1.000  C
  C559     1.0000 0.34718  0.93741  0.83330  Biso   1.000  C
  H624     1.0000 0.36090  0.95420  0.81350  Biso   1.000  H
  C560     1.0000 0.32864  0.91850  0.78440  Biso   1.000  C
  H625     1.0000 0.33020  0.92250  0.73090  Biso   1.000  H
  C561     1.0000 0.36620  0.95219  0.96550  Biso   1.000  C
  H626     1.0000 0.36320  0.97550  0.95140  Biso   1.000  H
  H627     1.0000 0.38940  0.94670  0.95620  Biso   1.000  H
  Mn34     1.0000 0.07662  0.54019  0.81589  Biso   1.000  Mn
  O100     1.0000 0.09454  0.51303  0.74031  Biso   1.000  O
  O101     1.0000 0.99453  0.52522  0.68036  Biso   1.000  O
  O102     1.0000 0.05125  0.56634  0.88691  Biso   1.000  O
  N89      1.0000 0.03399  0.53611  0.76916  Biso   1.000  N
  N90      1.0000 0.00835  0.55137  0.81110  Biso   1.000  N
  C562     1.0000 0.08075  0.50016  0.67787  Biso   1.000  C
  C563     1.0000 0.10029  0.48021  0.63190  Biso   1.000  C
  H628     1.0000 0.12210  0.47560  0.64710  Biso   1.000  H
  C564     1.0000 0.08840  0.46708  0.56450  Biso   1.000  C
  H629     1.0000 0.10210  0.45340  0.53440  Biso   1.000  H
  C565     1.0000 0.05689  0.47343  0.53990  Biso   1.000  C
  H630     1.0000 0.04910  0.46510  0.49250  Biso   1.000  H
  C566     1.0000 0.03685  0.49234  0.58660  Biso   1.000  C
  H631     1.0000 0.01500  0.49640  0.57110  Biso   1.000  H
  C567     1.0000 0.04811  0.50557  0.65594  Biso   1.000  C
  C568     1.0000 0.02440  0.52321  0.70339  Biso   1.000  C
  C569     1.0000 0.01991  0.56594  0.87173  Biso   1.000  C
  C570     1.0000 0.99763  0.58313  0.92667  Biso   1.000  C
  H632     1.0000 0.97480  0.58060  0.90900  Biso   1.000  H
  H633     1.0000 0.99950  0.57270  0.97760  Biso   1.000  H
  C571     1.0000 0.00533  0.61932  0.93450  Biso   1.000  C
  H634     1.0000 0.99140  0.62880  0.97520  Biso   1.000  H
  H635     1.0000 0.02840  0.62190  0.95020  Biso   1.000  H
  C572     1.0000 0.99962  0.63814  0.85960  Biso   1.000  C
  H636     1.0000 0.01430  0.62930  0.81960  Biso   1.000  H
  H637     1.0000 0.97680  0.63460  0.84260  Biso   1.000  H
  C573     1.0000 0.00571  0.67504  0.86760  Biso   1.000  C
  H638     1.0000 0.99120  0.68400  0.90790  Biso   1.000  H
  H639     1.0000 0.02860  0.67880  0.88360  Biso   1.000  H
  C574     1.0000 0.99921  0.69319  0.79130  Biso   1.000  C
  H640     1.0000 0.97760  0.68710  0.77170  Biso   1.000  H
  H641     1.0000 0.00000  0.71680  0.80000  Biso   1.000  H
  H642     1.0000 0.01600  0.68710  0.75370  Biso   1.000  H
  Mn35     1.0000 0.96017  0.53785  0.75493  Biso   1.000  Mn
  N91      1.0000 0.92616  0.54355  0.83134  Biso   1.000  N
  N92      1.0000 0.92170  0.51632  0.88063  Biso   1.000  N
  N93      1.0000 0.92618  0.51159  0.67125  Biso   1.000  N
  O103     1.0000 0.95153  0.57909  0.71571  Biso   1.000  O
  O104     1.0000 0.88506  0.56698  0.90032  Biso   1.000  O
  O105     1.0000 0.96312  0.49617  0.80685  Biso   1.000  O
  C575     1.0000 0.92774  0.60008  0.73181  Biso   1.000  C
  C576     1.0000 0.92513  0.62811  0.68550  Biso   1.000  C
  H643     1.0000 0.94030  0.63150  0.64510  Biso   1.000  H
  C577     1.0000 0.90074  0.65082  0.69800  Biso   1.000  C
  H644     1.0000 0.89940  0.66960  0.66610  Biso   1.000  H
  C578     1.0000 0.87843  0.64669  0.75580  Biso   1.000  C
  H645     1.0000 0.86140  0.66220  0.76330  Biso   1.000  H
  C579     1.0000 0.88095  0.61986  0.80279  Biso   1.000  C
  H646     1.0000 0.86580  0.61730  0.84350  Biso   1.000  H
  C580     1.0000 0.90533  0.59616  0.79217  Biso   1.000  C
  C581     1.0000 0.90548  0.56771  0.84422  Biso   1.000  C
  C582     1.0000 0.94181  0.49297  0.86178  Biso   1.000  C
  C583     1.0000 0.93984  0.46032  0.90120  Biso   1.000  C
  H647     1.0000 0.96200  0.45340  0.91710  Biso   1.000  H
  H648     1.0000 0.92610  0.46230  0.94770  Biso   1.000  H
  C584     1.0000 0.92504  0.43451  0.84720  Biso   1.000  C
  H649     1.0000 0.92760  0.41270  0.87090  Biso   1.000  H
  H650     1.0000 0.93750  0.43450  0.79860  Biso   1.000  H
  C585     1.0000 0.88929  0.44011  0.82970  Biso   1.000  C
  H651     1.0000 0.87700  0.44050  0.87850  Biso   1.000  H
  H652     1.0000 0.88680  0.46190  0.80550  Biso   1.000  H
  C586     1.0000 0.87416  0.41455  0.77740  Biso   1.000  C
  H653     1.0000 0.88660  0.41380  0.72880  Biso   1.000  H
  H654     1.0000 0.87600  0.39280  0.80200  Biso   1.000  H
  C587     1.0000 0.83800  0.42152  0.75970  Biso   1.000  C
  H655     1.0000 0.83570  0.44400  0.74100  Biso   1.000  H
  H656     1.0000 0.83030  0.40620  0.72050  Biso   1.000  H
  H657     1.0000 0.82500  0.41880  0.80640  Biso   1.000  H
  C588     1.0000 0.89615  0.52134  0.65450  Biso   1.000  C
  H658     1.0000 0.88940  0.54250  0.67060  Biso   1.000  H
  C589     1.0000 0.87425  0.50193  0.61460  Biso   1.000  C
  H659     1.0000 0.85300  0.51000  0.60330  Biso   1.000  H
  C590     1.0000 0.88310  0.47109  0.59130  Biso   1.000  C
  C591     1.0000 0.91400  0.46137  0.60760  Biso   1.000  C
  H660     1.0000 0.92130  0.44040  0.59150  Biso   1.000  H
  C592     1.0000 0.93483  0.48161  0.64730  Biso   1.000  C
  H661     1.0000 0.95630  0.47400  0.65830  Biso   1.000  H
  C593     1.0000 0.86023  0.44918  0.54600  Biso   1.000  C
  H662     1.0000 0.83730  0.45530  0.55720  Biso   1.000  H
  H663     1.0000 0.86350  0.42620  0.56190  Biso   1.000  H
  Mn36     1.0000 0.11288  0.47001  0.02584  Biso   1.000  Mn
  O106     1.0000 0.14867  0.49195  0.06595  Biso   1.000  O
  O107     1.0000 0.11813  0.54746  0.87221  Biso   1.000  O
  O108     1.0000 0.07537  0.45244  0.97280  Biso   1.000  O
  N94      1.0000 0.10629  0.50439  0.94996  Biso   1.000  N
  N95      1.0000 0.07849  0.49969  0.90292  Biso   1.000  N
  N96      1.0000 0.80875  0.39500  0.30800  Biso   1.000  N
  C594     1.0000 0.16570  0.51652  0.03573  Biso   1.000  C
  C595     1.0000 0.19556  0.52420  0.07121  Biso   1.000  C
  H664     1.0000 0.20240  0.51200  0.11470  Biso   1.000  H
  C596     1.0000 0.21499  0.54911  0.04390  Biso   1.000  C
  H665     1.0000 0.23510  0.55380  0.06880  Biso   1.000  H
  C597     1.0000 0.20575  0.56739  0.98057  Biso   1.000  C
  H666     1.0000 0.21930  0.58450  0.96180  Biso   1.000  H
  C598     1.0000 0.17651  0.56012  0.94566  Biso   1.000  C
  H667     1.0000 0.17000  0.57260  0.90240  Biso   1.000  H
  C599     1.0000 0.15592  0.53507  0.97120  Biso   1.000  C
  C600     1.0000 0.12541  0.52880  0.92981  Biso   1.000  C
  C601     1.0000 0.06475  0.47192  0.91902  Biso   1.000  C
  C602     1.0000 0.03628  0.46002  0.87220  Biso   1.000  C
  H668     1.0000 0.02790  0.47820  0.84030  Biso   1.000  H
  H669     1.0000 0.01850  0.45290  0.90690  Biso   1.000  H
  C603     1.0000 0.04635  0.43102  0.81960  Biso   1.000  C
  H670     1.0000 0.06280  0.43880  0.78230  Biso   1.000  H
  H671     1.0000 0.05680  0.41390  0.85140  Biso   1.000  H
  C604     1.0000 0.01803  0.41610  0.77650  Biso   1.000  C
  H672     1.0000 0.02010  0.39210  0.78240  Biso   1.000  H
  H673     1.0000 0.99790  0.42260  0.80430  Biso   1.000  H
  C605     1.0000 0.01300  0.42100  0.71170  Biso   1.000  C
  H674     1.0000 0.03390  0.41770  0.68410  Biso   1.000  H
  H675     1.0000 0.00740  0.44440  0.70640  Biso   1.000  H
  C606     1.0000 0.98652  0.40120  0.66880  Biso   1.000  C
  H676     1.0000 0.98130  0.38140  0.69780  Biso   1.000  H
  H677     1.0000 0.99460  0.39520  0.61790  Biso   1.000  H
  H678     1.0000 0.96680  0.41460  0.66340  Biso   1.000  H
  C607     1.0000 0.80683  0.39009  0.38319  Biso   1.000  C
  H679     1.0000 0.79240  0.37360  0.40130  Biso   1.000  H
  C608     1.0000 0.82471  0.40764  0.43640  Biso   1.000  C
  H680     1.0000 0.82260  0.40310  0.48960  Biso   1.000  H
  C609     1.0000 0.84563  0.43179  0.41110  Biso   1.000  C
  C610     1.0000 0.84718  0.43741  0.33330  Biso   1.000  C
  H681     1.0000 0.86090  0.45420  0.31350  Biso   1.000  H
  C611     1.0000 0.82864  0.41850  0.28440  Biso   1.000  C
  H682     1.0000 0.83020  0.42250  0.23090  Biso   1.000  H
  C612     1.0000 0.86620  0.45219  0.46550  Biso   1.000  C
  H683     1.0000 0.86320  0.47550  0.45140  Biso   1.000  H
  H684     1.0000 0.88940  0.44670  0.45620  Biso   1.000  H
  Mn37     1.0000 0.29019  0.67338  0.56589  Biso   1.000  Mn
  O109     1.0000 0.26303  0.65546  0.49031  Biso   1.000  O
  O110     1.0000 0.27522  0.75547  0.43036  Biso   1.000  O
  O111     1.0000 0.31634  0.69875  0.63691  Biso   1.000  O
  N97      1.0000 0.28611  0.71601  0.51916  Biso   1.000  N
  N98      1.0000 0.30137  0.74165  0.56110  Biso   1.000  N
  C613     1.0000 0.25016  0.66925  0.42787  Biso   1.000  C
  C614     1.0000 0.23021  0.64971  0.38190  Biso   1.000  C
  H685     1.0000 0.22560  0.62790  0.39710  Biso   1.000  H
  C615     1.0000 0.21708  0.66160  0.31450  Biso   1.000  C
  H686     1.0000 0.20340  0.64790  0.28440  Biso   1.000  H
  C616     1.0000 0.22343  0.69311  0.28990  Biso   1.000  C
  H687     1.0000 0.21510  0.70090  0.24250  Biso   1.000  H
  C617     1.0000 0.24234  0.71315  0.33660  Biso   1.000  C
  H688     1.0000 0.24640  0.73500  0.32110  Biso   1.000  H
  C618     1.0000 0.25557  0.70189  0.40594  Biso   1.000  C
  C619     1.0000 0.27321  0.72560  0.45339  Biso   1.000  C
  C620     1.0000 0.31594  0.73009  0.62173  Biso   1.000  C
  C621     1.0000 0.33313  0.75237  0.67667  Biso   1.000  C
  H689     1.0000 0.33060  0.77520  0.65900  Biso   1.000  H
  H690     1.0000 0.32270  0.75050  0.72760  Biso   1.000  H
  C622     1.0000 0.36932  0.74467  0.68450  Biso   1.000  C
  H691     1.0000 0.37880  0.75860  0.72520  Biso   1.000  H
  H692     1.0000 0.37190  0.72160  0.70020  Biso   1.000  H
  C623     1.0000 0.38814  0.75038  0.60960  Biso   1.000  C
  H693     1.0000 0.37930  0.73570  0.56960  Biso   1.000  H
  H694     1.0000 0.38460  0.77320  0.59260  Biso   1.000  H
  C624     1.0000 0.42504  0.74429  0.61760  Biso   1.000  C
  H695     1.0000 0.43400  0.75880  0.65790  Biso   1.000  H
  H696     1.0000 0.42880  0.72140  0.63360  Biso   1.000  H
  C625     1.0000 0.44319  0.75079  0.54130  Biso   1.000  C
  H697     1.0000 0.43710  0.77240  0.52170  Biso   1.000  H
  H698     1.0000 0.46680  0.75000  0.55000  Biso   1.000  H
  H699     1.0000 0.43710  0.73400  0.50370  Biso   1.000  H
  Mn38     1.0000 0.28785  0.78983  0.50493  Biso   1.000  Mn
  N99      1.0000 0.29355  0.82384  0.58134  Biso   1.000  N
  N100     1.0000 0.26632  0.82830  0.63063  Biso   1.000  N
  N101     1.0000 0.26159  0.82382  0.42125  Biso   1.000  N
  O112     1.0000 0.32909  0.79847  0.46571  Biso   1.000  O
  O113     1.0000 0.31698  0.86494  0.65032  Biso   1.000  O
  O114     1.0000 0.24617  0.78688  0.55685  Biso   1.000  O
  C626     1.0000 0.35008  0.82226  0.48181  Biso   1.000  C
  C627     1.0000 0.37811  0.82487  0.43550  Biso   1.000  C
  H700     1.0000 0.38150  0.80970  0.39510  Biso   1.000  H
  C628     1.0000 0.40082  0.84926  0.44800  Biso   1.000  C
  H701     1.0000 0.41960  0.85060  0.41610  Biso   1.000  H
  C629     1.0000 0.39669  0.87157  0.50580  Biso   1.000  C
  H702     1.0000 0.41220  0.88860  0.51330  Biso   1.000  H
  C630     1.0000 0.36986  0.86905  0.55279  Biso   1.000  C
  H703     1.0000 0.36730  0.88420  0.59350  Biso   1.000  H
  C631     1.0000 0.34616  0.84467  0.54217  Biso   1.000  C
  C632     1.0000 0.31771  0.84452  0.59422  Biso   1.000  C
  C633     1.0000 0.24297  0.80819  0.61178  Biso   1.000  C
  C634     1.0000 0.21032  0.81016  0.65120  Biso   1.000  C
  H704     1.0000 0.20340  0.78800  0.66710  Biso   1.000  H
  H705     1.0000 0.21230  0.82390  0.69770  Biso   1.000  H
  C635     1.0000 0.18451  0.82496  0.59720  Biso   1.000  C
  H706     1.0000 0.16270  0.82240  0.62090  Biso   1.000  H
  H707     1.0000 0.18450  0.81250  0.54860  Biso   1.000  H
  C636     1.0000 0.19011  0.86071  0.57970  Biso   1.000  C
  H708     1.0000 0.19050  0.87300  0.62850  Biso   1.000  H
  H709     1.0000 0.21190  0.86320  0.55550  Biso   1.000  H
  C637     1.0000 0.16455  0.87584  0.52740  Biso   1.000  C
  H710     1.0000 0.16380  0.86340  0.47880  Biso   1.000  H
  H711     1.0000 0.14280  0.87400  0.55200  Biso   1.000  H
  C638     1.0000 0.17152  0.91200  0.50970  Biso   1.000  C
  H712     1.0000 0.19400  0.91430  0.49100  Biso   1.000  H
  H713     1.0000 0.15620  0.91970  0.47050  Biso   1.000  H
  H714     1.0000 0.16880  0.92500  0.55640  Biso   1.000  H
  C639     1.0000 0.27134  0.85385  0.40450  Biso   1.000  C
  H715     1.0000 0.29250  0.86060  0.42060  Biso   1.000  H
  C640     1.0000 0.25193  0.87575  0.36460  Biso   1.000  C
  H716     1.0000 0.26000  0.89700  0.35330  Biso   1.000  H
  C641     1.0000 0.22109  0.86690  0.34130  Biso   1.000  C
  C642     1.0000 0.21137  0.83600  0.35760  Biso   1.000  C
  H717     1.0000 0.19040  0.82870  0.34150  Biso   1.000  H
  C643     1.0000 0.23161  0.81517  0.39730  Biso   1.000  C
  H718     1.0000 0.22400  0.79370  0.40830  Biso   1.000  H
  C644     1.0000 0.19918  0.88977  0.29600  Biso   1.000  C
  H719     1.0000 0.20530  0.91270  0.30720  Biso   1.000  H
  H720     1.0000 0.17620  0.88650  0.31190  Biso   1.000  H
  Mn39     1.0000 0.22001  0.63712  0.77584  Biso   1.000  Mn
  O115     1.0000 0.24195  0.60133  0.81595  Biso   1.000  O
  O116     1.0000 0.29746  0.63187  0.62221  Biso   1.000  O
  O117     1.0000 0.20244  0.67463  0.72280  Biso   1.000  O
  N102     1.0000 0.25439  0.64371  0.69996  Biso   1.000  N
  N103     1.0000 0.24969  0.67151  0.65292  Biso   1.000  N
  N104     1.0000 0.14500  0.94125  0.05800  Biso   1.000  N
  C645     1.0000 0.26652  0.58430  0.78573  Biso   1.000  C
  C646     1.0000 0.27420  0.55444  0.82121  Biso   1.000  C
  H721     1.0000 0.26200  0.54760  0.86470  Biso   1.000  H
  C647     1.0000 0.29911  0.53501  0.79390  Biso   1.000  C
  H722     1.0000 0.30380  0.51490  0.81880  Biso   1.000  H
  C648     1.0000 0.31739  0.54425  0.73057  Biso   1.000  C
  H723     1.0000 0.33450  0.53070  0.71180  Biso   1.000  H
  C649     1.0000 0.31012  0.57349  0.69566  Biso   1.000  C
  H724     1.0000 0.32260  0.58000  0.65240  Biso   1.000  H
  C650     1.0000 0.28507  0.59408  0.72120  Biso   1.000  C
  C651     1.0000 0.27880  0.62459  0.67981  Biso   1.000  C
  C652     1.0000 0.22192  0.68525  0.66902  Biso   1.000  C
  C653     1.0000 0.21002  0.71372  0.62220  Biso   1.000  C
  H725     1.0000 0.22820  0.72210  0.59030  Biso   1.000  H
  H726     1.0000 0.20290  0.73150  0.65690  Biso   1.000  H
  C654     1.0000 0.18102  0.70365  0.56960  Biso   1.000  C
  H727     1.0000 0.18880  0.68720  0.53230  Biso   1.000  H
  H728     1.0000 0.16390  0.69320  0.60140  Biso   1.000  H
  C655     1.0000 0.16610  0.73197  0.52650  Biso   1.000  C
  H729     1.0000 0.14210  0.72990  0.53240  Biso   1.000  H
  H730     1.0000 0.17260  0.75210  0.55430  Biso   1.000  H
  C656     1.0000 0.17100  0.73700  0.46170  Biso   1.000  C
  H731     1.0000 0.16770  0.71610  0.43410  Biso   1.000  H
  H732     1.0000 0.19440  0.74260  0.45640  Biso   1.000  H
  C657     1.0000 0.15120  0.76348  0.41880  Biso   1.000  C
  H733     1.0000 0.13140  0.76870  0.44780  Biso   1.000  H
  H734     1.0000 0.14520  0.75540  0.36790  Biso   1.000  H
  H735     1.0000 0.16460  0.78320  0.41340  Biso   1.000  H
  C658     1.0000 0.14009  0.94317  0.13319  Biso   1.000  C
  H736     1.0000 0.12360  0.95760  0.15130  Biso   1.000  H
  C659     1.0000 0.15764  0.92529  0.18640  Biso   1.000  C
  H737     1.0000 0.15310  0.92740  0.23960  Biso   1.000  H
  C660     1.0000 0.18179  0.90437  0.16110  Biso   1.000  C
  C661     1.0000 0.18741  0.90282  0.08330  Biso   1.000  C
  H738     1.0000 0.20420  0.88910  0.06350  Biso   1.000  H
  C662     1.0000 0.16850  0.92136  0.03440  Biso   1.000  C
  H739     1.0000 0.17250  0.91980  0.98090  Biso   1.000  H
  C663     1.0000 0.20219  0.88380  0.21550  Biso   1.000  C
  H740     1.0000 0.22550  0.88680  0.20140  Biso   1.000  H
  H741     1.0000 0.19670  0.86060  0.20620  Biso   1.000  H
  Mn40     1.0000 0.79019  0.17338  0.06589  Biso   1.000  Mn
  O118     1.0000 0.76303  0.15546  0.99031  Biso   1.000  O
  O119     1.0000 0.77522  0.25547  0.93036  Biso   1.000  O
  O120     1.0000 0.81634  0.19875  0.13691  Biso   1.000  O
  N105     1.0000 0.78611  0.21601  0.01916  Biso   1.000  N
  N106     1.0000 0.80137  0.24165  0.06110  Biso   1.000  N
  C664     1.0000 0.75016  0.16925  0.92787  Biso   1.000  C
  C665     1.0000 0.73021  0.14971  0.88190  Biso   1.000  C
  H742     1.0000 0.72560  0.12790  0.89710  Biso   1.000  H
  C666     1.0000 0.71708  0.16160  0.81450  Biso   1.000  C
  H743     1.0000 0.70340  0.14790  0.78440  Biso   1.000  H
  C667     1.0000 0.72343  0.19311  0.78990  Biso   1.000  C
  H744     1.0000 0.71510  0.20090  0.74250  Biso   1.000  H
  C668     1.0000 0.74234  0.21315  0.83660  Biso   1.000  C
  H745     1.0000 0.74640  0.23500  0.82110  Biso   1.000  H
  C669     1.0000 0.75557  0.20189  0.90594  Biso   1.000  C
  C670     1.0000 0.77321  0.22560  0.95339  Biso   1.000  C
  C671     1.0000 0.81594  0.23009  0.12173  Biso   1.000  C
  C672     1.0000 0.83313  0.25237  0.17667  Biso   1.000  C
  H746     1.0000 0.83060  0.27520  0.15900  Biso   1.000  H
  H747     1.0000 0.82270  0.25050  0.22760  Biso   1.000  H
  C673     1.0000 0.86932  0.24467  0.18450  Biso   1.000  C
  H748     1.0000 0.87880  0.25860  0.22520  Biso   1.000  H
  H749     1.0000 0.87190  0.22160  0.20020  Biso   1.000  H
  C674     1.0000 0.88814  0.25038  0.10960  Biso   1.000  C
  H750     1.0000 0.87930  0.23570  0.06960  Biso   1.000  H
  H751     1.0000 0.88460  0.27320  0.09260  Biso   1.000  H
  C675     1.0000 0.92504  0.24429  0.11760  Biso   1.000  C
  H752     1.0000 0.93400  0.25880  0.15790  Biso   1.000  H
  H753     1.0000 0.92880  0.22140  0.13360  Biso   1.000  H
  C676     1.0000 0.94319  0.25079  0.04130  Biso   1.000  C
  H754     1.0000 0.93710  0.27240  0.02170  Biso   1.000  H
  H755     1.0000 0.96680  0.25000  0.05000  Biso   1.000  H
  H756     1.0000 0.93710  0.23400  0.00370  Biso   1.000  H
  Mn41     1.0000 0.78785  0.28983  0.00493  Biso   1.000  Mn
  N107     1.0000 0.79355  0.32384  0.08134  Biso   1.000  N
  N108     1.0000 0.76632  0.32830  0.13063  Biso   1.000  N
  N109     1.0000 0.76159  0.32382  0.92125  Biso   1.000  N
  O121     1.0000 0.82909  0.29847  0.96571  Biso   1.000  O
  O122     1.0000 0.81698  0.36494  0.15032  Biso   1.000  O
  O123     1.0000 0.74617  0.28688  0.05685  Biso   1.000  O
  C677     1.0000 0.85008  0.32226  0.98181  Biso   1.000  C
  C678     1.0000 0.87811  0.32487  0.93550  Biso   1.000  C
  H757     1.0000 0.88150  0.30970  0.89510  Biso   1.000  H
  C679     1.0000 0.90082  0.34926  0.94800  Biso   1.000  C
  H758     1.0000 0.91960  0.35060  0.91610  Biso   1.000  H
  C680     1.0000 0.89669  0.37157  0.00580  Biso   1.000  C
  H759     1.0000 0.91220  0.38860  0.01330  Biso   1.000  H
  C681     1.0000 0.86986  0.36905  0.05279  Biso   1.000  C
  H760     1.0000 0.86730  0.38420  0.09350  Biso   1.000  H
  C682     1.0000 0.84616  0.34467  0.04217  Biso   1.000  C
  C683     1.0000 0.81771  0.34452  0.09422  Biso   1.000  C
  C684     1.0000 0.74297  0.30819  0.11178  Biso   1.000  C
  C685     1.0000 0.71032  0.31016  0.15120  Biso   1.000  C
  H761     1.0000 0.70340  0.28800  0.16710  Biso   1.000  H
  H762     1.0000 0.71230  0.32390  0.19770  Biso   1.000  H
  C686     1.0000 0.68451  0.32496  0.09720  Biso   1.000  C
  H763     1.0000 0.66270  0.32240  0.12090  Biso   1.000  H
  H764     1.0000 0.68450  0.31250  0.04860  Biso   1.000  H
  C687     1.0000 0.69011  0.36071  0.07970  Biso   1.000  C
  H765     1.0000 0.69050  0.37300  0.12850  Biso   1.000  H
  H766     1.0000 0.71190  0.36320  0.05550  Biso   1.000  H
  C688     1.0000 0.66455  0.37584  0.02740  Biso   1.000  C
  H767     1.0000 0.66380  0.36340  0.97880  Biso   1.000  H
  H768     1.0000 0.64280  0.37400  0.05200  Biso   1.000  H
  C689     1.0000 0.67152  0.41200  0.00970  Biso   1.000  C
  H769     1.0000 0.69400  0.41430  0.99100  Biso   1.000  H
  H770     1.0000 0.65620  0.41970  0.97050  Biso   1.000  H
  H771     1.0000 0.66880  0.42500  0.05640  Biso   1.000  H
  C690     1.0000 0.77134  0.35385  0.90450  Biso   1.000  C
  H772     1.0000 0.79250  0.36060  0.92060  Biso   1.000  H
  C691     1.0000 0.75193  0.37575  0.86460  Biso   1.000  C
  H773     1.0000 0.76000  0.39700  0.85330  Biso   1.000  H
  C692     1.0000 0.72109  0.36690  0.84130  Biso   1.000  C
  C693     1.0000 0.71137  0.33600  0.85760  Biso   1.000  C
  H774     1.0000 0.69040  0.32870  0.84150  Biso   1.000  H
  C694     1.0000 0.73161  0.31517  0.89730  Biso   1.000  C
  H775     1.0000 0.72400  0.29370  0.90830  Biso   1.000  H
  C695     1.0000 0.69918  0.38977  0.79600  Biso   1.000  C
  H776     1.0000 0.70530  0.41270  0.80720  Biso   1.000  H
  H777     1.0000 0.67620  0.38650  0.81190  Biso   1.000  H
  Mn42     1.0000 0.72001  0.13712  0.27584  Biso   1.000  Mn
  O124     1.0000 0.74195  0.10133  0.31595  Biso   1.000  O
  O125     1.0000 0.79746  0.13187  0.12221  Biso   1.000  O
  O126     1.0000 0.70244  0.17463  0.22280  Biso   1.000  O
  N110     1.0000 0.75439  0.14371  0.19996  Biso   1.000  N
  N111     1.0000 0.74969  0.17151  0.15292  Biso   1.000  N
  N112     1.0000 0.64500  0.44125  0.55800  Biso   1.000  N
  C696     1.0000 0.76652  0.08430  0.28573  Biso   1.000  C
  C697     1.0000 0.77420  0.05444  0.32121  Biso   1.000  C
  H778     1.0000 0.76200  0.04760  0.36470  Biso   1.000  H
  C698     1.0000 0.79911  0.03501  0.29390  Biso   1.000  C
  H779     1.0000 0.80380  0.01490  0.31880  Biso   1.000  H
  C699     1.0000 0.81739  0.04425  0.23057  Biso   1.000  C
  H780     1.0000 0.83450  0.03070  0.21180  Biso   1.000  H
  C700     1.0000 0.81012  0.07349  0.19566  Biso   1.000  C
  H781     1.0000 0.82260  0.08000  0.15240  Biso   1.000  H
  C701     1.0000 0.78507  0.09408  0.22120  Biso   1.000  C
  C702     1.0000 0.77880  0.12459  0.17981  Biso   1.000  C
  C703     1.0000 0.72192  0.18525  0.16902  Biso   1.000  C
  C704     1.0000 0.71002  0.21372  0.12220  Biso   1.000  C
  H782     1.0000 0.72820  0.22210  0.09030  Biso   1.000  H
  H783     1.0000 0.70290  0.23150  0.15690  Biso   1.000  H
  C705     1.0000 0.68102  0.20365  0.06960  Biso   1.000  C
  H784     1.0000 0.68880  0.18720  0.03230  Biso   1.000  H
  H785     1.0000 0.66390  0.19320  0.10140  Biso   1.000  H
  C706     1.0000 0.66610  0.23197  0.02650  Biso   1.000  C
  H786     1.0000 0.64210  0.22990  0.03240  Biso   1.000  H
  H787     1.0000 0.67260  0.25210  0.05430  Biso   1.000  H
  C707     1.0000 0.67100  0.23700  0.96170  Biso   1.000  C
  H788     1.0000 0.66770  0.21610  0.93410  Biso   1.000  H
  H789     1.0000 0.69440  0.24260  0.95640  Biso   1.000  H
  C708     1.0000 0.65120  0.26348  0.91880  Biso   1.000  C
  H790     1.0000 0.63140  0.26870  0.94780  Biso   1.000  H
  H791     1.0000 0.64520  0.25540  0.86790  Biso   1.000  H
  H792     1.0000 0.66460  0.28320  0.91340  Biso   1.000  H
  C709     1.0000 0.64009  0.44317  0.63319  Biso   1.000  C
  H793     1.0000 0.62360  0.45760  0.65130  Biso   1.000  H
  C710     1.0000 0.65764  0.42529  0.68640  Biso   1.000  C
  H794     1.0000 0.65310  0.42740  0.73960  Biso   1.000  H
  C711     1.0000 0.68179  0.40437  0.66110  Biso   1.000  C
  C712     1.0000 0.68741  0.40282  0.58330  Biso   1.000  C
  H795     1.0000 0.70420  0.38910  0.56350  Biso   1.000  H
  C713     1.0000 0.66850  0.42136  0.53440  Biso   1.000  C
  H796     1.0000 0.67250  0.41980  0.48090  Biso   1.000  H
  C714     1.0000 0.70219  0.38380  0.71550  Biso   1.000  C
  H797     1.0000 0.72550  0.38680  0.70140  Biso   1.000  H
  H798     1.0000 0.69670  0.36060  0.70620  Biso   1.000  H
  Mn43     1.0000 0.20981  0.32662  0.06589  Biso   1.000  Mn
  O127     1.0000 0.23697  0.34454  0.99031  Biso   1.000  O
  O128     1.0000 0.22478  0.24453  0.93036  Biso   1.000  O
  O129     1.0000 0.18366  0.30125  0.13691  Biso   1.000  O
  N113     1.0000 0.21389  0.28399  0.01916  Biso   1.000  N
  N114     1.0000 0.19863  0.25835  0.06110  Biso   1.000  N
  C715     1.0000 0.24984  0.33075  0.92787  Biso   1.000  C
  C716     1.0000 0.26979  0.35029  0.88190  Biso   1.000  C
  H799     1.0000 0.27440  0.37210  0.89710  Biso   1.000  H
  C717     1.0000 0.28292  0.33840  0.81450  Biso   1.000  C
  H800     1.0000 0.29660  0.35210  0.78440  Biso   1.000  H
  C718     1.0000 0.27657  0.30689  0.78990  Biso   1.000  C
  H801     1.0000 0.28490  0.29910  0.74250  Biso   1.000  H
  C719     1.0000 0.25766  0.28685  0.83660  Biso   1.000  C
  H802     1.0000 0.25360  0.26500  0.82110  Biso   1.000  H
  C720     1.0000 0.24443  0.29811  0.90594  Biso   1.000  C
  C721     1.0000 0.22679  0.27440  0.95339  Biso   1.000  C
  C722     1.0000 0.18406  0.26991  0.12173  Biso   1.000  C
  C723     1.0000 0.16687  0.24763  0.17667  Biso   1.000  C
  H803     1.0000 0.16940  0.22480  0.15900  Biso   1.000  H
  H804     1.0000 0.17730  0.24950  0.22760  Biso   1.000  H
  C724     1.0000 0.13068  0.25533  0.18450  Biso   1.000  C
  H805     1.0000 0.12120  0.24140  0.22520  Biso   1.000  H
  H806     1.0000 0.12810  0.27840  0.20020  Biso   1.000  H
  C725     1.0000 0.11186  0.24962  0.10960  Biso   1.000  C
  H807     1.0000 0.12070  0.26430  0.06960  Biso   1.000  H
  H808     1.0000 0.11540  0.22680  0.09260  Biso   1.000  H
  C726     1.0000 0.07496  0.25571  0.11760  Biso   1.000  C
  H809     1.0000 0.06600  0.24120  0.15790  Biso   1.000  H
  H810     1.0000 0.07120  0.27860  0.13360  Biso   1.000  H
  C727     1.0000 0.05681  0.24921  0.04130  Biso   1.000  C
  H811     1.0000 0.06290  0.22760  0.02170  Biso   1.000  H
  H812     1.0000 0.03320  0.25000  0.05000  Biso   1.000  H
  H813     1.0000 0.06290  0.26600  0.00370  Biso   1.000  H
  Mn44     1.0000 0.21215  0.21017  0.00493  Biso   1.000  Mn
  N115     1.0000 0.20645  0.17616  0.08134  Biso   1.000  N
  N116     1.0000 0.23368  0.17170  0.13063  Biso   1.000  N
  N117     1.0000 0.23841  0.17618  0.92125  Biso   1.000  N
  O130     1.0000 0.17091  0.20153  0.96571  Biso   1.000  O
  O131     1.0000 0.18302  0.13506  0.15032  Biso   1.000  O
  O132     1.0000 0.25383  0.21312  0.05685  Biso   1.000  O
  C728     1.0000 0.14992  0.17774  0.98181  Biso   1.000  C
  C729     1.0000 0.12189  0.17513  0.93550  Biso   1.000  C
  H814     1.0000 0.11850  0.19030  0.89510  Biso   1.000  H
  C730     1.0000 0.09918  0.15074  0.94800  Biso   1.000  C
  H815     1.0000 0.08040  0.14940  0.91610  Biso   1.000  H
  C731     1.0000 0.10331  0.12843  0.00580  Biso   1.000  C
  H816     1.0000 0.08780  0.11140  0.01330  Biso   1.000  H
  C732     1.0000 0.13014  0.13095  0.05279  Biso   1.000  C
  H817     1.0000 0.13270  0.11580  0.09350  Biso   1.000  H
  C733     1.0000 0.15384  0.15533  0.04217  Biso   1.000  C
  C734     1.0000 0.18229  0.15548  0.09422  Biso   1.000  C
  C735     1.0000 0.25703  0.19181  0.11178  Biso   1.000  C
  C736     1.0000 0.28968  0.18984  0.15120  Biso   1.000  C
  H818     1.0000 0.29660  0.21200  0.16710  Biso   1.000  H
  H819     1.0000 0.28770  0.17610  0.19770  Biso   1.000  H
  C737     1.0000 0.31549  0.17504  0.09720  Biso   1.000  C
  H820     1.0000 0.33730  0.17760  0.12090  Biso   1.000  H
  H821     1.0000 0.31550  0.18750  0.04860  Biso   1.000  H
  C738     1.0000 0.30989  0.13929  0.07970  Biso   1.000  C
  H822     1.0000 0.30950  0.12700  0.12850  Biso   1.000  H
  H823     1.0000 0.28810  0.13680  0.05550  Biso   1.000  H
  C739     1.0000 0.33545  0.12416  0.02740  Biso   1.000  C
  H824     1.0000 0.33620  0.13660  0.97880  Biso   1.000  H
  H825     1.0000 0.35720  0.12600  0.05200  Biso   1.000  H
  C740     1.0000 0.32848  0.08800  0.00970  Biso   1.000  C
  H826     1.0000 0.30600  0.08570  0.99100  Biso   1.000  H
  H827     1.0000 0.34380  0.08030  0.97050  Biso   1.000  H
  H828     1.0000 0.33120  0.07500  0.05640  Biso   1.000  H
  C741     1.0000 0.22866  0.14615  0.90450  Biso   1.000  C
  H829     1.0000 0.20750  0.13940  0.92060  Biso   1.000  H
  C742     1.0000 0.24807  0.12425  0.86460  Biso   1.000  C
  H830     1.0000 0.24000  0.10300  0.85330  Biso   1.000  H
  C743     1.0000 0.27891  0.13310  0.84130  Biso   1.000  C
  C744     1.0000 0.28863  0.16400  0.85760  Biso   1.000  C
  H831     1.0000 0.30960  0.17130  0.84150  Biso   1.000  H
  C745     1.0000 0.26839  0.18483  0.89730  Biso   1.000  C
  H832     1.0000 0.27600  0.20630  0.90830  Biso   1.000  H
  C746     1.0000 0.30082  0.11023  0.79600  Biso   1.000  C
  H833     1.0000 0.29470  0.08730  0.80720  Biso   1.000  H
  H834     1.0000 0.32380  0.11350  0.81190  Biso   1.000  H
  Mn45     1.0000 0.27999  0.36288  0.27584  Biso   1.000  Mn
  O133     1.0000 0.25805  0.39867  0.31595  Biso   1.000  O
  O134     1.0000 0.20254  0.36813  0.12221  Biso   1.000  O
  O135     1.0000 0.29756  0.32537  0.22280  Biso   1.000  O
  N118     1.0000 0.24561  0.35629  0.19996  Biso   1.000  N
  N119     1.0000 0.25031  0.32849  0.15292  Biso   1.000  N
  N120     1.0000 0.35500  0.05875  0.55800  Biso   1.000  N
  C747     1.0000 0.23348  0.41570  0.28573  Biso   1.000  C
  C748     1.0000 0.22580  0.44556  0.32121  Biso   1.000  C
  H835     1.0000 0.23800  0.45240  0.36470  Biso   1.000  H
  C749     1.0000 0.20089  0.46499  0.29390  Biso   1.000  C
  H836     1.0000 0.19620  0.48510  0.31880  Biso   1.000  H
  C750     1.0000 0.18261  0.45575  0.23057  Biso   1.000  C
  H837     1.0000 0.16550  0.46930  0.21180  Biso   1.000  H
  C751     1.0000 0.18988  0.42651  0.19566  Biso   1.000  C
  H838     1.0000 0.17740  0.42000  0.15240  Biso   1.000  H
  C752     1.0000 0.21493  0.40592  0.22120  Biso   1.000  C
  C753     1.0000 0.22120  0.37541  0.17981  Biso   1.000  C
  C754     1.0000 0.27808  0.31475  0.16902  Biso   1.000  C
  C755     1.0000 0.28998  0.28628  0.12220  Biso   1.000  C
  H839     1.0000 0.27180  0.27790  0.09030  Biso   1.000  H
  H840     1.0000 0.29710  0.26850  0.15690  Biso   1.000  H
  C756     1.0000 0.31898  0.29635  0.06960  Biso   1.000  C
  H841     1.0000 0.31120  0.31280  0.03230  Biso   1.000  H
  H842     1.0000 0.33610  0.30680  0.10140  Biso   1.000  H
  C757     1.0000 0.33390  0.26803  0.02650  Biso   1.000  C
  H843     1.0000 0.35790  0.27010  0.03240  Biso   1.000  H
  H844     1.0000 0.32740  0.24790  0.05430  Biso   1.000  H
  C758     1.0000 0.32900  0.26300  0.96170  Biso   1.000  C
  H845     1.0000 0.33230  0.28390  0.93410  Biso   1.000  H
  H846     1.0000 0.30560  0.25740  0.95640  Biso   1.000  H
  C759     1.0000 0.34880  0.23652  0.91880  Biso   1.000  C
  H847     1.0000 0.36860  0.23130  0.94780  Biso   1.000  H
  H848     1.0000 0.35480  0.24460  0.86790  Biso   1.000  H
  H849     1.0000 0.33540  0.21680  0.91340  Biso   1.000  H
  C760     1.0000 0.35991  0.05683  0.63319  Biso   1.000  C
  H850     1.0000 0.37640  0.04240  0.65130  Biso   1.000  H
  C761     1.0000 0.34236  0.07471  0.68640  Biso   1.000  C
  H851     1.0000 0.34690  0.07260  0.73960  Biso   1.000  H
  C762     1.0000 0.31821  0.09563  0.66110  Biso   1.000  C
  C763     1.0000 0.31259  0.09718  0.58330  Biso   1.000  C
  H852     1.0000 0.29580  0.11090  0.56350  Biso   1.000  H
  C764     1.0000 0.33150  0.07864  0.53440  Biso   1.000  C
  H853     1.0000 0.32750  0.08020  0.48090  Biso   1.000  H
  C765     1.0000 0.29781  0.11620  0.71550  Biso   1.000  C
  H854     1.0000 0.27450  0.11320  0.70140  Biso   1.000  H
  H855     1.0000 0.30330  0.13940  0.70620  Biso   1.000  H
  Mn46     1.0000 0.70981  0.82662  0.56589  Biso   1.000  Mn
  O136     1.0000 0.73697  0.84454  0.49031  Biso   1.000  O
  O137     1.0000 0.72478  0.74453  0.43036  Biso   1.000  O
  O138     1.0000 0.68366  0.80125  0.63691  Biso   1.000  O
  N121     1.0000 0.71389  0.78399  0.51916  Biso   1.000  N
  N122     1.0000 0.69863  0.75835  0.56110  Biso   1.000  N
  C766     1.0000 0.74984  0.83075  0.42787  Biso   1.000  C
  C767     1.0000 0.76979  0.85029  0.38190  Biso   1.000  C
  H856     1.0000 0.77440  0.87210  0.39710  Biso   1.000  H
  C768     1.0000 0.78292  0.83840  0.31450  Biso   1.000  C
  H857     1.0000 0.79660  0.85210  0.28440  Biso   1.000  H
  C769     1.0000 0.77657  0.80689  0.28990  Biso   1.000  C
  H858     1.0000 0.78490  0.79910  0.24250  Biso   1.000  H
  C770     1.0000 0.75766  0.78685  0.33660  Biso   1.000  C
  H859     1.0000 0.75360  0.76500  0.32110  Biso   1.000  H
  C771     1.0000 0.74443  0.79811  0.40594  Biso   1.000  C
  C772     1.0000 0.72679  0.77440  0.45339  Biso   1.000  C
  C773     1.0000 0.68406  0.76991  0.62173  Biso   1.000  C
  C774     1.0000 0.66687  0.74763  0.67667  Biso   1.000  C
  H860     1.0000 0.66940  0.72480  0.65900  Biso   1.000  H
  H861     1.0000 0.67730  0.74950  0.72760  Biso   1.000  H
  C775     1.0000 0.63068  0.75533  0.68450  Biso   1.000  C
  H862     1.0000 0.62120  0.74140  0.72520  Biso   1.000  H
  H863     1.0000 0.62810  0.77840  0.70020  Biso   1.000  H
  C776     1.0000 0.61186  0.74962  0.60960  Biso   1.000  C
  H864     1.0000 0.62070  0.76430  0.56960  Biso   1.000  H
  H865     1.0000 0.61540  0.72680  0.59260  Biso   1.000  H
  C777     1.0000 0.57496  0.75571  0.61760  Biso   1.000  C
  H866     1.0000 0.56600  0.74120  0.65790  Biso   1.000  H
  H867     1.0000 0.57120  0.77860  0.63360  Biso   1.000  H
  C778     1.0000 0.55681  0.74921  0.54130  Biso   1.000  C
  H868     1.0000 0.56290  0.72760  0.52170  Biso   1.000  H
  H869     1.0000 0.53320  0.75000  0.55000  Biso   1.000  H
  H870     1.0000 0.56290  0.76600  0.50370  Biso   1.000  H
  Mn47     1.0000 0.71215  0.71017  0.50493  Biso   1.000  Mn
  N123     1.0000 0.70645  0.67616  0.58134  Biso   1.000  N
  N124     1.0000 0.73368  0.67170  0.63063  Biso   1.000  N
  N125     1.0000 0.73841  0.67618  0.42125  Biso   1.000  N
  O139     1.0000 0.67091  0.70153  0.46571  Biso   1.000  O
  O140     1.0000 0.68302  0.63506  0.65032  Biso   1.000  O
  O141     1.0000 0.75383  0.71312  0.55685  Biso   1.000  O
  C779     1.0000 0.64992  0.67774  0.48181  Biso   1.000  C
  C780     1.0000 0.62189  0.67513  0.43550  Biso   1.000  C
  H871     1.0000 0.61850  0.69030  0.39510  Biso   1.000  H
  C781     1.0000 0.59918  0.65074  0.44800  Biso   1.000  C
  H872     1.0000 0.58040  0.64940  0.41610  Biso   1.000  H
  C782     1.0000 0.60331  0.62843  0.50580  Biso   1.000  C
  H873     1.0000 0.58780  0.61140  0.51330  Biso   1.000  H
  C783     1.0000 0.63014  0.63095  0.55279  Biso   1.000  C
  H874     1.0000 0.63270  0.61580  0.59350  Biso   1.000  H
  C784     1.0000 0.65384  0.65533  0.54217  Biso   1.000  C
  C785     1.0000 0.68229  0.65548  0.59422  Biso   1.000  C
  C786     1.0000 0.75703  0.69181  0.61178  Biso   1.000  C
  C787     1.0000 0.78968  0.68984  0.65120  Biso   1.000  C
  H875     1.0000 0.79660  0.71200  0.66710  Biso   1.000  H
  H876     1.0000 0.78770  0.67610  0.69770  Biso   1.000  H
  C788     1.0000 0.81549  0.67504  0.59720  Biso   1.000  C
  H877     1.0000 0.83730  0.67760  0.62090  Biso   1.000  H
  H878     1.0000 0.81550  0.68750  0.54860  Biso   1.000  H
  C789     1.0000 0.80989  0.63929  0.57970  Biso   1.000  C
  H879     1.0000 0.80950  0.62700  0.62850  Biso   1.000  H
  H880     1.0000 0.78810  0.63680  0.55550  Biso   1.000  H
  C790     1.0000 0.83545  0.62416  0.52740  Biso   1.000  C
  H881     1.0000 0.83620  0.63660  0.47880  Biso   1.000  H
  H882     1.0000 0.85720  0.62600  0.55200  Biso   1.000  H
  C791     1.0000 0.82848  0.58800  0.50970  Biso   1.000  C
  H883     1.0000 0.80600  0.58570  0.49100  Biso   1.000  H
  H884     1.0000 0.84380  0.58030  0.47050  Biso   1.000  H
  H885     1.0000 0.83120  0.57500  0.55640  Biso   1.000  H
  C792     1.0000 0.72866  0.64615  0.40450  Biso   1.000  C
  H886     1.0000 0.70750  0.63940  0.42060  Biso   1.000  H
  C793     1.0000 0.74807  0.62425  0.36460  Biso   1.000  C
  H887     1.0000 0.74000  0.60300  0.35330  Biso   1.000  H
  C794     1.0000 0.77891  0.63310  0.34130  Biso   1.000  C
  C795     1.0000 0.78863  0.66400  0.35760  Biso   1.000  C
  H888     1.0000 0.80960  0.67130  0.34150  Biso   1.000  H
  C796     1.0000 0.76839  0.68483  0.39730  Biso   1.000  C
  H889     1.0000 0.77600  0.70630  0.40830  Biso   1.000  H
  C797     1.0000 0.80082  0.61023  0.29600  Biso   1.000  C
  H890     1.0000 0.79470  0.58730  0.30720  Biso   1.000  H
  H891     1.0000 0.82380  0.61350  0.31190  Biso   1.000  H
  Mn48     1.0000 0.77999  0.86288  0.77584  Biso   1.000  Mn
  O142     1.0000 0.75805  0.89867  0.81595  Biso   1.000  O
  O143     1.0000 0.70254  0.86813  0.62221  Biso   1.000  O
  O144     1.0000 0.79756  0.82537  0.72280  Biso   1.000  O
  N126     1.0000 0.74561  0.85629  0.69996  Biso   1.000  N
  N127     1.0000 0.75031  0.82849  0.65292  Biso   1.000  N
  N128     1.0000 0.85500  0.55875  0.05800  Biso   1.000  N
  C798     1.0000 0.73348  0.91570  0.78573  Biso   1.000  C
  C799     1.0000 0.72580  0.94556  0.82121  Biso   1.000  C
  H892     1.0000 0.73800  0.95240  0.86470  Biso   1.000  H
  C800     1.0000 0.70089  0.96499  0.79390  Biso   1.000  C
  H893     1.0000 0.69620  0.98510  0.81880  Biso   1.000  H
  C801     1.0000 0.68261  0.95575  0.73057  Biso   1.000  C
  H894     1.0000 0.66550  0.96930  0.71180  Biso   1.000  H
  C802     1.0000 0.68988  0.92651  0.69566  Biso   1.000  C
  H895     1.0000 0.67740  0.92000  0.65240  Biso   1.000  H
  C803     1.0000 0.71493  0.90592  0.72120  Biso   1.000  C
  C804     1.0000 0.72120  0.87541  0.67981  Biso   1.000  C
  C805     1.0000 0.77808  0.81475  0.66902  Biso   1.000  C
  C806     1.0000 0.78998  0.78628  0.62220  Biso   1.000  C
  H896     1.0000 0.77180  0.77790  0.59030  Biso   1.000  H
  H897     1.0000 0.79710  0.76850  0.65690  Biso   1.000  H
  C807     1.0000 0.81898  0.79635  0.56960  Biso   1.000  C
  H898     1.0000 0.81120  0.81280  0.53230  Biso   1.000  H
  H899     1.0000 0.83610  0.80680  0.60140  Biso   1.000  H
  C808     1.0000 0.83390  0.76803  0.52650  Biso   1.000  C
  H900     1.0000 0.85790  0.77010  0.53240  Biso   1.000  H
  H901     1.0000 0.82740  0.74790  0.55430  Biso   1.000  H
  C809     1.0000 0.82900  0.76300  0.46170  Biso   1.000  C
  H902     1.0000 0.83230  0.78390  0.43410  Biso   1.000  H
  H903     1.0000 0.80560  0.75740  0.45640  Biso   1.000  H
  C810     1.0000 0.84880  0.73652  0.41880  Biso   1.000  C
  H904     1.0000 0.86860  0.73130  0.44780  Biso   1.000  H
  H905     1.0000 0.85480  0.74460  0.36790  Biso   1.000  H
  H906     1.0000 0.83540  0.71680  0.41340  Biso   1.000  H
  C811     1.0000 0.85991  0.55683  0.13319  Biso   1.000  C
  H907     1.0000 0.87640  0.54240  0.15130  Biso   1.000  H
  C812     1.0000 0.84236  0.57471  0.18640  Biso   1.000  C
  H908     1.0000 0.84690  0.57260  0.23960  Biso   1.000  H
  C813     1.0000 0.81821  0.59563  0.16110  Biso   1.000  C
  C814     1.0000 0.81259  0.59718  0.08330  Biso   1.000  C
  H909     1.0000 0.79580  0.61090  0.06350  Biso   1.000  H
  C815     1.0000 0.83150  0.57864  0.03440  Biso   1.000  C
  H910     1.0000 0.82750  0.58020  0.98090  Biso   1.000  H
  C816     1.0000 0.79781  0.61620  0.21550  Biso   1.000  C
  H911     1.0000 0.77450  0.61320  0.20140  Biso   1.000  H
  H912     1.0000 0.80330  0.63940  0.20620  Biso   1.000  H
