data_image0
_cell_length_a       13.658
_cell_length_b       48.516
_cell_length_c       20.497
_cell_angle_alpha    90
_cell_angle_beta     99.784
_cell_angle_gamma    90

_symmetry_space_group_name_H-M    "P 1"
_symmetry_int_tables_number       1

loop_
  _symmetry_equiv_pos_as_xyz
  'x, y, z'

loop_
  _atom_site_label
  _atom_site_occupancy
  _atom_site_fract_x
  _atom_site_fract_y
  _atom_site_fract_z
  _atom_site_thermal_displace_type
  _atom_site_B_iso_or_equiv
  _atom_site_type_symbol
  Co1      1.0000 0.17840  0.31037  0.39299  Biso   1.000  Co
  Co2      1.0000 0.78486  0.60968  0.31930  Biso   1.000  Co
  O1       1.0000 0.94080  0.62623  0.30480  Biso   1.000  O
  O2       1.0000 0.98370  0.34792  0.31540  Biso   1.000  O
  O3       1.0000 0.85070  0.63961  0.37730  Biso   1.000  O
  O4       1.0000 0.46910  0.78617  0.31440  Biso   1.000  O
  O5       1.0000 0.96120  0.56258  0.30720  Biso   1.000  O
  O6       1.0000 0.73880  0.61400  0.22480  Biso   1.000  O
  O7       1.0000 0.23980  0.70680  0.48180  Biso   1.000  O
  O8       1.0000 0.82790  0.57368  0.35370  Biso   1.000  O
  O9       1.0000 0.08830  0.34163  0.40950  Biso   1.000  O
  O10      1.0000 0.58360  0.77960  0.40430  Biso   1.000  O
  O11      1.0000 0.90080  0.45492  0.47060  Biso   1.000  O
  C1       1.0000 0.01160  0.65900  0.38520  Biso   1.000  C
  O12      1.0000 0.59690  0.63140  0.92320  Biso   1.000  O
  C2       1.0000 0.73770  0.61410  0.11190  Biso   1.000  C
  C3       1.0000 0.89970  0.53110  0.37640  Biso   1.000  C
  C4       1.0000 0.42950  0.75740  0.39810  Biso   1.000  C
  C5       1.0000 0.02070  0.35470  0.37150  Biso   1.000  C
  C6       1.0000 0.09260  0.66520  0.35420  Biso   1.000  C
  H1       1.0000 0.09450  0.65800  0.31240  Biso   1.000  H
  C7       1.0000 0.98760  0.38160  0.39890  Biso   1.000  C
  C8       1.0000 0.16360  0.69240  0.44550  Biso   1.000  C
  C9       1.0000 0.33280  0.75540  0.37060  Biso   1.000  C
  H2       1.0000 0.31010  0.76550  0.33260  Biso   1.000  H
  C10      1.0000 0.26550  0.73900  0.39630  Biso   1.000  C
  H3       1.0000 0.19870  0.73870  0.37710  Biso   1.000  H
  C11      1.0000 0.90270  0.47950  0.43620  Biso   1.000  C
  C12      1.0000 0.16800  0.68130  0.38310  Biso   1.000  C
  H4       1.0000 0.22180  0.68490  0.36200  Biso   1.000  H
  C13      1.0000 0.91560  0.39680  0.35930  Biso   1.000  C
  H5       1.0000 0.88590  0.39030  0.31790  Biso   1.000  H
  C14      1.0000 0.01490  0.67070  0.44850  Biso   1.000  C
  H6       1.0000 0.96340  0.66680  0.47150  Biso   1.000  H
  C15      1.0000 0.93120  0.43040  0.44360  Biso   1.000  C
  C16      1.0000 0.89930  0.55790  0.34230  Biso   1.000  C
  C17      1.0000 0.50030  0.77570  0.37030  Biso   1.000  C
  C18      1.0000 0.72990  0.65700  0.76500  Biso   1.000  C
  C19      1.0000 0.46430  0.74180  0.45530  Biso   1.000  C
  H7       1.0000 0.52980  0.74320  0.47680  Biso   1.000  H
  C20      1.0000 0.08790  0.68690  0.47670  Biso   1.000  C
  H8       1.0000 0.08650  0.69440  0.51830  Biso   1.000  H
  C21      1.0000 0.60020  0.63130  0.03430  Biso   1.000  C
  H9       1.0000 0.53760  0.63950  0.02700  Biso   1.000  H
  C22      1.0000 0.30010  0.72330  0.45050  Biso   1.000  C
  C23      1.0000 0.78400  0.60980  0.05920  Biso   1.000  C
  H10      1.0000 0.84780  0.60230  0.06630  Biso   1.000  H
  C24      1.0000 0.76640  0.66860  0.82830  Biso   1.000  C
  H11      1.0000 0.81840  0.68120  0.83480  Biso   1.000  H
  C25      1.0000 0.96520  0.48360  0.39250  Biso   1.000  C
  H12      1.0000 0.00920  0.47000  0.38360  Biso   1.000  H
  C26      1.0000 0.73860  0.61610  0.99490  Biso   1.000  C
  H13      1.0000 0.77340  0.61330  0.96020  Biso   1.000  H
  C27      1.0000 0.64580  0.63970  0.87060  Biso   1.000  C
  C28      1.0000 0.84250  0.49940  0.45340  Biso   1.000  C
  H14      1.0000 0.80430  0.49610  0.48610  Biso   1.000  H
  C29      1.0000 0.02840  0.39090  0.46130  Biso   1.000  C
  H15      1.0000 0.07560  0.38040  0.48850  Biso   1.000  H
  C30      1.0000 0.88920  0.42160  0.38270  Biso   1.000  C
  H16      1.0000 0.84200  0.43250  0.35660  Biso   1.000  H
  C31      1.0000 0.71800  0.65970  0.88120  Biso   1.000  C
  H17      1.0000 0.73550  0.66750  0.92300  Biso   1.000  H
  C32      1.0000 0.64750  0.62620  0.98190  Biso   1.000  C
  C33      1.0000 0.96040  0.50950  0.36120  Biso   1.000  C
  H18      1.0000 0.99940  0.51250  0.32890  Biso   1.000  H
  C34      1.0000 0.83820  0.52570  0.42060  Biso   1.000  C
  H19      1.0000 0.79340  0.53910  0.42960  Biso   1.000  H
  C35      1.0000 0.99950  0.41520  0.48220  Biso   1.000  C
  H20      1.0000 0.02720  0.42160  0.52400  Biso   1.000  H
  C36      1.0000 0.65730  0.63770  0.75720  Biso   1.000  C
  H21      1.0000 0.63430  0.63100  0.71480  Biso   1.000  H
  C37      1.0000 0.39710  0.72420  0.47880  Biso   1.000  C
  H22      1.0000 0.41960  0.71280  0.51470  Biso   1.000  H
  C38      1.0000 0.64370  0.62480  0.09730  Biso   1.000  C
  H23      1.0000 0.60820  0.62760  0.13160  Biso   1.000  H
  C39      1.0000 0.61520  0.62740  0.80970  Biso   1.000  C
  H24      1.0000 0.56930  0.61300  0.80400  Biso   1.000  H
  O13      1.0000 0.86760  0.59645  0.18610  Biso   1.000  O
  C40      1.0000 0.78720  0.60740  0.17730  Biso   1.000  C
  C41      1.0000 0.93410  0.64100  0.35240  Biso   1.000  C
  O14      1.0000 0.84150  0.68417  0.71410  Biso   1.000  O
  C42      1.0000 0.76760  0.66800  0.70860  Biso   1.000  C
  O15      1.0000 0.72940  0.66170  0.65110  Biso   1.000  O
  Co3      1.0000 0.67840  0.81037  0.39299  Biso   1.000  Co
  Co4      1.0000 0.28486  0.10968  0.31930  Biso   1.000  Co
  O16      1.0000 0.44080  0.12623  0.30480  Biso   1.000  O
  O17      1.0000 0.48370  0.84792  0.31540  Biso   1.000  O
  O18      1.0000 0.35070  0.13961  0.37730  Biso   1.000  O
  O19      1.0000 0.96910  0.28617  0.31440  Biso   1.000  O
  O20      1.0000 0.46120  0.06258  0.30720  Biso   1.000  O
  O21      1.0000 0.23880  0.11400  0.22480  Biso   1.000  O
  O22      1.0000 0.73980  0.20680  0.48180  Biso   1.000  O
  O23      1.0000 0.32790  0.07368  0.35370  Biso   1.000  O
  O24      1.0000 0.58830  0.84163  0.40950  Biso   1.000  O
  O25      1.0000 0.08360  0.27960  0.40430  Biso   1.000  O
  O26      1.0000 0.40080  0.95492  0.47060  Biso   1.000  O
  C43      1.0000 0.51160  0.15900  0.38520  Biso   1.000  C
  O27      1.0000 0.09690  0.13140  0.92320  Biso   1.000  O
  C44      1.0000 0.23770  0.11410  0.11190  Biso   1.000  C
  C45      1.0000 0.39970  0.03110  0.37640  Biso   1.000  C
  C46      1.0000 0.92950  0.25740  0.39810  Biso   1.000  C
  C47      1.0000 0.52070  0.85470  0.37150  Biso   1.000  C
  C48      1.0000 0.59260  0.16520  0.35420  Biso   1.000  C
  H25      1.0000 0.59450  0.15800  0.31240  Biso   1.000  H
  C49      1.0000 0.48760  0.88160  0.39890  Biso   1.000  C
  C50      1.0000 0.66360  0.19240  0.44550  Biso   1.000  C
  C51      1.0000 0.83280  0.25540  0.37060  Biso   1.000  C
  H26      1.0000 0.81010  0.26550  0.33260  Biso   1.000  H
  C52      1.0000 0.76550  0.23900  0.39630  Biso   1.000  C
  H27      1.0000 0.69870  0.23870  0.37710  Biso   1.000  H
  C53      1.0000 0.40270  0.97950  0.43620  Biso   1.000  C
  C54      1.0000 0.66800  0.18130  0.38310  Biso   1.000  C
  H28      1.0000 0.72180  0.18490  0.36200  Biso   1.000  H
  C55      1.0000 0.41560  0.89680  0.35930  Biso   1.000  C
  H29      1.0000 0.38590  0.89030  0.31790  Biso   1.000  H
  C56      1.0000 0.51490  0.17070  0.44850  Biso   1.000  C
  H30      1.0000 0.46340  0.16680  0.47150  Biso   1.000  H
  C57      1.0000 0.43120  0.93040  0.44360  Biso   1.000  C
  C58      1.0000 0.39930  0.05790  0.34230  Biso   1.000  C
  C59      1.0000 0.00030  0.27570  0.37030  Biso   1.000  C
  C60      1.0000 0.22990  0.15700  0.76500  Biso   1.000  C
  C61      1.0000 0.96430  0.24180  0.45530  Biso   1.000  C
  H31      1.0000 0.02980  0.24320  0.47680  Biso   1.000  H
  C62      1.0000 0.58790  0.18690  0.47670  Biso   1.000  C
  H32      1.0000 0.58650  0.19440  0.51830  Biso   1.000  H
  C63      1.0000 0.10020  0.13130  0.03430  Biso   1.000  C
  H33      1.0000 0.03760  0.13950  0.02700  Biso   1.000  H
  C64      1.0000 0.80010  0.22330  0.45050  Biso   1.000  C
  C65      1.0000 0.28400  0.10980  0.05920  Biso   1.000  C
  H34      1.0000 0.34780  0.10230  0.06630  Biso   1.000  H
  C66      1.0000 0.26640  0.16860  0.82830  Biso   1.000  C
  H35      1.0000 0.31840  0.18120  0.83480  Biso   1.000  H
  C67      1.0000 0.46520  0.98360  0.39250  Biso   1.000  C
  H36      1.0000 0.50920  0.97000  0.38360  Biso   1.000  H
  C68      1.0000 0.23860  0.11610  0.99490  Biso   1.000  C
  H37      1.0000 0.27340  0.11330  0.96020  Biso   1.000  H
  C69      1.0000 0.14580  0.13970  0.87060  Biso   1.000  C
  C70      1.0000 0.34250  0.99940  0.45340  Biso   1.000  C
  H38      1.0000 0.30430  0.99610  0.48610  Biso   1.000  H
  C71      1.0000 0.52840  0.89090  0.46130  Biso   1.000  C
  H39      1.0000 0.57560  0.88040  0.48850  Biso   1.000  H
  C72      1.0000 0.38920  0.92160  0.38270  Biso   1.000  C
  H40      1.0000 0.34200  0.93250  0.35660  Biso   1.000  H
  C73      1.0000 0.21800  0.15970  0.88120  Biso   1.000  C
  H41      1.0000 0.23550  0.16750  0.92300  Biso   1.000  H
  C74      1.0000 0.14750  0.12620  0.98190  Biso   1.000  C
  C75      1.0000 0.46040  0.00950  0.36120  Biso   1.000  C
  H42      1.0000 0.49940  0.01250  0.32890  Biso   1.000  H
  C76      1.0000 0.33820  0.02570  0.42060  Biso   1.000  C
  H43      1.0000 0.29340  0.03910  0.42960  Biso   1.000  H
  C77      1.0000 0.49950  0.91520  0.48220  Biso   1.000  C
  H44      1.0000 0.52720  0.92160  0.52400  Biso   1.000  H
  C78      1.0000 0.15730  0.13770  0.75720  Biso   1.000  C
  H45      1.0000 0.13430  0.13100  0.71480  Biso   1.000  H
  C79      1.0000 0.89710  0.22420  0.47880  Biso   1.000  C
  H46      1.0000 0.91960  0.21280  0.51470  Biso   1.000  H
  C80      1.0000 0.14370  0.12480  0.09730  Biso   1.000  C
  H47      1.0000 0.10820  0.12760  0.13160  Biso   1.000  H
  C81      1.0000 0.11520  0.12740  0.80970  Biso   1.000  C
  H48      1.0000 0.06930  0.11300  0.80400  Biso   1.000  H
  O28      1.0000 0.36760  0.09645  0.18610  Biso   1.000  O
  C82      1.0000 0.28720  0.10740  0.17730  Biso   1.000  C
  C83      1.0000 0.43410  0.14100  0.35240  Biso   1.000  C
  O29      1.0000 0.34150  0.18417  0.71410  Biso   1.000  O
  C84      1.0000 0.26760  0.16800  0.70860  Biso   1.000  C
  O30      1.0000 0.22940  0.16170  0.65110  Biso   1.000  O
  Co5      1.0000 0.82160  0.31037  0.10701  Biso   1.000  Co
  Co6      1.0000 0.21514  0.60968  0.18070  Biso   1.000  Co
  O31      1.0000 0.05920  0.62623  0.19520  Biso   1.000  O
  O32      1.0000 0.01630  0.34792  0.18460  Biso   1.000  O
  O33      1.0000 0.14930  0.63961  0.12270  Biso   1.000  O
  O34      1.0000 0.53090  0.78617  0.18560  Biso   1.000  O
  O35      1.0000 0.03880  0.56258  0.19280  Biso   1.000  O
  O36      1.0000 0.26120  0.61400  0.27520  Biso   1.000  O
  O37      1.0000 0.76020  0.70680  0.01820  Biso   1.000  O
  O38      1.0000 0.17210  0.57368  0.14630  Biso   1.000  O
  O39      1.0000 0.91170  0.34163  0.09050  Biso   1.000  O
  O40      1.0000 0.41640  0.77960  0.09570  Biso   1.000  O
  O41      1.0000 0.09920  0.45492  0.02940  Biso   1.000  O
  C85      1.0000 0.98840  0.65900  0.11480  Biso   1.000  C
  O42      1.0000 0.40310  0.63140  0.57680  Biso   1.000  O
  C86      1.0000 0.26230  0.61410  0.38810  Biso   1.000  C
  C87      1.0000 0.10030  0.53110  0.12360  Biso   1.000  C
  C88      1.0000 0.57050  0.75740  0.10190  Biso   1.000  C
  C89      1.0000 0.97930  0.35470  0.12850  Biso   1.000  C
  C90      1.0000 0.90740  0.66520  0.14580  Biso   1.000  C
  H49      1.0000 0.90550  0.65800  0.18760  Biso   1.000  H
  C91      1.0000 0.01240  0.38160  0.10110  Biso   1.000  C
  C92      1.0000 0.83640  0.69240  0.05450  Biso   1.000  C
  C93      1.0000 0.66720  0.75540  0.12940  Biso   1.000  C
  H50      1.0000 0.68990  0.76550  0.16740  Biso   1.000  H
  C94      1.0000 0.73450  0.73900  0.10370  Biso   1.000  C
  H51      1.0000 0.80130  0.73870  0.12290  Biso   1.000  H
  C95      1.0000 0.09730  0.47950  0.06380  Biso   1.000  C
  C96      1.0000 0.83200  0.68130  0.11690  Biso   1.000  C
  H52      1.0000 0.77820  0.68490  0.13800  Biso   1.000  H
  C97      1.0000 0.08440  0.39680  0.14070  Biso   1.000  C
  H53      1.0000 0.11410  0.39030  0.18210  Biso   1.000  H
  C98      1.0000 0.98510  0.67070  0.05150  Biso   1.000  C
  H54      1.0000 0.03660  0.66680  0.02850  Biso   1.000  H
  C99      1.0000 0.06880  0.43040  0.05640  Biso   1.000  C
  C100     1.0000 0.10070  0.55790  0.15770  Biso   1.000  C
  C101     1.0000 0.49970  0.77570  0.12970  Biso   1.000  C
  C102     1.0000 0.27010  0.65700  0.73500  Biso   1.000  C
  C103     1.0000 0.53570  0.74180  0.04470  Biso   1.000  C
  H55      1.0000 0.47020  0.74320  0.02320  Biso   1.000  H
  C104     1.0000 0.91210  0.68690  0.02330  Biso   1.000  C
  H56      1.0000 0.91350  0.69440  0.98170  Biso   1.000  H
  C105     1.0000 0.39980  0.63130  0.46570  Biso   1.000  C
  H57      1.0000 0.46240  0.63950  0.47300  Biso   1.000  H
  C106     1.0000 0.69990  0.72330  0.04950  Biso   1.000  C
  C107     1.0000 0.21600  0.60980  0.44080  Biso   1.000  C
  H58      1.0000 0.15220  0.60230  0.43370  Biso   1.000  H
  C108     1.0000 0.23360  0.66860  0.67170  Biso   1.000  C
  H59      1.0000 0.18160  0.68120  0.66520  Biso   1.000  H
  C109     1.0000 0.03480  0.48360  0.10750  Biso   1.000  C
  H60      1.0000 0.99080  0.47000  0.11640  Biso   1.000  H
  C110     1.0000 0.26140  0.61610  0.50510  Biso   1.000  C
  H61      1.0000 0.22660  0.61330  0.53980  Biso   1.000  H
  C111     1.0000 0.35420  0.63970  0.62940  Biso   1.000  C
  C112     1.0000 0.15750  0.49940  0.04660  Biso   1.000  C
  H62      1.0000 0.19570  0.49610  0.01390  Biso   1.000  H
  C113     1.0000 0.97160  0.39090  0.03870  Biso   1.000  C
  H63      1.0000 0.92440  0.38040  0.01150  Biso   1.000  H
  C114     1.0000 0.11080  0.42160  0.11730  Biso   1.000  C
  H64      1.0000 0.15800  0.43250  0.14340  Biso   1.000  H
  C115     1.0000 0.28200  0.65970  0.61880  Biso   1.000  C
  H65      1.0000 0.26450  0.66750  0.57700  Biso   1.000  H
  C116     1.0000 0.35250  0.62620  0.51810  Biso   1.000  C
  C117     1.0000 0.03960  0.50950  0.13880  Biso   1.000  C
  H66      1.0000 0.00060  0.51250  0.17110  Biso   1.000  H
  C118     1.0000 0.16180  0.52570  0.07940  Biso   1.000  C
  H67      1.0000 0.20660  0.53910  0.07040  Biso   1.000  H
  C119     1.0000 0.00050  0.41520  0.01780  Biso   1.000  C
  H68      1.0000 0.97280  0.42160  0.97600  Biso   1.000  H
  C120     1.0000 0.34270  0.63770  0.74280  Biso   1.000  C
  H69      1.0000 0.36570  0.63100  0.78520  Biso   1.000  H
  C121     1.0000 0.60290  0.72420  0.02120  Biso   1.000  C
  H70      1.0000 0.58040  0.71280  0.98530  Biso   1.000  H
  C122     1.0000 0.35630  0.62480  0.40270  Biso   1.000  C
  H71      1.0000 0.39180  0.62760  0.36840  Biso   1.000  H
  C123     1.0000 0.38480  0.62740  0.69030  Biso   1.000  C
  H72      1.0000 0.43070  0.61300  0.69600  Biso   1.000  H
  O43      1.0000 0.13240  0.59645  0.31390  Biso   1.000  O
  C124     1.0000 0.21280  0.60740  0.32270  Biso   1.000  C
  C125     1.0000 0.06590  0.64100  0.14760  Biso   1.000  C
  O44      1.0000 0.15850  0.68417  0.78590  Biso   1.000  O
  C126     1.0000 0.23240  0.66800  0.79140  Biso   1.000  C
  O45      1.0000 0.27060  0.66170  0.84890  Biso   1.000  O
  Co7      1.0000 0.32160  0.81037  0.10701  Biso   1.000  Co
  Co8      1.0000 0.71514  0.10968  0.18070  Biso   1.000  Co
  O46      1.0000 0.55920  0.12623  0.19520  Biso   1.000  O
  O47      1.0000 0.51630  0.84792  0.18460  Biso   1.000  O
  O48      1.0000 0.64930  0.13961  0.12270  Biso   1.000  O
  O49      1.0000 0.03090  0.28617  0.18560  Biso   1.000  O
  O50      1.0000 0.53880  0.06258  0.19280  Biso   1.000  O
  O51      1.0000 0.76120  0.11400  0.27520  Biso   1.000  O
  O52      1.0000 0.26020  0.20680  0.01820  Biso   1.000  O
  O53      1.0000 0.67210  0.07368  0.14630  Biso   1.000  O
  O54      1.0000 0.41170  0.84163  0.09050  Biso   1.000  O
  O55      1.0000 0.91640  0.27960  0.09570  Biso   1.000  O
  O56      1.0000 0.59920  0.95492  0.02940  Biso   1.000  O
  C127     1.0000 0.48840  0.15900  0.11480  Biso   1.000  C
  O57      1.0000 0.90310  0.13140  0.57680  Biso   1.000  O
  C128     1.0000 0.76230  0.11410  0.38810  Biso   1.000  C
  C129     1.0000 0.60030  0.03110  0.12360  Biso   1.000  C
  C130     1.0000 0.07050  0.25740  0.10190  Biso   1.000  C
  C131     1.0000 0.47930  0.85470  0.12850  Biso   1.000  C
  C132     1.0000 0.40740  0.16520  0.14580  Biso   1.000  C
  H73      1.0000 0.40550  0.15800  0.18760  Biso   1.000  H
  C133     1.0000 0.51240  0.88160  0.10110  Biso   1.000  C
  C134     1.0000 0.33640  0.19240  0.05450  Biso   1.000  C
  C135     1.0000 0.16720  0.25540  0.12940  Biso   1.000  C
  H74      1.0000 0.18990  0.26550  0.16740  Biso   1.000  H
  C136     1.0000 0.23450  0.23900  0.10370  Biso   1.000  C
  H75      1.0000 0.30130  0.23870  0.12290  Biso   1.000  H
  C137     1.0000 0.59730  0.97950  0.06380  Biso   1.000  C
  C138     1.0000 0.33200  0.18130  0.11690  Biso   1.000  C
  H76      1.0000 0.27820  0.18490  0.13800  Biso   1.000  H
  C139     1.0000 0.58440  0.89680  0.14070  Biso   1.000  C
  H77      1.0000 0.61410  0.89030  0.18210  Biso   1.000  H
  C140     1.0000 0.48510  0.17070  0.05150  Biso   1.000  C
  H78      1.0000 0.53660  0.16680  0.02850  Biso   1.000  H
  C141     1.0000 0.56880  0.93040  0.05640  Biso   1.000  C
  C142     1.0000 0.60070  0.05790  0.15770  Biso   1.000  C
  C143     1.0000 0.99970  0.27570  0.12970  Biso   1.000  C
  C144     1.0000 0.77010  0.15700  0.73500  Biso   1.000  C
  C145     1.0000 0.03570  0.24180  0.04470  Biso   1.000  C
  H79      1.0000 0.97020  0.24320  0.02320  Biso   1.000  H
  C146     1.0000 0.41210  0.18690  0.02330  Biso   1.000  C
  H80      1.0000 0.41350  0.19440  0.98170  Biso   1.000  H
  C147     1.0000 0.89980  0.13130  0.46570  Biso   1.000  C
  H81      1.0000 0.96240  0.13950  0.47300  Biso   1.000  H
  C148     1.0000 0.19990  0.22330  0.04950  Biso   1.000  C
  C149     1.0000 0.71600  0.10980  0.44080  Biso   1.000  C
  H82      1.0000 0.65220  0.10230  0.43370  Biso   1.000  H
  C150     1.0000 0.73360  0.16860  0.67170  Biso   1.000  C
  H83      1.0000 0.68160  0.18120  0.66520  Biso   1.000  H
  C151     1.0000 0.53480  0.98360  0.10750  Biso   1.000  C
  H84      1.0000 0.49080  0.97000  0.11640  Biso   1.000  H
  C152     1.0000 0.76140  0.11610  0.50510  Biso   1.000  C
  H85      1.0000 0.72660  0.11330  0.53980  Biso   1.000  H
  C153     1.0000 0.85420  0.13970  0.62940  Biso   1.000  C
  C154     1.0000 0.65750  0.99940  0.04660  Biso   1.000  C
  H86      1.0000 0.69570  0.99610  0.01390  Biso   1.000  H
  C155     1.0000 0.47160  0.89090  0.03870  Biso   1.000  C
  H87      1.0000 0.42440  0.88040  0.01150  Biso   1.000  H
  C156     1.0000 0.61080  0.92160  0.11730  Biso   1.000  C
  H88      1.0000 0.65800  0.93250  0.14340  Biso   1.000  H
  C157     1.0000 0.78200  0.15970  0.61880  Biso   1.000  C
  H89      1.0000 0.76450  0.16750  0.57700  Biso   1.000  H
  C158     1.0000 0.85250  0.12620  0.51810  Biso   1.000  C
  C159     1.0000 0.53960  0.00950  0.13880  Biso   1.000  C
  H90      1.0000 0.50060  0.01250  0.17110  Biso   1.000  H
  C160     1.0000 0.66180  0.02570  0.07940  Biso   1.000  C
  H91      1.0000 0.70660  0.03910  0.07040  Biso   1.000  H
  C161     1.0000 0.50050  0.91520  0.01780  Biso   1.000  C
  H92      1.0000 0.47280  0.92160  0.97600  Biso   1.000  H
  C162     1.0000 0.84270  0.13770  0.74280  Biso   1.000  C
  H93      1.0000 0.86570  0.13100  0.78520  Biso   1.000  H
  C163     1.0000 0.10290  0.22420  0.02120  Biso   1.000  C
  H94      1.0000 0.08040  0.21280  0.98530  Biso   1.000  H
  C164     1.0000 0.85630  0.12480  0.40270  Biso   1.000  C
  H95      1.0000 0.89180  0.12760  0.36840  Biso   1.000  H
  C165     1.0000 0.88480  0.12740  0.69030  Biso   1.000  C
  H96      1.0000 0.93070  0.11300  0.69600  Biso   1.000  H
  O58      1.0000 0.63240  0.09645  0.31390  Biso   1.000  O
  C166     1.0000 0.71280  0.10740  0.32270  Biso   1.000  C
  C167     1.0000 0.56590  0.14100  0.14760  Biso   1.000  C
  O59      1.0000 0.65850  0.18417  0.78590  Biso   1.000  O
  C168     1.0000 0.73240  0.16800  0.79140  Biso   1.000  C
  O60      1.0000 0.77060  0.16170  0.84890  Biso   1.000  O
  Co9      1.0000 0.82160  0.68963  0.60701  Biso   1.000  Co
  Co10     1.0000 0.21514  0.39032  0.68070  Biso   1.000  Co
  O61      1.0000 0.05920  0.37377  0.69520  Biso   1.000  O
  O62      1.0000 0.01630  0.65208  0.68460  Biso   1.000  O
  O63      1.0000 0.14930  0.36039  0.62270  Biso   1.000  O
  O64      1.0000 0.53090  0.21383  0.68560  Biso   1.000  O
  O65      1.0000 0.03880  0.43742  0.69280  Biso   1.000  O
  O66      1.0000 0.26120  0.38600  0.77520  Biso   1.000  O
  O67      1.0000 0.76020  0.29320  0.51820  Biso   1.000  O
  O68      1.0000 0.17210  0.42632  0.64630  Biso   1.000  O
  O69      1.0000 0.91170  0.65837  0.59050  Biso   1.000  O
  O70      1.0000 0.41640  0.22040  0.59570  Biso   1.000  O
  O71      1.0000 0.09920  0.54508  0.52940  Biso   1.000  O
  C169     1.0000 0.98840  0.34100  0.61480  Biso   1.000  C
  O72      1.0000 0.40310  0.36860  0.07680  Biso   1.000  O
  C170     1.0000 0.26230  0.38590  0.88810  Biso   1.000  C
  C171     1.0000 0.10030  0.46890  0.62360  Biso   1.000  C
  C172     1.0000 0.57050  0.24260  0.60190  Biso   1.000  C
  C173     1.0000 0.97930  0.64530  0.62850  Biso   1.000  C
  C174     1.0000 0.90740  0.33480  0.64580  Biso   1.000  C
  H97      1.0000 0.90550  0.34200  0.68760  Biso   1.000  H
  C175     1.0000 0.01240  0.61840  0.60110  Biso   1.000  C
  C176     1.0000 0.83640  0.30760  0.55450  Biso   1.000  C
  C177     1.0000 0.66720  0.24460  0.62940  Biso   1.000  C
  H98      1.0000 0.68990  0.23450  0.66740  Biso   1.000  H
  C178     1.0000 0.73450  0.26100  0.60370  Biso   1.000  C
  H99      1.0000 0.80130  0.26130  0.62290  Biso   1.000  H
  C179     1.0000 0.09730  0.52050  0.56380  Biso   1.000  C
  C180     1.0000 0.83200  0.31870  0.61690  Biso   1.000  C
  H100     1.0000 0.77820  0.31510  0.63800  Biso   1.000  H
  C181     1.0000 0.08440  0.60320  0.64070  Biso   1.000  C
  H101     1.0000 0.11410  0.60970  0.68210  Biso   1.000  H
  C182     1.0000 0.98510  0.32930  0.55150  Biso   1.000  C
  H102     1.0000 0.03660  0.33320  0.52850  Biso   1.000  H
  C183     1.0000 0.06880  0.56960  0.55640  Biso   1.000  C
  C184     1.0000 0.10070  0.44210  0.65770  Biso   1.000  C
  C185     1.0000 0.49970  0.22430  0.62970  Biso   1.000  C
  C186     1.0000 0.27010  0.34300  0.23500  Biso   1.000  C
  C187     1.0000 0.53570  0.25820  0.54470  Biso   1.000  C
  H103     1.0000 0.47020  0.25680  0.52320  Biso   1.000  H
  C188     1.0000 0.91210  0.31310  0.52330  Biso   1.000  C
  H104     1.0000 0.91350  0.30560  0.48170  Biso   1.000  H
  C189     1.0000 0.39980  0.36870  0.96570  Biso   1.000  C
  H105     1.0000 0.46240  0.36050  0.97300  Biso   1.000  H
  C190     1.0000 0.69990  0.27670  0.54950  Biso   1.000  C
  C191     1.0000 0.21600  0.39020  0.94080  Biso   1.000  C
  H106     1.0000 0.15220  0.39770  0.93370  Biso   1.000  H
  C192     1.0000 0.23360  0.33140  0.17170  Biso   1.000  C
  H107     1.0000 0.18160  0.31880  0.16520  Biso   1.000  H
  C193     1.0000 0.03480  0.51640  0.60750  Biso   1.000  C
  H108     1.0000 0.99080  0.53000  0.61640  Biso   1.000  H
  C194     1.0000 0.26140  0.38390  0.00510  Biso   1.000  C
  H109     1.0000 0.22660  0.38670  0.03980  Biso   1.000  H
  C195     1.0000 0.35420  0.36030  0.12940  Biso   1.000  C
  C196     1.0000 0.15750  0.50060  0.54660  Biso   1.000  C
  H110     1.0000 0.19570  0.50390  0.51390  Biso   1.000  H
  C197     1.0000 0.97160  0.60910  0.53870  Biso   1.000  C
  H111     1.0000 0.92440  0.61960  0.51150  Biso   1.000  H
  C198     1.0000 0.11080  0.57840  0.61730  Biso   1.000  C
  H112     1.0000 0.15800  0.56750  0.64340  Biso   1.000  H
  C199     1.0000 0.28200  0.34030  0.11880  Biso   1.000  C
  H113     1.0000 0.26450  0.33250  0.07700  Biso   1.000  H
  C200     1.0000 0.35250  0.37380  0.01810  Biso   1.000  C
  C201     1.0000 0.03960  0.49050  0.63880  Biso   1.000  C
  H114     1.0000 0.00060  0.48750  0.67110  Biso   1.000  H
  C202     1.0000 0.16180  0.47430  0.57940  Biso   1.000  C
  H115     1.0000 0.20660  0.46090  0.57040  Biso   1.000  H
  C203     1.0000 0.00050  0.58480  0.51780  Biso   1.000  C
  H116     1.0000 0.97280  0.57840  0.47600  Biso   1.000  H
  C204     1.0000 0.34270  0.36230  0.24280  Biso   1.000  C
  H117     1.0000 0.36570  0.36900  0.28520  Biso   1.000  H
  C205     1.0000 0.60290  0.27580  0.52120  Biso   1.000  C
  H118     1.0000 0.58040  0.28720  0.48530  Biso   1.000  H
  C206     1.0000 0.35630  0.37520  0.90270  Biso   1.000  C
  H119     1.0000 0.39180  0.37240  0.86840  Biso   1.000  H
  C207     1.0000 0.38480  0.37260  0.19030  Biso   1.000  C
  H120     1.0000 0.43070  0.38700  0.19600  Biso   1.000  H
  O73      1.0000 0.13240  0.40355  0.81390  Biso   1.000  O
  C208     1.0000 0.21280  0.39260  0.82270  Biso   1.000  C
  C209     1.0000 0.06590  0.35900  0.64760  Biso   1.000  C
  O74      1.0000 0.15850  0.31583  0.28590  Biso   1.000  O
  C210     1.0000 0.23240  0.33200  0.29140  Biso   1.000  C
  O75      1.0000 0.27060  0.33830  0.34890  Biso   1.000  O
  Co11     1.0000 0.32160  0.18963  0.60701  Biso   1.000  Co
  Co12     1.0000 0.71514  0.89032  0.68070  Biso   1.000  Co
  O76      1.0000 0.55920  0.87377  0.69520  Biso   1.000  O
  O77      1.0000 0.51630  0.15208  0.68460  Biso   1.000  O
  O78      1.0000 0.64930  0.86039  0.62270  Biso   1.000  O
  O79      1.0000 0.03090  0.71383  0.68560  Biso   1.000  O
  O80      1.0000 0.53880  0.93742  0.69280  Biso   1.000  O
  O81      1.0000 0.76120  0.88600  0.77520  Biso   1.000  O
  O82      1.0000 0.26020  0.79320  0.51820  Biso   1.000  O
  O83      1.0000 0.67210  0.92632  0.64630  Biso   1.000  O
  O84      1.0000 0.41170  0.15837  0.59050  Biso   1.000  O
  O85      1.0000 0.91640  0.72040  0.59570  Biso   1.000  O
  O86      1.0000 0.59920  0.04508  0.52940  Biso   1.000  O
  C211     1.0000 0.48840  0.84100  0.61480  Biso   1.000  C
  O87      1.0000 0.90310  0.86860  0.07680  Biso   1.000  O
  C212     1.0000 0.76230  0.88590  0.88810  Biso   1.000  C
  C213     1.0000 0.60030  0.96890  0.62360  Biso   1.000  C
  C214     1.0000 0.07050  0.74260  0.60190  Biso   1.000  C
  C215     1.0000 0.47930  0.14530  0.62850  Biso   1.000  C
  C216     1.0000 0.40740  0.83480  0.64580  Biso   1.000  C
  H121     1.0000 0.40550  0.84200  0.68760  Biso   1.000  H
  C217     1.0000 0.51240  0.11840  0.60110  Biso   1.000  C
  C218     1.0000 0.33640  0.80760  0.55450  Biso   1.000  C
  C219     1.0000 0.16720  0.74460  0.62940  Biso   1.000  C
  H122     1.0000 0.18990  0.73450  0.66740  Biso   1.000  H
  C220     1.0000 0.23450  0.76100  0.60370  Biso   1.000  C
  H123     1.0000 0.30130  0.76130  0.62290  Biso   1.000  H
  C221     1.0000 0.59730  0.02050  0.56380  Biso   1.000  C
  C222     1.0000 0.33200  0.81870  0.61690  Biso   1.000  C
  H124     1.0000 0.27820  0.81510  0.63800  Biso   1.000  H
  C223     1.0000 0.58440  0.10320  0.64070  Biso   1.000  C
  H125     1.0000 0.61410  0.10970  0.68210  Biso   1.000  H
  C224     1.0000 0.48510  0.82930  0.55150  Biso   1.000  C
  H126     1.0000 0.53660  0.83320  0.52850  Biso   1.000  H
  C225     1.0000 0.56880  0.06960  0.55640  Biso   1.000  C
  C226     1.0000 0.60070  0.94210  0.65770  Biso   1.000  C
  C227     1.0000 0.99970  0.72430  0.62970  Biso   1.000  C
  C228     1.0000 0.77010  0.84300  0.23500  Biso   1.000  C
  C229     1.0000 0.03570  0.75820  0.54470  Biso   1.000  C
  H127     1.0000 0.97020  0.75680  0.52320  Biso   1.000  H
  C230     1.0000 0.41210  0.81310  0.52330  Biso   1.000  C
  H128     1.0000 0.41350  0.80560  0.48170  Biso   1.000  H
  C231     1.0000 0.89980  0.86870  0.96570  Biso   1.000  C
  H129     1.0000 0.96240  0.86050  0.97300  Biso   1.000  H
  C232     1.0000 0.19990  0.77670  0.54950  Biso   1.000  C
  C233     1.0000 0.71600  0.89020  0.94080  Biso   1.000  C
  H130     1.0000 0.65220  0.89770  0.93370  Biso   1.000  H
  C234     1.0000 0.73360  0.83140  0.17170  Biso   1.000  C
  H131     1.0000 0.68160  0.81880  0.16520  Biso   1.000  H
  C235     1.0000 0.53480  0.01640  0.60750  Biso   1.000  C
  H132     1.0000 0.49080  0.03000  0.61640  Biso   1.000  H
  C236     1.0000 0.76140  0.88390  0.00510  Biso   1.000  C
  H133     1.0000 0.72660  0.88670  0.03980  Biso   1.000  H
  C237     1.0000 0.85420  0.86030  0.12940  Biso   1.000  C
  C238     1.0000 0.65750  0.00060  0.54660  Biso   1.000  C
  H134     1.0000 0.69570  0.00390  0.51390  Biso   1.000  H
  C239     1.0000 0.47160  0.10910  0.53870  Biso   1.000  C
  H135     1.0000 0.42440  0.11960  0.51150  Biso   1.000  H
  C240     1.0000 0.61080  0.07840  0.61730  Biso   1.000  C
  H136     1.0000 0.65800  0.06750  0.64340  Biso   1.000  H
  C241     1.0000 0.78200  0.84030  0.11880  Biso   1.000  C
  H137     1.0000 0.76450  0.83250  0.07700  Biso   1.000  H
  C242     1.0000 0.85250  0.87380  0.01810  Biso   1.000  C
  C243     1.0000 0.53960  0.99050  0.63880  Biso   1.000  C
  H138     1.0000 0.50060  0.98750  0.67110  Biso   1.000  H
  C244     1.0000 0.66180  0.97430  0.57940  Biso   1.000  C
  H139     1.0000 0.70660  0.96090  0.57040  Biso   1.000  H
  C245     1.0000 0.50050  0.08480  0.51780  Biso   1.000  C
  H140     1.0000 0.47280  0.07840  0.47600  Biso   1.000  H
  C246     1.0000 0.84270  0.86230  0.24280  Biso   1.000  C
  H141     1.0000 0.86570  0.86900  0.28520  Biso   1.000  H
  C247     1.0000 0.10290  0.77580  0.52120  Biso   1.000  C
  H142     1.0000 0.08040  0.78720  0.48530  Biso   1.000  H
  C248     1.0000 0.85630  0.87520  0.90270  Biso   1.000  C
  H143     1.0000 0.89180  0.87240  0.86840  Biso   1.000  H
  C249     1.0000 0.88480  0.87260  0.19030  Biso   1.000  C
  H144     1.0000 0.93070  0.88700  0.19600  Biso   1.000  H
  O88      1.0000 0.63240  0.90355  0.81390  Biso   1.000  O
  C250     1.0000 0.71280  0.89260  0.82270  Biso   1.000  C
  C251     1.0000 0.56590  0.85900  0.64760  Biso   1.000  C
  O89      1.0000 0.65850  0.81583  0.28590  Biso   1.000  O
  C252     1.0000 0.73240  0.83200  0.29140  Biso   1.000  C
  O90      1.0000 0.77060  0.83830  0.34890  Biso   1.000  O
  Co13     1.0000 0.17840  0.68963  0.89299  Biso   1.000  Co
  Co14     1.0000 0.78486  0.39032  0.81930  Biso   1.000  Co
  O91      1.0000 0.94080  0.37377  0.80480  Biso   1.000  O
  O92      1.0000 0.98370  0.65208  0.81540  Biso   1.000  O
  O93      1.0000 0.85070  0.36039  0.87730  Biso   1.000  O
  O94      1.0000 0.46910  0.21383  0.81440  Biso   1.000  O
  O95      1.0000 0.96120  0.43742  0.80720  Biso   1.000  O
  O96      1.0000 0.73880  0.38600  0.72480  Biso   1.000  O
  O97      1.0000 0.23980  0.29320  0.98180  Biso   1.000  O
  O98      1.0000 0.82790  0.42632  0.85370  Biso   1.000  O
  O99      1.0000 0.08830  0.65837  0.90950  Biso   1.000  O
  O100     1.0000 0.58360  0.22040  0.90430  Biso   1.000  O
  O101     1.0000 0.90080  0.54508  0.97060  Biso   1.000  O
  C253     1.0000 0.01160  0.34100  0.88520  Biso   1.000  C
  O102     1.0000 0.59690  0.36860  0.42320  Biso   1.000  O
  C254     1.0000 0.73770  0.38590  0.61190  Biso   1.000  C
  C255     1.0000 0.89970  0.46890  0.87640  Biso   1.000  C
  C256     1.0000 0.42950  0.24260  0.89810  Biso   1.000  C
  C257     1.0000 0.02070  0.64530  0.87150  Biso   1.000  C
  C258     1.0000 0.09260  0.33480  0.85420  Biso   1.000  C
  H145     1.0000 0.09450  0.34200  0.81240  Biso   1.000  H
  C259     1.0000 0.98760  0.61840  0.89890  Biso   1.000  C
  C260     1.0000 0.16360  0.30760  0.94550  Biso   1.000  C
  C261     1.0000 0.33280  0.24460  0.87060  Biso   1.000  C
  H146     1.0000 0.31010  0.23450  0.83260  Biso   1.000  H
  C262     1.0000 0.26550  0.26100  0.89630  Biso   1.000  C
  H147     1.0000 0.19870  0.26130  0.87710  Biso   1.000  H
  C263     1.0000 0.90270  0.52050  0.93620  Biso   1.000  C
  C264     1.0000 0.16800  0.31870  0.88310  Biso   1.000  C
  H148     1.0000 0.22180  0.31510  0.86200  Biso   1.000  H
  C265     1.0000 0.91560  0.60320  0.85930  Biso   1.000  C
  H149     1.0000 0.88590  0.60970  0.81790  Biso   1.000  H
  C266     1.0000 0.01490  0.32930  0.94850  Biso   1.000  C
  H150     1.0000 0.96340  0.33320  0.97150  Biso   1.000  H
  C267     1.0000 0.93120  0.56960  0.94360  Biso   1.000  C
  C268     1.0000 0.89930  0.44210  0.84230  Biso   1.000  C
  C269     1.0000 0.50030  0.22430  0.87030  Biso   1.000  C
  C270     1.0000 0.72990  0.34300  0.26500  Biso   1.000  C
  C271     1.0000 0.46430  0.25820  0.95530  Biso   1.000  C
  H151     1.0000 0.52980  0.25680  0.97680  Biso   1.000  H
  C272     1.0000 0.08790  0.31310  0.97670  Biso   1.000  C
  H152     1.0000 0.08650  0.30560  0.01830  Biso   1.000  H
  C273     1.0000 0.60020  0.36870  0.53430  Biso   1.000  C
  H153     1.0000 0.53760  0.36050  0.52700  Biso   1.000  H
  C274     1.0000 0.30010  0.27670  0.95050  Biso   1.000  C
  C275     1.0000 0.78400  0.39020  0.55920  Biso   1.000  C
  H154     1.0000 0.84780  0.39770  0.56630  Biso   1.000  H
  C276     1.0000 0.76640  0.33140  0.32830  Biso   1.000  C
  H155     1.0000 0.81840  0.31880  0.33480  Biso   1.000  H
  C277     1.0000 0.96520  0.51640  0.89250  Biso   1.000  C
  H156     1.0000 0.00920  0.53000  0.88360  Biso   1.000  H
  C278     1.0000 0.73860  0.38390  0.49490  Biso   1.000  C
  H157     1.0000 0.77340  0.38670  0.46020  Biso   1.000  H
  C279     1.0000 0.64580  0.36030  0.37060  Biso   1.000  C
  C280     1.0000 0.84250  0.50060  0.95340  Biso   1.000  C
  H158     1.0000 0.80430  0.50390  0.98610  Biso   1.000  H
  C281     1.0000 0.02840  0.60910  0.96130  Biso   1.000  C
  H159     1.0000 0.07560  0.61960  0.98850  Biso   1.000  H
  C282     1.0000 0.88920  0.57840  0.88270  Biso   1.000  C
  H160     1.0000 0.84200  0.56750  0.85660  Biso   1.000  H
  C283     1.0000 0.71800  0.34030  0.38120  Biso   1.000  C
  H161     1.0000 0.73550  0.33250  0.42300  Biso   1.000  H
  C284     1.0000 0.64750  0.37380  0.48190  Biso   1.000  C
  C285     1.0000 0.96040  0.49050  0.86120  Biso   1.000  C
  H162     1.0000 0.99940  0.48750  0.82890  Biso   1.000  H
  C286     1.0000 0.83820  0.47430  0.92060  Biso   1.000  C
  H163     1.0000 0.79340  0.46090  0.92960  Biso   1.000  H
  C287     1.0000 0.99950  0.58480  0.98220  Biso   1.000  C
  H164     1.0000 0.02720  0.57840  0.02400  Biso   1.000  H
  C288     1.0000 0.65730  0.36230  0.25720  Biso   1.000  C
  H165     1.0000 0.63430  0.36900  0.21480  Biso   1.000  H
  C289     1.0000 0.39710  0.27580  0.97880  Biso   1.000  C
  H166     1.0000 0.41960  0.28720  0.01470  Biso   1.000  H
  C290     1.0000 0.64370  0.37520  0.59730  Biso   1.000  C
  H167     1.0000 0.60820  0.37240  0.63160  Biso   1.000  H
  C291     1.0000 0.61520  0.37260  0.30970  Biso   1.000  C
  H168     1.0000 0.56930  0.38700  0.30400  Biso   1.000  H
  O103     1.0000 0.86760  0.40355  0.68610  Biso   1.000  O
  C292     1.0000 0.78720  0.39260  0.67730  Biso   1.000  C
  C293     1.0000 0.93410  0.35900  0.85240  Biso   1.000  C
  O104     1.0000 0.84150  0.31583  0.21410  Biso   1.000  O
  C294     1.0000 0.76760  0.33200  0.20860  Biso   1.000  C
  O105     1.0000 0.72940  0.33830  0.15110  Biso   1.000  O
  Co15     1.0000 0.67840  0.18963  0.89299  Biso   1.000  Co
  Co16     1.0000 0.28486  0.89032  0.81930  Biso   1.000  Co
  O106     1.0000 0.44080  0.87377  0.80480  Biso   1.000  O
  O107     1.0000 0.48370  0.15208  0.81540  Biso   1.000  O
  O108     1.0000 0.35070  0.86039  0.87730  Biso   1.000  O
  O109     1.0000 0.96910  0.71383  0.81440  Biso   1.000  O
  O110     1.0000 0.46120  0.93742  0.80720  Biso   1.000  O
  O111     1.0000 0.23880  0.88600  0.72480  Biso   1.000  O
  O112     1.0000 0.73980  0.79320  0.98180  Biso   1.000  O
  O113     1.0000 0.32790  0.92632  0.85370  Biso   1.000  O
  O114     1.0000 0.58830  0.15837  0.90950  Biso   1.000  O
  O115     1.0000 0.08360  0.72040  0.90430  Biso   1.000  O
  O116     1.0000 0.40080  0.04508  0.97060  Biso   1.000  O
  C295     1.0000 0.51160  0.84100  0.88520  Biso   1.000  C
  O117     1.0000 0.09690  0.86860  0.42320  Biso   1.000  O
  C296     1.0000 0.23770  0.88590  0.61190  Biso   1.000  C
  C297     1.0000 0.39970  0.96890  0.87640  Biso   1.000  C
  C298     1.0000 0.92950  0.74260  0.89810  Biso   1.000  C
  C299     1.0000 0.52070  0.14530  0.87150  Biso   1.000  C
  C300     1.0000 0.59260  0.83480  0.85420  Biso   1.000  C
  H169     1.0000 0.59450  0.84200  0.81240  Biso   1.000  H
  C301     1.0000 0.48760  0.11840  0.89890  Biso   1.000  C
  C302     1.0000 0.66360  0.80760  0.94550  Biso   1.000  C
  C303     1.0000 0.83280  0.74460  0.87060  Biso   1.000  C
  H170     1.0000 0.81010  0.73450  0.83260  Biso   1.000  H
  C304     1.0000 0.76550  0.76100  0.89630  Biso   1.000  C
  H171     1.0000 0.69870  0.76130  0.87710  Biso   1.000  H
  C305     1.0000 0.40270  0.02050  0.93620  Biso   1.000  C
  C306     1.0000 0.66800  0.81870  0.88310  Biso   1.000  C
  H172     1.0000 0.72180  0.81510  0.86200  Biso   1.000  H
  C307     1.0000 0.41560  0.10320  0.85930  Biso   1.000  C
  H173     1.0000 0.38590  0.10970  0.81790  Biso   1.000  H
  C308     1.0000 0.51490  0.82930  0.94850  Biso   1.000  C
  H174     1.0000 0.46340  0.83320  0.97150  Biso   1.000  H
  C309     1.0000 0.43120  0.06960  0.94360  Biso   1.000  C
  C310     1.0000 0.39930  0.94210  0.84230  Biso   1.000  C
  C311     1.0000 0.00030  0.72430  0.87030  Biso   1.000  C
  C312     1.0000 0.22990  0.84300  0.26500  Biso   1.000  C
  C313     1.0000 0.96430  0.75820  0.95530  Biso   1.000  C
  H175     1.0000 0.02980  0.75680  0.97680  Biso   1.000  H
  C314     1.0000 0.58790  0.81310  0.97670  Biso   1.000  C
  H176     1.0000 0.58650  0.80560  0.01830  Biso   1.000  H
  C315     1.0000 0.10020  0.86870  0.53430  Biso   1.000  C
  H177     1.0000 0.03760  0.86050  0.52700  Biso   1.000  H
  C316     1.0000 0.80010  0.77670  0.95050  Biso   1.000  C
  C317     1.0000 0.28400  0.89020  0.55920  Biso   1.000  C
  H178     1.0000 0.34780  0.89770  0.56630  Biso   1.000  H
  C318     1.0000 0.26640  0.83140  0.32830  Biso   1.000  C
  H179     1.0000 0.31840  0.81880  0.33480  Biso   1.000  H
  C319     1.0000 0.46520  0.01640  0.89250  Biso   1.000  C
  H180     1.0000 0.50920  0.03000  0.88360  Biso   1.000  H
  C320     1.0000 0.23860  0.88390  0.49490  Biso   1.000  C
  H181     1.0000 0.27340  0.88670  0.46020  Biso   1.000  H
  C321     1.0000 0.14580  0.86030  0.37060  Biso   1.000  C
  C322     1.0000 0.34250  0.00060  0.95340  Biso   1.000  C
  H182     1.0000 0.30430  0.00390  0.98610  Biso   1.000  H
  C323     1.0000 0.52840  0.10910  0.96130  Biso   1.000  C
  H183     1.0000 0.57560  0.11960  0.98850  Biso   1.000  H
  C324     1.0000 0.38920  0.07840  0.88270  Biso   1.000  C
  H184     1.0000 0.34200  0.06750  0.85660  Biso   1.000  H
  C325     1.0000 0.21800  0.84030  0.38120  Biso   1.000  C
  H185     1.0000 0.23550  0.83250  0.42300  Biso   1.000  H
  C326     1.0000 0.14750  0.87380  0.48190  Biso   1.000  C
  C327     1.0000 0.46040  0.99050  0.86120  Biso   1.000  C
  H186     1.0000 0.49940  0.98750  0.82890  Biso   1.000  H
  C328     1.0000 0.33820  0.97430  0.92060  Biso   1.000  C
  H187     1.0000 0.29340  0.96090  0.92960  Biso   1.000  H
  C329     1.0000 0.49950  0.08480  0.98220  Biso   1.000  C
  H188     1.0000 0.52720  0.07840  0.02400  Biso   1.000  H
  C330     1.0000 0.15730  0.86230  0.25720  Biso   1.000  C
  H189     1.0000 0.13430  0.86900  0.21480  Biso   1.000  H
  C331     1.0000 0.89710  0.77580  0.97880  Biso   1.000  C
  H190     1.0000 0.91960  0.78720  0.01470  Biso   1.000  H
  C332     1.0000 0.14370  0.87520  0.59730  Biso   1.000  C
  H191     1.0000 0.10820  0.87240  0.63160  Biso   1.000  H
  C333     1.0000 0.11520  0.87260  0.30970  Biso   1.000  C
  H192     1.0000 0.06930  0.88700  0.30400  Biso   1.000  H
  O118     1.0000 0.36760  0.90355  0.68610  Biso   1.000  O
  C334     1.0000 0.28720  0.89260  0.67730  Biso   1.000  C
  C335     1.0000 0.43410  0.85900  0.85240  Biso   1.000  C
  O119     1.0000 0.34150  0.81583  0.21410  Biso   1.000  O
  C336     1.0000 0.26760  0.83200  0.20860  Biso   1.000  C
  O120     1.0000 0.22940  0.83830  0.15110  Biso   1.000  O
  Co17     1.0000 0.00000  0.59458  0.25000  Biso   1.000  Co
  Co18     1.0000 0.00000  0.31674  0.25000  Biso   1.000  Co
  Co19     1.0000 0.50000  0.09458  0.25000  Biso   1.000  Co
  Co20     1.0000 0.50000  0.81674  0.25000  Biso   1.000  Co
  Co21     1.0000 0.00000  0.40542  0.75000  Biso   1.000  Co
  Co22     1.0000 0.00000  0.68326  0.75000  Biso   1.000  Co
  Co23     1.0000 0.50000  0.90542  0.75000  Biso   1.000  Co
  Co24     1.0000 0.50000  0.18326  0.75000  Biso   1.000  Co
