data_image0
_cell_length_a       29.6688
_cell_length_b       29.6688
_cell_length_c       72.7125
_cell_angle_alpha    90
_cell_angle_beta     90
_cell_angle_gamma    120

_symmetry_space_group_name_H-M    "P 1"
_symmetry_int_tables_number       1

loop_
  _symmetry_equiv_pos_as_xyz
  'x, y, z'

loop_
  _atom_site_label
  _atom_site_occupancy
  _atom_site_fract_x
  _atom_site_fract_y
  _atom_site_fract_z
  _atom_site_thermal_displace_type
  _atom_site_B_iso_or_equiv
  _atom_site_type_symbol
  C1       1.0000 0.41170  0.58280  0.33361  Biso   1.000  C
  C2       1.0000 0.46140  0.60890  0.34110  Biso   1.000  C
  C3       1.0000 0.47810  0.58280  0.35260  Biso   1.000  C
  C4       1.0000 0.44510  0.53040  0.35660  Biso   1.000  C
  C5       1.0000 0.39540  0.50430  0.34910  Biso   1.000  C
  C6       1.0000 0.37870  0.53050  0.33760  Biso   1.000  C
  C7       1.0000 0.39280  0.61160  0.32070  Biso   1.000  C
  C8       1.0000 0.58180  0.41000  0.41834  Biso   1.000  C
  C9       1.0000 0.60840  0.45960  0.41080  Biso   1.000  C
  C10      1.0000 0.58230  0.47710  0.39960  Biso   1.000  C
  C11      1.0000 0.52960  0.44490  0.39600  Biso   1.000  C
  C12      1.0000 0.50300  0.39530  0.40350  Biso   1.000  C
  C13      1.0000 0.52910  0.37780  0.41470  Biso   1.000  C
  C14      1.0000 0.35570  0.44650  0.35340  Biso   1.000  C
  C15      1.0000 0.82990  0.91630  0.16530  Biso   1.000  C
  C16      1.0000 0.82990  0.92340  0.18420  Biso   1.000  C
  C17      1.0000 0.78310  0.90510  0.19350  Biso   1.000  C
  C18      1.0000 0.73630  0.87980  0.18400  Biso   1.000  C
  C19      1.0000 0.73620  0.87260  0.16510  Biso   1.000  C
  C20      1.0000 0.78300  0.89090  0.15570  Biso   1.000  C
  C21      1.0000 0.37600  0.41510  0.34880  Biso   1.000  C
  C22      1.0000 0.49310  0.74890  0.25090  Biso   1.000  C
  C23      1.0000 0.54450  0.77250  0.25680  Biso   1.000  C
  C24      1.0000 0.58480  0.79630  0.24420  Biso   1.000  C
  C25      1.0000 0.57380  0.79670  0.22560  Biso   1.000  C
  C26      1.0000 0.52240  0.77310  0.21970  Biso   1.000  C
  C27      1.0000 0.48200  0.74920  0.23240  Biso   1.000  C
  C28      1.0000 0.30900  0.43500  0.34430  Biso   1.000  C
  C29      1.0000 0.34300  0.44060  0.37210  Biso   1.000  C
  C30      1.0000 0.52910  0.61580  0.35900  Biso   1.000  C
  C31      1.0000 0.61260  0.39230  0.43080  Biso   1.000  C
  C32      1.0000 0.44370  0.36020  0.39890  Biso   1.000  C
  C33      1.0000 0.42370  0.31140  0.40770  Biso   1.000  C
  C34      1.0000 0.43780  0.35360  0.37990  Biso   1.000  C
  C35      1.0000 0.41650  0.38460  0.40430  Biso   1.000  C
  C36      1.0000 0.61630  0.52830  0.39340  Biso   1.000  C
  C37      1.0000 0.60760  0.63170  0.37330  Biso   1.000  C
  C38      1.0000 0.63910  0.69240  0.37220  Biso   1.000  C
  C39      1.0000 0.68580  0.72200  0.38340  Biso   1.000  C
  C40      1.0000 0.70390  0.69250  0.39370  Biso   1.000  C
  C41      1.0000 0.69180  0.63870  0.38730  Biso   1.000  C
  C42      1.0000 0.63610  0.60640  0.37550  Biso   1.000  C
  C43      1.0000 0.88130  0.93640  0.15460  Biso   1.000  C
  C44      1.0000 0.68440  0.84290  0.15390  Biso   1.000  C
  C45      1.0000 0.64330  0.85100  0.15800  Biso   1.000  C
  C46      1.0000 0.66400  0.78900  0.15440  Biso   1.000  C
  C47      1.0000 0.69600  0.85600  0.13500  Biso   1.000  C
  C48      1.0000 0.78830  0.91330  0.21270  Biso   1.000  C
  C49      1.0000 0.44690  0.72200  0.26430  Biso   1.000  C
  C50      1.0000 0.50400  0.77030  0.19930  Biso   1.000  C
  C51      1.0000 0.50900  0.81900  0.19460  Biso   1.000  C
  C52      1.0000 0.45000  0.73330  0.19740  Biso   1.000  C
  C53      1.0000 0.53030  0.75600  0.18660  Biso   1.000  C
  C54      1.0000 0.63520  0.81760  0.25210  Biso   1.000  C
  C55      1.0000 0.76500  0.87220  0.24270  Biso   1.000  C
  C56      1.0000 0.82000  0.88010  0.24960  Biso   1.000  C
  C57      1.0000 0.82050  0.84910  0.26570  Biso   1.000  C
  C58      1.0000 0.78000  0.83630  0.27910  Biso   1.000  C
  C59      1.0000 0.72700  0.83090  0.27390  Biso   1.000  C
  C60      1.0000 0.72310  0.82930  0.25120  Biso   1.000  C
  Cl1      1.0000 0.54330  0.48440  0.34430  Biso   1.000  Cl
  Cl2      1.0000 0.67090  0.74700  0.20850  Biso   1.000  Cl
  Mn1      1.0000 0.53270  0.52240  0.36888  Biso   1.000  Mn
  Mn2      1.0000 0.68210  0.82500  0.21518  Biso   1.000  Mn
  N1       1.0000 0.56130  0.59940  0.36480  Biso   1.000  N
  N2       1.0000 0.60160  0.55370  0.38190  Biso   1.000  N
  N3       1.0000 0.75680  0.87260  0.22410  Biso   1.000  N
  N4       1.0000 0.67340  0.81450  0.24320  Biso   1.000  N
  O1       1.0000 0.42530  0.66080  0.31470  Biso   1.000  O
  O2       1.0000 0.34130  0.58370  0.31600  Biso   1.000  O
  O3       1.0000 0.45900  0.49990  0.36870  Biso   1.000  O
  O4       1.0000 0.65880  0.42400  0.43730  Biso   1.000  O
  O5       1.0000 0.58080  0.34030  0.43250  Biso   1.000  O
  O6       1.0000 0.50020  0.46140  0.38370  Biso   1.000  O
  O7       1.0000 0.92940  0.95960  0.16230  Biso   1.000  O
  O8       1.0000 0.87930  0.93070  0.13610  Biso   1.000  O
  O9       1.0000 0.68590  0.85990  0.19300  Biso   1.000  O
  O10      1.0000 0.45430  0.72470  0.28220  Biso   1.000  O
  O11      1.0000 0.40130  0.69630  0.25580  Biso   1.000  O
  O12      1.0000 0.61690  0.82150  0.21240  Biso   1.000  O
  Zn1      1.0000 0.40473  0.69958  0.30052  Biso   1.000  Zn
  Zn2      1.0000 0.92915  0.96542  0.11603  Biso   1.000  Zn
  C61      1.0000 0.86910  0.67250  0.53590  Biso   1.000  C
  C62      1.0000 0.51230  0.53380  0.38680  Biso   1.000  C
  C63      1.0000 0.81780  0.68090  0.53170  Biso   1.000  C
  C64      1.0000 0.48000  0.49610  0.38200  Biso   1.000  C
  C65      1.0000 0.07837  0.91613  0.66694  Biso   1.000  C
  C66      1.0000 0.12807  0.94223  0.67443  Biso   1.000  C
  C67      1.0000 0.14477  0.91613  0.68593  Biso   1.000  C
  C68      1.0000 0.11177  0.86373  0.68993  Biso   1.000  C
  C69      1.0000 0.06207  0.83763  0.68243  Biso   1.000  C
  C70      1.0000 0.04537  0.86383  0.67093  Biso   1.000  C
  C71      1.0000 0.05947  0.94493  0.65403  Biso   1.000  C
  C72      1.0000 0.24847  0.74333  0.75167  Biso   1.000  C
  C73      1.0000 0.27507  0.79293  0.74413  Biso   1.000  C
  C74      1.0000 0.24897  0.81043  0.73293  Biso   1.000  C
  C75      1.0000 0.19627  0.77823  0.72933  Biso   1.000  C
  C76      1.0000 0.16967  0.72863  0.73683  Biso   1.000  C
  C77      1.0000 0.19577  0.71113  0.74803  Biso   1.000  C
  C78      1.0000 0.02237  0.77983  0.68673  Biso   1.000  C
  C79      1.0000 0.49657  0.24963  0.49863  Biso   1.000  C
  C80      1.0000 0.49657  0.25673  0.51753  Biso   1.000  C
  C81      1.0000 0.44977  0.23843  0.52683  Biso   1.000  C
  C82      1.0000 0.40297  0.21313  0.51733  Biso   1.000  C
  C83      1.0000 0.40287  0.20593  0.49843  Biso   1.000  C
  C84      1.0000 0.44967  0.22423  0.48903  Biso   1.000  C
  C85      1.0000 0.04267  0.74843  0.68213  Biso   1.000  C
  C86      1.0000 0.15977  0.08223  0.58423  Biso   1.000  C
  C87      1.0000 0.21117  0.10583  0.59013  Biso   1.000  C
  C88      1.0000 0.25147  0.12963  0.57753  Biso   1.000  C
  C89      1.0000 0.24047  0.13003  0.55893  Biso   1.000  C
  C90      1.0000 0.18907  0.10643  0.55303  Biso   1.000  C
  C91      1.0000 0.14867  0.08253  0.56573  Biso   1.000  C
  C92      1.0000 0.97567  0.76833  0.67763  Biso   1.000  C
  C93      1.0000 0.00967  0.77393  0.70543  Biso   1.000  C
  C94      1.0000 0.19577  0.94913  0.69233  Biso   1.000  C
  C95      1.0000 0.27927  0.72563  0.76413  Biso   1.000  C
  C96      1.0000 0.11037  0.69353  0.73223  Biso   1.000  C
  C97      1.0000 0.09037  0.64473  0.74103  Biso   1.000  C
  C98      1.0000 0.10447  0.68693  0.71323  Biso   1.000  C
  C99      1.0000 0.08317  0.71793  0.73763  Biso   1.000  C
  C100     1.0000 0.28297  0.86163  0.72673  Biso   1.000  C
  C101     1.0000 0.27427  0.96503  0.70663  Biso   1.000  C
  C102     1.0000 0.30577  0.02573  0.70553  Biso   1.000  C
  C103     1.0000 0.35247  0.05533  0.71673  Biso   1.000  C
  C104     1.0000 0.37057  0.02583  0.72703  Biso   1.000  C
  C105     1.0000 0.35847  0.97203  0.72063  Biso   1.000  C
  C106     1.0000 0.30277  0.93973  0.70883  Biso   1.000  C
  C107     1.0000 0.54797  0.26973  0.48793  Biso   1.000  C
  C108     1.0000 0.35107  0.17623  0.48723  Biso   1.000  C
  C109     1.0000 0.30997  0.18433  0.49133  Biso   1.000  C
  C110     1.0000 0.33067  0.12233  0.48773  Biso   1.000  C
  C111     1.0000 0.36267  0.18933  0.46833  Biso   1.000  C
  C112     1.0000 0.45497  0.24663  0.54603  Biso   1.000  C
  C113     1.0000 0.11357  0.05533  0.59763  Biso   1.000  C
  C114     1.0000 0.17067  0.10363  0.53263  Biso   1.000  C
  C115     1.0000 0.17567  0.15233  0.52793  Biso   1.000  C
  C116     1.0000 0.11667  0.06663  0.53073  Biso   1.000  C
  C117     1.0000 0.19697  0.08933  0.51993  Biso   1.000  C
  C118     1.0000 0.30187  0.15093  0.58543  Biso   1.000  C
  C119     1.0000 0.43167  0.20553  0.57603  Biso   1.000  C
  C120     1.0000 0.48667  0.21343  0.58293  Biso   1.000  C
  C121     1.0000 0.48717  0.18243  0.59903  Biso   1.000  C
  C122     1.0000 0.44667  0.16963  0.61243  Biso   1.000  C
  C123     1.0000 0.39367  0.16423  0.60723  Biso   1.000  C
  C124     1.0000 0.38977  0.16263  0.58453  Biso   1.000  C
  Cl3      1.0000 0.20997  0.81773  0.67763  Biso   1.000  Cl
  Cl4      1.0000 0.33757  0.08033  0.54183  Biso   1.000  Cl
  Mn3      1.0000 0.19937  0.85573  0.70221  Biso   1.000  Mn
  Mn4      1.0000 0.34877  0.15833  0.54851  Biso   1.000  Mn
  N5       1.0000 0.22797  0.93273  0.69813  Biso   1.000  N
  N6       1.0000 0.26827  0.88703  0.71523  Biso   1.000  N
  N7       1.0000 0.42347  0.20593  0.55743  Biso   1.000  N
  N8       1.0000 0.34007  0.14783  0.57653  Biso   1.000  N
  O13      1.0000 0.09197  0.99413  0.64803  Biso   1.000  O
  O14      1.0000 0.00797  0.91703  0.64933  Biso   1.000  O
  O15      1.0000 0.12567  0.83323  0.70203  Biso   1.000  O
  O16      1.0000 0.32547  0.75733  0.77063  Biso   1.000  O
  O17      1.0000 0.24747  0.67363  0.76583  Biso   1.000  O
  O18      1.0000 0.16687  0.79473  0.71703  Biso   1.000  O
  O19      1.0000 0.59607  0.29293  0.49563  Biso   1.000  O
  O20      1.0000 0.54597  0.26403  0.46943  Biso   1.000  O
  O21      1.0000 0.35257  0.19323  0.52633  Biso   1.000  O
  O22      1.0000 0.12097  0.05803  0.61553  Biso   1.000  O
  O23      1.0000 0.06797  0.02963  0.58913  Biso   1.000  O
  O24      1.0000 0.28357  0.15483  0.54573  Biso   1.000  O
  Zn3      1.0000 0.07140  0.03291  0.63385  Biso   1.000  Zn
  Zn4      1.0000 0.59582  0.29875  0.44936  Biso   1.000  Zn
  C125     1.0000 0.53577  0.00583  0.86923  Biso   1.000  C
  C126     1.0000 0.17897  0.86713  0.72013  Biso   1.000  C
  C127     1.0000 0.48447  0.01423  0.86503  Biso   1.000  C
  C128     1.0000 0.14667  0.82943  0.71533  Biso   1.000  C
  C129     1.0000 0.74503  0.24947  0.00028  Biso   1.000  C
  C130     1.0000 0.79473  0.27557  0.00777  Biso   1.000  C
  C131     1.0000 0.81143  0.24947  0.01927  Biso   1.000  C
  C132     1.0000 0.77843  0.19707  0.02327  Biso   1.000  C
  C133     1.0000 0.72873  0.17097  0.01577  Biso   1.000  C
  C134     1.0000 0.71203  0.19717  0.00427  Biso   1.000  C
  C135     1.0000 0.72613  0.27827  0.98737  Biso   1.000  C
  C136     1.0000 0.91513  0.07667  0.08501  Biso   1.000  C
  C137     1.0000 0.94173  0.12627  0.07747  Biso   1.000  C
  C138     1.0000 0.91563  0.14377  0.06627  Biso   1.000  C
  C139     1.0000 0.86293  0.11157  0.06267  Biso   1.000  C
  C140     1.0000 0.83633  0.06197  0.07017  Biso   1.000  C
  C141     1.0000 0.86243  0.04447  0.08137  Biso   1.000  C
  C142     1.0000 0.68903  0.11317  0.02007  Biso   1.000  C
  C143     1.0000 0.16323  0.58297  0.83197  Biso   1.000  C
  C144     1.0000 0.16323  0.59007  0.85087  Biso   1.000  C
  C145     1.0000 0.11643  0.57177  0.86017  Biso   1.000  C
  C146     1.0000 0.06963  0.54647  0.85067  Biso   1.000  C
  C147     1.0000 0.06953  0.53927  0.83177  Biso   1.000  C
  C148     1.0000 0.11633  0.55757  0.82237  Biso   1.000  C
  C149     1.0000 0.70933  0.08177  0.01547  Biso   1.000  C
  C150     1.0000 0.82643  0.41557  0.91757  Biso   1.000  C
  C151     1.0000 0.87783  0.43917  0.92347  Biso   1.000  C
  C152     1.0000 0.91813  0.46297  0.91087  Biso   1.000  C
  C153     1.0000 0.90713  0.46337  0.89227  Biso   1.000  C
  C154     1.0000 0.85573  0.43977  0.88637  Biso   1.000  C
  C155     1.0000 0.81533  0.41587  0.89907  Biso   1.000  C
  C156     1.0000 0.64233  0.10167  0.01097  Biso   1.000  C
  C157     1.0000 0.67633  0.10727  0.03877  Biso   1.000  C
  C158     1.0000 0.86243  0.28247  0.02567  Biso   1.000  C
  C159     1.0000 0.94593  0.05897  0.09747  Biso   1.000  C
  C160     1.0000 0.77703  0.02687  0.06557  Biso   1.000  C
  C161     1.0000 0.75703  0.97807  0.07437  Biso   1.000  C
  C162     1.0000 0.77113  0.02027  0.04657  Biso   1.000  C
  C163     1.0000 0.74983  0.05127  0.07097  Biso   1.000  C
  C164     1.0000 0.94963  0.19497  0.06007  Biso   1.000  C
  C165     1.0000 0.94093  0.29837  0.03997  Biso   1.000  C
  C166     1.0000 0.97243  0.35907  0.03887  Biso   1.000  C
  C167     1.0000 0.01913  0.38867  0.05007  Biso   1.000  C
  C168     1.0000 0.03723  0.35917  0.06037  Biso   1.000  C
  C169     1.0000 0.02513  0.30537  0.05397  Biso   1.000  C
  C170     1.0000 0.96943  0.27307  0.04217  Biso   1.000  C
  C171     1.0000 0.21463  0.60307  0.82127  Biso   1.000  C
  C172     1.0000 0.01773  0.50957  0.82057  Biso   1.000  C
  C173     1.0000 0.97663  0.51767  0.82467  Biso   1.000  C
  C174     1.0000 0.99733  0.45567  0.82107  Biso   1.000  C
  C175     1.0000 0.02933  0.52267  0.80167  Biso   1.000  C
  C176     1.0000 0.12163  0.57997  0.87937  Biso   1.000  C
  C177     1.0000 0.78023  0.38867  0.93097  Biso   1.000  C
  C178     1.0000 0.83733  0.43697  0.86597  Biso   1.000  C
  C179     1.0000 0.84233  0.48567  0.86127  Biso   1.000  C
  C180     1.0000 0.78333  0.39997  0.86407  Biso   1.000  C
  C181     1.0000 0.86363  0.42267  0.85327  Biso   1.000  C
  C182     1.0000 0.96853  0.48427  0.91877  Biso   1.000  C
  C183     1.0000 0.09833  0.53887  0.90937  Biso   1.000  C
  C184     1.0000 0.15333  0.54677  0.91627  Biso   1.000  C
  C185     1.0000 0.15383  0.51577  0.93237  Biso   1.000  C
  C186     1.0000 0.11333  0.50297  0.94577  Biso   1.000  C
  C187     1.0000 0.06033  0.49757  0.94057  Biso   1.000  C
  C188     1.0000 0.05643  0.49597  0.91787  Biso   1.000  C
  Cl5      1.0000 0.87663  0.15107  0.01097  Biso   1.000  Cl
  Cl6      1.0000 0.00423  0.41367  0.87517  Biso   1.000  Cl
  Mn5      1.0000 0.86603  0.18907  0.03555  Biso   1.000  Mn
  Mn6      1.0000 0.01543  0.49167  0.88185  Biso   1.000  Mn
  N9       1.0000 0.89463  0.26607  0.03147  Biso   1.000  N
  N10      1.0000 0.93493  0.22037  0.04857  Biso   1.000  N
  N11      1.0000 0.09013  0.53927  0.89077  Biso   1.000  N
  N12      1.0000 0.00673  0.48117  0.90987  Biso   1.000  N
  O25      1.0000 0.75863  0.32747  0.98137  Biso   1.000  O
  O26      1.0000 0.67463  0.25037  0.98267  Biso   1.000  O
  O27      1.0000 0.79233  0.16657  0.03537  Biso   1.000  O
  O28      1.0000 0.99213  0.09067  0.10397  Biso   1.000  O
  O29      1.0000 0.91413  0.00697  0.09917  Biso   1.000  O
  O30      1.0000 0.83353  0.12807  0.05037  Biso   1.000  O
  O31      1.0000 0.26273  0.62627  0.82897  Biso   1.000  O
  O32      1.0000 0.21263  0.59737  0.80277  Biso   1.000  O
  O33      1.0000 0.01923  0.52657  0.85967  Biso   1.000  O
  O34      1.0000 0.78763  0.39137  0.94887  Biso   1.000  O
  O35      1.0000 0.73463  0.36297  0.92247  Biso   1.000  O
  O36      1.0000 0.95023  0.48817  0.87907  Biso   1.000  O
  Zn5      1.0000 0.73806  0.36625  0.96719  Biso   1.000  Zn
  Zn6      1.0000 0.26248  0.63209  0.78270  Biso   1.000  Zn
  C189     1.0000 0.20243  0.33917  0.20257  Biso   1.000  C
  C190     1.0000 0.84563  0.20047  0.05347  Biso   1.000  C
  C191     1.0000 0.15113  0.34757  0.19837  Biso   1.000  C
  C192     1.0000 0.81333  0.16277  0.04867  Biso   1.000  C
  C193     1.0000 0.41720  0.82890  0.33361  Biso   1.000  C
  C194     1.0000 0.39110  0.85250  0.34110  Biso   1.000  C
  C195     1.0000 0.41720  0.89530  0.35260  Biso   1.000  C
  C196     1.0000 0.46960  0.91470  0.35660  Biso   1.000  C
  C197     1.0000 0.49570  0.89110  0.34910  Biso   1.000  C
  C198     1.0000 0.46950  0.84820  0.33760  Biso   1.000  C
  C199     1.0000 0.38840  0.78120  0.32070  Biso   1.000  C
  C200     1.0000 0.59000  0.17180  0.41834  Biso   1.000  C
  C201     1.0000 0.54040  0.14880  0.41080  Biso   1.000  C
  C202     1.0000 0.52290  0.10520  0.39960  Biso   1.000  C
  C203     1.0000 0.55510  0.08470  0.39600  Biso   1.000  C
  C204     1.0000 0.60470  0.10770  0.40350  Biso   1.000  C
  C205     1.0000 0.62220  0.15130  0.41470  Biso   1.000  C
  C206     1.0000 0.55350  0.90920  0.35340  Biso   1.000  C
  C207     1.0000 0.08370  0.91360  0.16530  Biso   1.000  C
  C208     1.0000 0.07660  0.90650  0.18420  Biso   1.000  C
  C209     1.0000 0.09490  0.87800  0.19350  Biso   1.000  C
  C210     1.0000 0.12020  0.85650  0.18400  Biso   1.000  C
  C211     1.0000 0.12740  0.86360  0.16510  Biso   1.000  C
  C212     1.0000 0.10910  0.89210  0.15570  Biso   1.000  C
  C213     1.0000 0.58490  0.96090  0.34880  Biso   1.000  C
  C214     1.0000 0.25110  0.74420  0.25090  Biso   1.000  C
  C215     1.0000 0.22750  0.77200  0.25680  Biso   1.000  C
  C216     1.0000 0.20370  0.78850  0.24420  Biso   1.000  C
  C217     1.0000 0.20330  0.77710  0.22560  Biso   1.000  C
  C218     1.0000 0.22690  0.74930  0.21970  Biso   1.000  C
  C219     1.0000 0.25080  0.73280  0.23240  Biso   1.000  C
  C220     1.0000 0.56500  0.87400  0.34430  Biso   1.000  C
  C221     1.0000 0.55940  0.90240  0.37210  Biso   1.000  C
  C222     1.0000 0.38420  0.91330  0.35900  Biso   1.000  C
  C223     1.0000 0.60770  0.22030  0.43080  Biso   1.000  C
  C224     1.0000 0.63980  0.08350  0.39890  Biso   1.000  C
  C225     1.0000 0.68860  0.11230  0.40770  Biso   1.000  C
  C226     1.0000 0.64640  0.08420  0.37990  Biso   1.000  C
  C227     1.0000 0.61540  0.03190  0.40430  Biso   1.000  C
  C228     1.0000 0.47170  0.08800  0.39340  Biso   1.000  C
  C229     1.0000 0.36830  0.97590  0.37330  Biso   1.000  C
  C230     1.0000 0.30760  0.94670  0.37220  Biso   1.000  C
  C231     1.0000 0.27800  0.96380  0.38340  Biso   1.000  C
  C232     1.0000 0.30750  0.01140  0.39370  Biso   1.000  C
  C233     1.0000 0.36130  0.05310  0.38730  Biso   1.000  C
  C234     1.0000 0.39360  0.02970  0.37550  Biso   1.000  C
  C235     1.0000 0.06360  0.94490  0.15460  Biso   1.000  C
  C236     1.0000 0.15710  0.84150  0.15390  Biso   1.000  C
  C237     1.0000 0.14900  0.79230  0.15800  Biso   1.000  C
  C238     1.0000 0.21100  0.87500  0.15440  Biso   1.000  C
  C239     1.0000 0.14400  0.84000  0.13500  Biso   1.000  C
  C240     1.0000 0.08670  0.87500  0.21270  Biso   1.000  C
  C241     1.0000 0.27800  0.72490  0.26430  Biso   1.000  C
  C242     1.0000 0.22970  0.73370  0.19930  Biso   1.000  C
  C243     1.0000 0.18100  0.69000  0.19460  Biso   1.000  C
  C244     1.0000 0.26670  0.71670  0.19740  Biso   1.000  C
  C245     1.0000 0.24400  0.77430  0.18660  Biso   1.000  C
  C246     1.0000 0.18240  0.81760  0.25210  Biso   1.000  C
  C247     1.0000 0.12780  0.89280  0.24270  Biso   1.000  C
  C248     1.0000 0.11990  0.93990  0.24960  Biso   1.000  C
  C249     1.0000 0.15090  0.97140  0.26570  Biso   1.000  C
  C250     1.0000 0.16370  0.94370  0.27910  Biso   1.000  C
  C251     1.0000 0.16910  0.89610  0.27390  Biso   1.000  C
  C252     1.0000 0.17070  0.89380  0.25120  Biso   1.000  C
  Cl7      1.0000 0.51560  0.05890  0.34430  Biso   1.000  Cl
  Cl8      1.0000 0.25300  0.92390  0.20850  Biso   1.000  Cl
  Mn7      1.0000 0.47760  0.01030  0.36888  Biso   1.000  Mn
  Mn8      1.0000 0.17500  0.85710  0.21518  Biso   1.000  Mn
  N13      1.0000 0.40060  0.96190  0.36480  Biso   1.000  N
  N14      1.0000 0.44630  0.04790  0.38190  Biso   1.000  N
  N15      1.0000 0.12740  0.88420  0.22410  Biso   1.000  N
  N16      1.0000 0.18550  0.85890  0.24320  Biso   1.000  N
  O37      1.0000 0.33920  0.76450  0.31470  Biso   1.000  O
  O38      1.0000 0.41630  0.75760  0.31600  Biso   1.000  O
  O39      1.0000 0.50010  0.95910  0.36870  Biso   1.000  O
  O40      1.0000 0.57600  0.23480  0.43730  Biso   1.000  O
  O41      1.0000 0.65970  0.24050  0.43250  Biso   1.000  O
  O42      1.0000 0.53860  0.03880  0.38370  Biso   1.000  O
  O43      1.0000 0.04040  0.96980  0.16230  Biso   1.000  O
  O44      1.0000 0.06930  0.94860  0.13610  Biso   1.000  O
  O45      1.0000 0.14010  0.82600  0.19300  Biso   1.000  O
  O46      1.0000 0.27530  0.72960  0.28220  Biso   1.000  O
  O47      1.0000 0.30370  0.70500  0.25580  Biso   1.000  O
  O48      1.0000 0.17850  0.79540  0.21240  Biso   1.000  O
  Zn7      1.0000 0.30042  0.70515  0.30052  Biso   1.000  Zn
  Zn8      1.0000 0.03458  0.96373  0.11603  Biso   1.000  Zn
  C253     1.0000 0.32750  0.19660  0.53590  Biso   1.000  C
  C254     1.0000 0.46620  0.97850  0.38680  Biso   1.000  C
  C255     1.0000 0.31910  0.13690  0.53170  Biso   1.000  C
  C256     1.0000 0.50390  0.98390  0.38200  Biso   1.000  C
  C257     1.0000 0.08387  0.16223  0.66694  Biso   1.000  C
  C258     1.0000 0.05777  0.18583  0.67443  Biso   1.000  C
  C259     1.0000 0.08387  0.22863  0.68593  Biso   1.000  C
  C260     1.0000 0.13627  0.24803  0.68993  Biso   1.000  C
  C261     1.0000 0.16237  0.22443  0.68243  Biso   1.000  C
  C262     1.0000 0.13617  0.18153  0.67093  Biso   1.000  C
  C263     1.0000 0.05507  0.11453  0.65403  Biso   1.000  C
  C264     1.0000 0.25667  0.50513  0.75167  Biso   1.000  C
  C265     1.0000 0.20707  0.48213  0.74413  Biso   1.000  C
  C266     1.0000 0.18957  0.43853  0.73293  Biso   1.000  C
  C267     1.0000 0.22177  0.41803  0.72933  Biso   1.000  C
  C268     1.0000 0.27137  0.44103  0.73683  Biso   1.000  C
  C269     1.0000 0.28887  0.48463  0.74803  Biso   1.000  C
  C270     1.0000 0.22017  0.24253  0.68673  Biso   1.000  C
  C271     1.0000 0.75037  0.24693  0.49863  Biso   1.000  C
  C272     1.0000 0.74327  0.23983  0.51753  Biso   1.000  C
  C273     1.0000 0.76157  0.21133  0.52683  Biso   1.000  C
  C274     1.0000 0.78687  0.18983  0.51733  Biso   1.000  C
  C275     1.0000 0.79407  0.19693  0.49843  Biso   1.000  C
  C276     1.0000 0.77577  0.22543  0.48903  Biso   1.000  C
  C277     1.0000 0.25157  0.29423  0.68213  Biso   1.000  C
  C278     1.0000 0.91777  0.07753  0.58423  Biso   1.000  C
  C279     1.0000 0.89417  0.10533  0.59013  Biso   1.000  C
  C280     1.0000 0.87037  0.12183  0.57753  Biso   1.000  C
  C281     1.0000 0.86997  0.11043  0.55893  Biso   1.000  C
  C282     1.0000 0.89357  0.08263  0.55303  Biso   1.000  C
  C283     1.0000 0.91747  0.06613  0.56573  Biso   1.000  C
  C284     1.0000 0.23167  0.20733  0.67763  Biso   1.000  C
  C285     1.0000 0.22607  0.23573  0.70543  Biso   1.000  C
  C286     1.0000 0.05087  0.24663  0.69233  Biso   1.000  C
  C287     1.0000 0.27437  0.55363  0.76413  Biso   1.000  C
  C288     1.0000 0.30647  0.41683  0.73223  Biso   1.000  C
  C289     1.0000 0.35527  0.44563  0.74103  Biso   1.000  C
  C290     1.0000 0.31307  0.41753  0.71323  Biso   1.000  C
  C291     1.0000 0.28207  0.36523  0.73763  Biso   1.000  C
  C292     1.0000 0.13837  0.42133  0.72673  Biso   1.000  C
  C293     1.0000 0.03497  0.30923  0.70663  Biso   1.000  C
  C294     1.0000 0.97427  0.28003  0.70553  Biso   1.000  C
  C295     1.0000 0.94467  0.29713  0.71673  Biso   1.000  C
  C296     1.0000 0.97417  0.34473  0.72703  Biso   1.000  C
  C297     1.0000 0.02797  0.38643  0.72063  Biso   1.000  C
  C298     1.0000 0.06027  0.36303  0.70883  Biso   1.000  C
  C299     1.0000 0.73027  0.27823  0.48793  Biso   1.000  C
  C300     1.0000 0.82377  0.17483  0.48723  Biso   1.000  C
  C301     1.0000 0.81567  0.12563  0.49133  Biso   1.000  C
  C302     1.0000 0.87767  0.20833  0.48773  Biso   1.000  C
  C303     1.0000 0.81067  0.17333  0.46833  Biso   1.000  C
  C304     1.0000 0.75337  0.20833  0.54603  Biso   1.000  C
  C305     1.0000 0.94467  0.05823  0.59763  Biso   1.000  C
  C306     1.0000 0.89637  0.06703  0.53263  Biso   1.000  C
  C307     1.0000 0.84767  0.02333  0.52793  Biso   1.000  C
  C308     1.0000 0.93337  0.05003  0.53073  Biso   1.000  C
  C309     1.0000 0.91067  0.10763  0.51993  Biso   1.000  C
  C310     1.0000 0.84907  0.15093  0.58543  Biso   1.000  C
  C311     1.0000 0.79447  0.22613  0.57603  Biso   1.000  C
  C312     1.0000 0.78657  0.27323  0.58293  Biso   1.000  C
  C313     1.0000 0.81757  0.30473  0.59903  Biso   1.000  C
  C314     1.0000 0.83037  0.27703  0.61243  Biso   1.000  C
  C315     1.0000 0.83577  0.22943  0.60723  Biso   1.000  C
  C316     1.0000 0.83737  0.22713  0.58453  Biso   1.000  C
  Cl9      1.0000 0.18227  0.39223  0.67763  Biso   1.000  Cl
  Cl10     1.0000 0.91967  0.25723  0.54183  Biso   1.000  Cl
  Mn9      1.0000 0.14427  0.34363  0.70221  Biso   1.000  Mn
  Mn10     1.0000 0.84167  0.19043  0.54851  Biso   1.000  Mn
  N17      1.0000 0.06727  0.29523  0.69813  Biso   1.000  N
  N18      1.0000 0.11297  0.38123  0.71523  Biso   1.000  N
  N19      1.0000 0.79407  0.21753  0.55743  Biso   1.000  N
  N20      1.0000 0.85217  0.19223  0.57653  Biso   1.000  N
  O49      1.0000 0.00587  0.09783  0.64803  Biso   1.000  O
  O50      1.0000 0.08297  0.09093  0.64933  Biso   1.000  O
  O51      1.0000 0.16677  0.29243  0.70203  Biso   1.000  O
  O52      1.0000 0.24267  0.56813  0.77063  Biso   1.000  O
  O53      1.0000 0.32637  0.57383  0.76583  Biso   1.000  O
  O54      1.0000 0.20527  0.37213  0.71703  Biso   1.000  O
  O55      1.0000 0.70707  0.30313  0.49563  Biso   1.000  O
  O56      1.0000 0.73597  0.28193  0.46943  Biso   1.000  O
  O57      1.0000 0.80677  0.15933  0.52633  Biso   1.000  O
  O58      1.0000 0.94197  0.06293  0.61553  Biso   1.000  O
  O59      1.0000 0.97037  0.03833  0.58913  Biso   1.000  O
  O60      1.0000 0.84517  0.12873  0.54573  Biso   1.000  O
  Zn9      1.0000 0.96709  0.03848  0.63385  Biso   1.000  Zn
  Zn10     1.0000 0.70125  0.29706  0.44936  Biso   1.000  Zn
  C317     1.0000 0.99417  0.52993  0.86923  Biso   1.000  C
  C318     1.0000 0.13287  0.31183  0.72013  Biso   1.000  C
  C319     1.0000 0.98577  0.47023  0.86503  Biso   1.000  C
  C320     1.0000 0.17057  0.31723  0.71533  Biso   1.000  C
  C321     1.0000 0.75053  0.49557  0.00028  Biso   1.000  C
  C322     1.0000 0.72443  0.51917  0.00777  Biso   1.000  C
  C323     1.0000 0.75053  0.56197  0.01927  Biso   1.000  C
  C324     1.0000 0.80293  0.58137  0.02327  Biso   1.000  C
  C325     1.0000 0.82903  0.55777  0.01577  Biso   1.000  C
  C326     1.0000 0.80283  0.51487  0.00427  Biso   1.000  C
  C327     1.0000 0.72173  0.44787  0.98737  Biso   1.000  C
  C328     1.0000 0.92333  0.83847  0.08501  Biso   1.000  C
  C329     1.0000 0.87373  0.81547  0.07747  Biso   1.000  C
  C330     1.0000 0.85623  0.77187  0.06627  Biso   1.000  C
  C331     1.0000 0.88843  0.75137  0.06267  Biso   1.000  C
  C332     1.0000 0.93803  0.77437  0.07017  Biso   1.000  C
  C333     1.0000 0.95553  0.81797  0.08137  Biso   1.000  C
  C334     1.0000 0.88683  0.57587  0.02007  Biso   1.000  C
  C335     1.0000 0.41703  0.58027  0.83197  Biso   1.000  C
  C336     1.0000 0.40993  0.57317  0.85087  Biso   1.000  C
  C337     1.0000 0.42823  0.54467  0.86017  Biso   1.000  C
  C338     1.0000 0.45353  0.52317  0.85067  Biso   1.000  C
  C339     1.0000 0.46073  0.53027  0.83177  Biso   1.000  C
  C340     1.0000 0.44243  0.55877  0.82237  Biso   1.000  C
  C341     1.0000 0.91823  0.62757  0.01547  Biso   1.000  C
  C342     1.0000 0.58443  0.41087  0.91757  Biso   1.000  C
  C343     1.0000 0.56083  0.43867  0.92347  Biso   1.000  C
  C344     1.0000 0.53703  0.45517  0.91087  Biso   1.000  C
  C345     1.0000 0.53663  0.44377  0.89227  Biso   1.000  C
  C346     1.0000 0.56023  0.41597  0.88637  Biso   1.000  C
  C347     1.0000 0.58413  0.39947  0.89907  Biso   1.000  C
  C348     1.0000 0.89833  0.54067  0.01097  Biso   1.000  C
  C349     1.0000 0.89273  0.56907  0.03877  Biso   1.000  C
  C350     1.0000 0.71753  0.57997  0.02567  Biso   1.000  C
  C351     1.0000 0.94103  0.88697  0.09747  Biso   1.000  C
  C352     1.0000 0.97313  0.75017  0.06557  Biso   1.000  C
  C353     1.0000 0.02193  0.77897  0.07437  Biso   1.000  C
  C354     1.0000 0.97973  0.75087  0.04657  Biso   1.000  C
  C355     1.0000 0.94873  0.69857  0.07097  Biso   1.000  C
  C356     1.0000 0.80503  0.75467  0.06007  Biso   1.000  C
  C357     1.0000 0.70163  0.64257  0.03997  Biso   1.000  C
  C358     1.0000 0.64093  0.61337  0.03887  Biso   1.000  C
  C359     1.0000 0.61133  0.63047  0.05007  Biso   1.000  C
  C360     1.0000 0.64083  0.67807  0.06037  Biso   1.000  C
  C361     1.0000 0.69463  0.71977  0.05397  Biso   1.000  C
  C362     1.0000 0.72693  0.69637  0.04217  Biso   1.000  C
  C363     1.0000 0.39693  0.61157  0.82127  Biso   1.000  C
  C364     1.0000 0.49043  0.50817  0.82057  Biso   1.000  C
  C365     1.0000 0.48233  0.45897  0.82467  Biso   1.000  C
  C366     1.0000 0.54433  0.54167  0.82107  Biso   1.000  C
  C367     1.0000 0.47733  0.50667  0.80167  Biso   1.000  C
  C368     1.0000 0.42003  0.54167  0.87937  Biso   1.000  C
  C369     1.0000 0.61133  0.39157  0.93097  Biso   1.000  C
  C370     1.0000 0.56303  0.40037  0.86597  Biso   1.000  C
  C371     1.0000 0.51433  0.35667  0.86127  Biso   1.000  C
  C372     1.0000 0.60003  0.38337  0.86407  Biso   1.000  C
  C373     1.0000 0.57733  0.44097  0.85327  Biso   1.000  C
  C374     1.0000 0.51573  0.48427  0.91877  Biso   1.000  C
  C375     1.0000 0.46113  0.55947  0.90937  Biso   1.000  C
  C376     1.0000 0.45323  0.60657  0.91627  Biso   1.000  C
  C377     1.0000 0.48423  0.63807  0.93237  Biso   1.000  C
  C378     1.0000 0.49703  0.61037  0.94577  Biso   1.000  C
  C379     1.0000 0.50243  0.56277  0.94057  Biso   1.000  C
  C380     1.0000 0.50403  0.56047  0.91787  Biso   1.000  C
  Cl11     1.0000 0.84893  0.72557  0.01097  Biso   1.000  Cl
  Cl12     1.0000 0.58633  0.59057  0.87517  Biso   1.000  Cl
  Mn11     1.0000 0.81093  0.67697  0.03555  Biso   1.000  Mn
  Mn12     1.0000 0.50833  0.52377  0.88185  Biso   1.000  Mn
  N21      1.0000 0.73393  0.62857  0.03147  Biso   1.000  N
  N22      1.0000 0.77963  0.71457  0.04857  Biso   1.000  N
  N23      1.0000 0.46073  0.55087  0.89077  Biso   1.000  N
  N24      1.0000 0.51883  0.52557  0.90987  Biso   1.000  N
  O61      1.0000 0.67253  0.43117  0.98137  Biso   1.000  O
  O62      1.0000 0.74963  0.42427  0.98267  Biso   1.000  O
  O63      1.0000 0.83343  0.62577  0.03537  Biso   1.000  O
  O64      1.0000 0.90933  0.90147  0.10397  Biso   1.000  O
  O65      1.0000 0.99303  0.90717  0.09917  Biso   1.000  O
  O66      1.0000 0.87193  0.70547  0.05037  Biso   1.000  O
  O67      1.0000 0.37373  0.63647  0.82897  Biso   1.000  O
  O68      1.0000 0.40263  0.61527  0.80277  Biso   1.000  O
  O69      1.0000 0.47343  0.49267  0.85967  Biso   1.000  O
  O70      1.0000 0.60863  0.39627  0.94887  Biso   1.000  O
  O71      1.0000 0.63703  0.37167  0.92247  Biso   1.000  O
  O72      1.0000 0.51183  0.46207  0.87907  Biso   1.000  O
  Zn11     1.0000 0.63375  0.37182  0.96719  Biso   1.000  Zn
  Zn12     1.0000 0.36791  0.63040  0.78270  Biso   1.000  Zn
  C381     1.0000 0.66083  0.86327  0.20257  Biso   1.000  C
  C382     1.0000 0.79953  0.64517  0.05347  Biso   1.000  C
  C383     1.0000 0.65243  0.80357  0.19837  Biso   1.000  C
  C384     1.0000 0.83723  0.65057  0.04867  Biso   1.000  C
  C385     1.0000 0.17110  0.58830  0.33361  Biso   1.000  C
  C386     1.0000 0.14750  0.53860  0.34110  Biso   1.000  C
  C387     1.0000 0.10470  0.52190  0.35260  Biso   1.000  C
  C388     1.0000 0.08530  0.55490  0.35660  Biso   1.000  C
  C389     1.0000 0.10890  0.60460  0.34910  Biso   1.000  C
  C390     1.0000 0.15180  0.62130  0.33760  Biso   1.000  C
  C391     1.0000 0.21880  0.60720  0.32070  Biso   1.000  C
  C392     1.0000 0.82820  0.41820  0.41834  Biso   1.000  C
  C393     1.0000 0.85120  0.39160  0.41080  Biso   1.000  C
  C394     1.0000 0.89480  0.41770  0.39960  Biso   1.000  C
  C395     1.0000 0.91530  0.47040  0.39600  Biso   1.000  C
  C396     1.0000 0.89230  0.49700  0.40350  Biso   1.000  C
  C397     1.0000 0.84870  0.47090  0.41470  Biso   1.000  C
  C398     1.0000 0.09080  0.64430  0.35340  Biso   1.000  C
  C399     1.0000 0.08640  0.17010  0.16530  Biso   1.000  C
  C400     1.0000 0.09350  0.17010  0.18420  Biso   1.000  C
  C401     1.0000 0.12200  0.21690  0.19350  Biso   1.000  C
  C402     1.0000 0.14350  0.26370  0.18400  Biso   1.000  C
  C403     1.0000 0.13640  0.26380  0.16510  Biso   1.000  C
  C404     1.0000 0.10790  0.21700  0.15570  Biso   1.000  C
  C405     1.0000 0.03910  0.62400  0.34880  Biso   1.000  C
  C406     1.0000 0.25580  0.50690  0.25090  Biso   1.000  C
  C407     1.0000 0.22800  0.45550  0.25680  Biso   1.000  C
  C408     1.0000 0.21150  0.41520  0.24420  Biso   1.000  C
  C409     1.0000 0.22290  0.42620  0.22560  Biso   1.000  C
  C410     1.0000 0.25070  0.47760  0.21970  Biso   1.000  C
  C411     1.0000 0.26720  0.51800  0.23240  Biso   1.000  C
  C412     1.0000 0.12600  0.69100  0.34430  Biso   1.000  C
  C413     1.0000 0.09760  0.65700  0.37210  Biso   1.000  C
  C414     1.0000 0.08670  0.47090  0.35900  Biso   1.000  C
  C415     1.0000 0.77970  0.38740  0.43080  Biso   1.000  C
  C416     1.0000 0.91650  0.55630  0.39890  Biso   1.000  C
  C417     1.0000 0.88770  0.57630  0.40770  Biso   1.000  C
  C418     1.0000 0.91580  0.56220  0.37990  Biso   1.000  C
  C419     1.0000 0.96810  0.58350  0.40430  Biso   1.000  C
  C420     1.0000 0.91200  0.38370  0.39340  Biso   1.000  C
  C421     1.0000 0.02410  0.39240  0.37330  Biso   1.000  C
  C422     1.0000 0.05330  0.36090  0.37220  Biso   1.000  C
  C423     1.0000 0.03620  0.31420  0.38340  Biso   1.000  C
  C424     1.0000 0.98860  0.29610  0.39370  Biso   1.000  C
  C425     1.0000 0.94690  0.30820  0.38730  Biso   1.000  C
  C426     1.0000 0.97030  0.36390  0.37550  Biso   1.000  C
  C427     1.0000 0.05510  0.11870  0.15460  Biso   1.000  C
  C428     1.0000 0.15850  0.31560  0.15390  Biso   1.000  C
  C429     1.0000 0.20770  0.35670  0.15800  Biso   1.000  C
  C430     1.0000 0.12500  0.33600  0.15440  Biso   1.000  C
  C431     1.0000 0.16000  0.30400  0.13500  Biso   1.000  C
  C432     1.0000 0.12500  0.21170  0.21270  Biso   1.000  C
  C433     1.0000 0.27510  0.55310  0.26430  Biso   1.000  C
  C434     1.0000 0.26630  0.49600  0.19930  Biso   1.000  C
  C435     1.0000 0.31000  0.49100  0.19460  Biso   1.000  C
  C436     1.0000 0.28330  0.55000  0.19740  Biso   1.000  C
  C437     1.0000 0.22570  0.46970  0.18660  Biso   1.000  C
  C438     1.0000 0.18240  0.36480  0.25210  Biso   1.000  C
  C439     1.0000 0.10720  0.23500  0.24270  Biso   1.000  C
  C440     1.0000 0.06010  0.18000  0.24960  Biso   1.000  C
  C441     1.0000 0.02860  0.17950  0.26570  Biso   1.000  C
  C442     1.0000 0.05630  0.22000  0.27910  Biso   1.000  C
  C443     1.0000 0.10390  0.27300  0.27390  Biso   1.000  C
  C444     1.0000 0.10620  0.27690  0.25120  Biso   1.000  C
  Cl13     1.0000 0.94110  0.45670  0.34430  Biso   1.000  Cl
  Cl14     1.0000 0.07610  0.32910  0.20850  Biso   1.000  Cl
  Mn13     1.0000 0.98970  0.46730  0.36888  Biso   1.000  Mn
  Mn14     1.0000 0.14290  0.31790  0.21518  Biso   1.000  Mn
  N25      1.0000 0.03810  0.43870  0.36480  Biso   1.000  N
  N26      1.0000 0.95210  0.39840  0.38190  Biso   1.000  N
  N27      1.0000 0.11580  0.24320  0.22410  Biso   1.000  N
  N28      1.0000 0.14110  0.32660  0.24320  Biso   1.000  N
  O73      1.0000 0.23550  0.57470  0.31470  Biso   1.000  O
  O74      1.0000 0.24240  0.65870  0.31600  Biso   1.000  O
  O75      1.0000 0.04090  0.54100  0.36870  Biso   1.000  O
  O76      1.0000 0.76520  0.34120  0.43730  Biso   1.000  O
  O77      1.0000 0.75950  0.41920  0.43250  Biso   1.000  O
  O78      1.0000 0.96120  0.49980  0.38370  Biso   1.000  O
  O79      1.0000 0.03020  0.07060  0.16230  Biso   1.000  O
  O80      1.0000 0.05140  0.12070  0.13610  Biso   1.000  O
  O81      1.0000 0.17400  0.31410  0.19300  Biso   1.000  O
  O82      1.0000 0.27040  0.54570  0.28220  Biso   1.000  O
  O83      1.0000 0.29500  0.59870  0.25580  Biso   1.000  O
  O84      1.0000 0.20460  0.38310  0.21240  Biso   1.000  O
  Zn13     1.0000 0.29485  0.59527  0.30052  Biso   1.000  Zn
  Zn14     1.0000 0.03627  0.07085  0.11603  Biso   1.000  Zn
  C445     1.0000 0.80340  0.13090  0.53590  Biso   1.000  C
  C446     1.0000 0.02150  0.48770  0.38680  Biso   1.000  C
  C447     1.0000 0.86310  0.18220  0.53170  Biso   1.000  C
  C448     1.0000 0.01610  0.52000  0.38200  Biso   1.000  C
  C449     1.0000 0.83777  0.92163  0.66694  Biso   1.000  C
  C450     1.0000 0.81417  0.87193  0.67443  Biso   1.000  C
  C451     1.0000 0.77137  0.85523  0.68593  Biso   1.000  C
  C452     1.0000 0.75197  0.88823  0.68993  Biso   1.000  C
  C453     1.0000 0.77557  0.93793  0.68243  Biso   1.000  C
  C454     1.0000 0.81847  0.95463  0.67093  Biso   1.000  C
  C455     1.0000 0.88547  0.94053  0.65403  Biso   1.000  C
  C456     1.0000 0.49487  0.75153  0.75167  Biso   1.000  C
  C457     1.0000 0.51787  0.72493  0.74413  Biso   1.000  C
  C458     1.0000 0.56147  0.75103  0.73293  Biso   1.000  C
  C459     1.0000 0.58197  0.80373  0.72933  Biso   1.000  C
  C460     1.0000 0.55897  0.83033  0.73683  Biso   1.000  C
  C461     1.0000 0.51537  0.80423  0.74803  Biso   1.000  C
  C462     1.0000 0.75747  0.97763  0.68673  Biso   1.000  C
  C463     1.0000 0.75307  0.50343  0.49863  Biso   1.000  C
  C464     1.0000 0.76017  0.50343  0.51753  Biso   1.000  C
  C465     1.0000 0.78867  0.55023  0.52683  Biso   1.000  C
  C466     1.0000 0.81017  0.59703  0.51733  Biso   1.000  C
  C467     1.0000 0.80307  0.59713  0.49843  Biso   1.000  C
  C468     1.0000 0.77457  0.55033  0.48903  Biso   1.000  C
  C469     1.0000 0.70577  0.95733  0.68213  Biso   1.000  C
  C470     1.0000 0.92247  0.84023  0.58423  Biso   1.000  C
  C471     1.0000 0.89467  0.78883  0.59013  Biso   1.000  C
  C472     1.0000 0.87817  0.74853  0.57753  Biso   1.000  C
  C473     1.0000 0.88957  0.75953  0.55893  Biso   1.000  C
  C474     1.0000 0.91737  0.81093  0.55303  Biso   1.000  C
  C475     1.0000 0.93387  0.85133  0.56573  Biso   1.000  C
  C476     1.0000 0.79267  0.02433  0.67763  Biso   1.000  C
  C477     1.0000 0.76427  0.99033  0.70543  Biso   1.000  C
  C478     1.0000 0.75337  0.80423  0.69233  Biso   1.000  C
  C479     1.0000 0.44637  0.72073  0.76413  Biso   1.000  C
  C480     1.0000 0.58317  0.88963  0.73223  Biso   1.000  C
  C481     1.0000 0.55437  0.90963  0.74103  Biso   1.000  C
  C482     1.0000 0.58247  0.89553  0.71323  Biso   1.000  C
  C483     1.0000 0.63477  0.91683  0.73763  Biso   1.000  C
  C484     1.0000 0.57867  0.71703  0.72673  Biso   1.000  C
  C485     1.0000 0.69077  0.72573  0.70663  Biso   1.000  C
  C486     1.0000 0.71997  0.69423  0.70553  Biso   1.000  C
  C487     1.0000 0.70287  0.64753  0.71673  Biso   1.000  C
  C488     1.0000 0.65527  0.62943  0.72703  Biso   1.000  C
  C489     1.0000 0.61357  0.64153  0.72063  Biso   1.000  C
  C490     1.0000 0.63697  0.69723  0.70883  Biso   1.000  C
  C491     1.0000 0.72177  0.45203  0.48793  Biso   1.000  C
  C492     1.0000 0.82517  0.64893  0.48723  Biso   1.000  C
  C493     1.0000 0.87437  0.69003  0.49133  Biso   1.000  C
  C494     1.0000 0.79167  0.66933  0.48773  Biso   1.000  C
  C495     1.0000 0.82667  0.63733  0.46833  Biso   1.000  C
  C496     1.0000 0.79167  0.54503  0.54603  Biso   1.000  C
  C497     1.0000 0.94177  0.88643  0.59763  Biso   1.000  C
  C498     1.0000 0.93297  0.82933  0.53263  Biso   1.000  C
  C499     1.0000 0.97667  0.82433  0.52793  Biso   1.000  C
  C500     1.0000 0.94997  0.88333  0.53073  Biso   1.000  C
  C501     1.0000 0.89237  0.80303  0.51993  Biso   1.000  C
  C502     1.0000 0.84907  0.69813  0.58543  Biso   1.000  C
  C503     1.0000 0.77387  0.56833  0.57603  Biso   1.000  C
  C504     1.0000 0.72677  0.51333  0.58293  Biso   1.000  C
  C505     1.0000 0.69527  0.51283  0.59903  Biso   1.000  C
  C506     1.0000 0.72297  0.55333  0.61243  Biso   1.000  C
  C507     1.0000 0.77057  0.60633  0.60723  Biso   1.000  C
  C508     1.0000 0.77287  0.61023  0.58453  Biso   1.000  C
  Cl15     1.0000 0.60777  0.79003  0.67763  Biso   1.000  Cl
  Cl16     1.0000 0.74277  0.66243  0.54183  Biso   1.000  Cl
  Mn15     1.0000 0.65637  0.80063  0.70221  Biso   1.000  Mn
  Mn16     1.0000 0.80957  0.65123  0.54851  Biso   1.000  Mn
  N29      1.0000 0.70477  0.77203  0.69813  Biso   1.000  N
  N30      1.0000 0.61877  0.73173  0.71523  Biso   1.000  N
  N31      1.0000 0.78247  0.57653  0.55743  Biso   1.000  N
  N32      1.0000 0.80777  0.65993  0.57653  Biso   1.000  N
  O85      1.0000 0.90217  0.90803  0.64803  Biso   1.000  O
  O86      1.0000 0.90907  0.99203  0.64933  Biso   1.000  O
  O87      1.0000 0.70757  0.87433  0.70203  Biso   1.000  O
  O88      1.0000 0.43187  0.67453  0.77063  Biso   1.000  O
  O89      1.0000 0.42617  0.75253  0.76583  Biso   1.000  O
  O90      1.0000 0.62787  0.83313  0.71703  Biso   1.000  O
  O91      1.0000 0.69687  0.40393  0.49563  Biso   1.000  O
  O92      1.0000 0.71807  0.45403  0.46943  Biso   1.000  O
  O93      1.0000 0.84067  0.64743  0.52633  Biso   1.000  O
  O94      1.0000 0.93707  0.87903  0.61553  Biso   1.000  O
  O95      1.0000 0.96167  0.93203  0.58913  Biso   1.000  O
  O96      1.0000 0.87127  0.71643  0.54573  Biso   1.000  O
  Zn15     1.0000 0.96152  0.92860  0.63385  Biso   1.000  Zn
  Zn16     1.0000 0.70294  0.40418  0.44936  Biso   1.000  Zn
  C509     1.0000 0.47007  0.46423  0.86923  Biso   1.000  C
  C510     1.0000 0.68817  0.82103  0.72013  Biso   1.000  C
  C511     1.0000 0.52977  0.51553  0.86503  Biso   1.000  C
  C512     1.0000 0.68277  0.85333  0.71533  Biso   1.000  C
  C513     1.0000 0.50443  0.25497  0.00028  Biso   1.000  C
  C514     1.0000 0.48083  0.20527  0.00777  Biso   1.000  C
  C515     1.0000 0.43803  0.18857  0.01927  Biso   1.000  C
  C516     1.0000 0.41863  0.22157  0.02327  Biso   1.000  C
  C517     1.0000 0.44223  0.27127  0.01577  Biso   1.000  C
  C518     1.0000 0.48513  0.28797  0.00427  Biso   1.000  C
  C519     1.0000 0.55213  0.27387  0.98737  Biso   1.000  C
  C520     1.0000 0.16153  0.08487  0.08501  Biso   1.000  C
  C521     1.0000 0.18453  0.05827  0.07747  Biso   1.000  C
  C522     1.0000 0.22813  0.08437  0.06627  Biso   1.000  C
  C523     1.0000 0.24863  0.13707  0.06267  Biso   1.000  C
  C524     1.0000 0.22563  0.16367  0.07017  Biso   1.000  C
  C525     1.0000 0.18203  0.13757  0.08137  Biso   1.000  C
  C526     1.0000 0.42413  0.31097  0.02007  Biso   1.000  C
  C527     1.0000 0.41973  0.83677  0.83197  Biso   1.000  C
  C528     1.0000 0.42683  0.83677  0.85087  Biso   1.000  C
  C529     1.0000 0.45533  0.88357  0.86017  Biso   1.000  C
  C530     1.0000 0.47683  0.93037  0.85067  Biso   1.000  C
  C531     1.0000 0.46973  0.93047  0.83177  Biso   1.000  C
  C532     1.0000 0.44123  0.88367  0.82237  Biso   1.000  C
  C533     1.0000 0.37243  0.29067  0.01547  Biso   1.000  C
  C534     1.0000 0.58913  0.17357  0.91757  Biso   1.000  C
  C535     1.0000 0.56133  0.12217  0.92347  Biso   1.000  C
  C536     1.0000 0.54483  0.08187  0.91087  Biso   1.000  C
  C537     1.0000 0.55623  0.09287  0.89227  Biso   1.000  C
  C538     1.0000 0.58403  0.14427  0.88637  Biso   1.000  C
  C539     1.0000 0.60053  0.18467  0.89907  Biso   1.000  C
  C540     1.0000 0.45933  0.35767  0.01097  Biso   1.000  C
  C541     1.0000 0.43093  0.32367  0.03877  Biso   1.000  C
  C542     1.0000 0.42003  0.13757  0.02567  Biso   1.000  C
  C543     1.0000 0.11303  0.05407  0.09747  Biso   1.000  C
  C544     1.0000 0.24983  0.22297  0.06557  Biso   1.000  C
  C545     1.0000 0.22103  0.24297  0.07437  Biso   1.000  C
  C546     1.0000 0.24913  0.22887  0.04657  Biso   1.000  C
  C547     1.0000 0.30143  0.25017  0.07097  Biso   1.000  C
  C548     1.0000 0.24533  0.05037  0.06007  Biso   1.000  C
  C549     1.0000 0.35743  0.05907  0.03997  Biso   1.000  C
  C550     1.0000 0.38663  0.02757  0.03887  Biso   1.000  C
  C551     1.0000 0.36953  0.98087  0.05007  Biso   1.000  C
  C552     1.0000 0.32193  0.96277  0.06037  Biso   1.000  C
  C553     1.0000 0.28023  0.97487  0.05397  Biso   1.000  C
  C554     1.0000 0.30363  0.03057  0.04217  Biso   1.000  C
  C555     1.0000 0.38843  0.78537  0.82127  Biso   1.000  C
  C556     1.0000 0.49183  0.98227  0.82057  Biso   1.000  C
  C557     1.0000 0.54103  0.02337  0.82467  Biso   1.000  C
  C558     1.0000 0.45833  0.00267  0.82107  Biso   1.000  C
  C559     1.0000 0.49333  0.97067  0.80167  Biso   1.000  C
  C560     1.0000 0.45833  0.87837  0.87937  Biso   1.000  C
  C561     1.0000 0.60843  0.21977  0.93097  Biso   1.000  C
  C562     1.0000 0.59963  0.16267  0.86597  Biso   1.000  C
  C563     1.0000 0.64333  0.15767  0.86127  Biso   1.000  C
  C564     1.0000 0.61663  0.21667  0.86407  Biso   1.000  C
  C565     1.0000 0.55903  0.13637  0.85327  Biso   1.000  C
  C566     1.0000 0.51573  0.03147  0.91877  Biso   1.000  C
  C567     1.0000 0.44053  0.90167  0.90937  Biso   1.000  C
  C568     1.0000 0.39343  0.84667  0.91627  Biso   1.000  C
  C569     1.0000 0.36193  0.84617  0.93237  Biso   1.000  C
  C570     1.0000 0.38963  0.88667  0.94577  Biso   1.000  C
  C571     1.0000 0.43723  0.93967  0.94057  Biso   1.000  C
  C572     1.0000 0.43953  0.94357  0.91787  Biso   1.000  C
  Cl17     1.0000 0.27443  0.12337  0.01097  Biso   1.000  Cl
  Cl18     1.0000 0.40943  0.99577  0.87517  Biso   1.000  Cl
  Mn17     1.0000 0.32303  0.13397  0.03555  Biso   1.000  Mn
  Mn18     1.0000 0.47623  0.98457  0.88185  Biso   1.000  Mn
  N33      1.0000 0.37143  0.10537  0.03147  Biso   1.000  N
  N34      1.0000 0.28543  0.06507  0.04857  Biso   1.000  N
  N35      1.0000 0.44913  0.90987  0.89077  Biso   1.000  N
  N36      1.0000 0.47443  0.99327  0.90987  Biso   1.000  N
  O97      1.0000 0.56883  0.24137  0.98137  Biso   1.000  O
  O98      1.0000 0.57573  0.32537  0.98267  Biso   1.000  O
  O99      1.0000 0.37423  0.20767  0.03537  Biso   1.000  O
  O100     1.0000 0.09853  0.00787  0.10397  Biso   1.000  O
  O101     1.0000 0.09283  0.08587  0.09917  Biso   1.000  O
  O102     1.0000 0.29453  0.16647  0.05037  Biso   1.000  O
  O103     1.0000 0.36353  0.73727  0.82897  Biso   1.000  O
  O104     1.0000 0.38473  0.78737  0.80277  Biso   1.000  O
  O105     1.0000 0.50733  0.98077  0.85967  Biso   1.000  O
  O106     1.0000 0.60373  0.21237  0.94887  Biso   1.000  O
  O107     1.0000 0.62833  0.26537  0.92247  Biso   1.000  O
  O108     1.0000 0.53793  0.04977  0.87907  Biso   1.000  O
  Zn17     1.0000 0.62818  0.26194  0.96719  Biso   1.000  Zn
  Zn18     1.0000 0.36960  0.73752  0.78270  Biso   1.000  Zn
  C573     1.0000 0.13673  0.79757  0.20257  Biso   1.000  C
  C574     1.0000 0.35483  0.15437  0.05347  Biso   1.000  C
  C575     1.0000 0.19643  0.84887  0.19837  Biso   1.000  C
  C576     1.0000 0.34943  0.18667  0.04867  Biso   1.000  C
  Zn19     1.0000 0.00000  0.00000  0.15177  Biso   1.000  Zn
  O109     1.0000 0.00000  0.00000  0.12490  Biso   1.000  O
  Zn20     1.0000 0.66667  0.33333  0.48510  Biso   1.000  Zn
  O110     1.0000 0.66667  0.33333  0.45823  Biso   1.000  O
  Zn21     1.0000 0.33333  0.66667  0.81844  Biso   1.000  Zn
  O111     1.0000 0.33333  0.66667  0.79157  Biso   1.000  O
  Zn22     1.0000 0.33333  0.66667  0.26516  Biso   1.000  Zn
  O112     1.0000 0.33333  0.66667  0.29080  Biso   1.000  O
  Zn23     1.0000 0.00000  0.00000  0.59849  Biso   1.000  Zn
  O113     1.0000 0.00000  0.00000  0.62413  Biso   1.000  O
  Zn24     1.0000 0.66667  0.33333  0.93183  Biso   1.000  Zn
  O114     1.0000 0.66667  0.33333  0.95747  Biso   1.000  O
  C577     1.0000 0.58280  0.41170  0.66639  Biso   1.000  C
  C578     1.0000 0.60890  0.46140  0.65890  Biso   1.000  C
  C579     1.0000 0.58280  0.47810  0.64740  Biso   1.000  C
  C580     1.0000 0.53040  0.44510  0.64340  Biso   1.000  C
  C581     1.0000 0.50430  0.39540  0.65090  Biso   1.000  C
  C582     1.0000 0.53050  0.37870  0.66240  Biso   1.000  C
  C583     1.0000 0.61160  0.39280  0.67930  Biso   1.000  C
  C584     1.0000 0.41000  0.58180  0.58166  Biso   1.000  C
  C585     1.0000 0.45960  0.60840  0.58920  Biso   1.000  C
  C586     1.0000 0.47710  0.58230  0.60040  Biso   1.000  C
  C587     1.0000 0.44490  0.52960  0.60400  Biso   1.000  C
  C588     1.0000 0.39530  0.50300  0.59650  Biso   1.000  C
  C589     1.0000 0.37780  0.52910  0.58530  Biso   1.000  C
  C590     1.0000 0.44650  0.35570  0.64660  Biso   1.000  C
  C591     1.0000 0.91630  0.82990  0.83470  Biso   1.000  C
  C592     1.0000 0.92340  0.82990  0.81580  Biso   1.000  C
  C593     1.0000 0.90510  0.78310  0.80650  Biso   1.000  C
  C594     1.0000 0.87980  0.73630  0.81600  Biso   1.000  C
  C595     1.0000 0.87260  0.73620  0.83490  Biso   1.000  C
  C596     1.0000 0.89090  0.78300  0.84430  Biso   1.000  C
  C597     1.0000 0.41510  0.37600  0.65120  Biso   1.000  C
  C598     1.0000 0.74890  0.49310  0.74910  Biso   1.000  C
  C599     1.0000 0.77250  0.54450  0.74320  Biso   1.000  C
  C600     1.0000 0.79630  0.58480  0.75580  Biso   1.000  C
  C601     1.0000 0.79670  0.57380  0.77440  Biso   1.000  C
  C602     1.0000 0.77310  0.52240  0.78030  Biso   1.000  C
  C603     1.0000 0.74920  0.48200  0.76760  Biso   1.000  C
  C604     1.0000 0.43500  0.30900  0.65570  Biso   1.000  C
  C605     1.0000 0.44060  0.34300  0.62790  Biso   1.000  C
  C606     1.0000 0.61580  0.52910  0.64100  Biso   1.000  C
  C607     1.0000 0.39230  0.61260  0.56920  Biso   1.000  C
  C608     1.0000 0.36020  0.44370  0.60110  Biso   1.000  C
  C609     1.0000 0.31140  0.42370  0.59230  Biso   1.000  C
  C610     1.0000 0.35360  0.43780  0.62010  Biso   1.000  C
  C611     1.0000 0.38460  0.41650  0.59570  Biso   1.000  C
  C612     1.0000 0.52830  0.61630  0.60660  Biso   1.000  C
  C613     1.0000 0.63170  0.60760  0.62670  Biso   1.000  C
  C614     1.0000 0.69240  0.63910  0.62780  Biso   1.000  C
  C615     1.0000 0.72200  0.68580  0.61660  Biso   1.000  C
  C616     1.0000 0.69250  0.70390  0.60630  Biso   1.000  C
  C617     1.0000 0.63870  0.69180  0.61270  Biso   1.000  C
  C618     1.0000 0.60640  0.63610  0.62450  Biso   1.000  C
  C619     1.0000 0.93640  0.88130  0.84540  Biso   1.000  C
  C620     1.0000 0.84290  0.68440  0.84610  Biso   1.000  C
  C621     1.0000 0.85100  0.64330  0.84200  Biso   1.000  C
  C622     1.0000 0.78900  0.66400  0.84560  Biso   1.000  C
  C623     1.0000 0.85600  0.69600  0.86500  Biso   1.000  C
  C624     1.0000 0.91330  0.78830  0.78730  Biso   1.000  C
  C625     1.0000 0.72200  0.44690  0.73570  Biso   1.000  C
  C626     1.0000 0.77030  0.50400  0.80070  Biso   1.000  C
  C627     1.0000 0.81900  0.50900  0.80540  Biso   1.000  C
  C628     1.0000 0.73330  0.45000  0.80260  Biso   1.000  C
  C629     1.0000 0.75600  0.53030  0.81340  Biso   1.000  C
  C630     1.0000 0.81760  0.63520  0.74790  Biso   1.000  C
  C631     1.0000 0.87220  0.76500  0.75730  Biso   1.000  C
  C632     1.0000 0.88010  0.82000  0.75040  Biso   1.000  C
  C633     1.0000 0.84910  0.82050  0.73430  Biso   1.000  C
  C634     1.0000 0.83630  0.78000  0.72090  Biso   1.000  C
  C635     1.0000 0.83090  0.72700  0.72610  Biso   1.000  C
  C636     1.0000 0.82930  0.72310  0.74880  Biso   1.000  C
  Cl19     1.0000 0.48440  0.54330  0.65570  Biso   1.000  Cl
  Cl20     1.0000 0.74700  0.67090  0.79150  Biso   1.000  Cl
  Mn19     1.0000 0.52240  0.53270  0.63112  Biso   1.000  Mn
  Mn20     1.0000 0.82500  0.68210  0.78482  Biso   1.000  Mn
  N37      1.0000 0.59940  0.56130  0.63520  Biso   1.000  N
  N38      1.0000 0.55370  0.60160  0.61810  Biso   1.000  N
  N39      1.0000 0.87260  0.75680  0.77590  Biso   1.000  N
  N40      1.0000 0.81450  0.67340  0.75680  Biso   1.000  N
  O115     1.0000 0.66080  0.42530  0.68530  Biso   1.000  O
  O116     1.0000 0.58370  0.34130  0.68400  Biso   1.000  O
  O117     1.0000 0.49990  0.45900  0.63130  Biso   1.000  O
  O118     1.0000 0.42400  0.65880  0.56270  Biso   1.000  O
  O119     1.0000 0.34030  0.58080  0.56750  Biso   1.000  O
  O120     1.0000 0.46140  0.50020  0.61630  Biso   1.000  O
  O121     1.0000 0.95960  0.92940  0.83770  Biso   1.000  O
  O122     1.0000 0.93070  0.87930  0.86390  Biso   1.000  O
  O123     1.0000 0.85990  0.68590  0.80700  Biso   1.000  O
  O124     1.0000 0.72470  0.45430  0.71780  Biso   1.000  O
  O125     1.0000 0.69630  0.40130  0.74420  Biso   1.000  O
  O126     1.0000 0.82150  0.61690  0.78760  Biso   1.000  O
  Zn25     1.0000 0.69958  0.40473  0.69948  Biso   1.000  Zn
  Zn26     1.0000 0.96542  0.92915  0.88397  Biso   1.000  Zn
  C637     1.0000 0.67250  0.86910  0.46410  Biso   1.000  C
  C638     1.0000 0.53380  0.51230  0.61320  Biso   1.000  C
  C639     1.0000 0.68090  0.81780  0.46830  Biso   1.000  C
  C640     1.0000 0.49610  0.48000  0.61800  Biso   1.000  C
  C641     1.0000 0.24947  0.74503  0.99972  Biso   1.000  C
  C642     1.0000 0.27557  0.79473  0.99223  Biso   1.000  C
  C643     1.0000 0.24947  0.81143  0.98073  Biso   1.000  C
  C644     1.0000 0.19707  0.77843  0.97673  Biso   1.000  C
  C645     1.0000 0.17097  0.72873  0.98423  Biso   1.000  C
  C646     1.0000 0.19717  0.71203  0.99573  Biso   1.000  C
  C647     1.0000 0.27827  0.72613  0.01263  Biso   1.000  C
  C648     1.0000 0.07667  0.91513  0.91499  Biso   1.000  C
  C649     1.0000 0.12627  0.94173  0.92253  Biso   1.000  C
  C650     1.0000 0.14377  0.91563  0.93373  Biso   1.000  C
  C651     1.0000 0.11157  0.86293  0.93733  Biso   1.000  C
  C652     1.0000 0.06197  0.83633  0.92983  Biso   1.000  C
  C653     1.0000 0.04447  0.86243  0.91863  Biso   1.000  C
  C654     1.0000 0.11317  0.68903  0.97993  Biso   1.000  C
  C655     1.0000 0.58297  0.16323  0.16803  Biso   1.000  C
  C656     1.0000 0.59007  0.16323  0.14913  Biso   1.000  C
  C657     1.0000 0.57177  0.11643  0.13983  Biso   1.000  C
  C658     1.0000 0.54647  0.06963  0.14933  Biso   1.000  C
  C659     1.0000 0.53927  0.06953  0.16823  Biso   1.000  C
  C660     1.0000 0.55757  0.11633  0.17763  Biso   1.000  C
  C661     1.0000 0.08177  0.70933  0.98453  Biso   1.000  C
  C662     1.0000 0.41557  0.82643  0.08243  Biso   1.000  C
  C663     1.0000 0.43917  0.87783  0.07653  Biso   1.000  C
  C664     1.0000 0.46297  0.91813  0.08913  Biso   1.000  C
  C665     1.0000 0.46337  0.90713  0.10773  Biso   1.000  C
  C666     1.0000 0.43977  0.85573  0.11363  Biso   1.000  C
  C667     1.0000 0.41587  0.81533  0.10093  Biso   1.000  C
  C668     1.0000 0.10167  0.64233  0.98903  Biso   1.000  C
  C669     1.0000 0.10727  0.67633  0.96123  Biso   1.000  C
  C670     1.0000 0.28247  0.86243  0.97433  Biso   1.000  C
  C671     1.0000 0.05897  0.94593  0.90253  Biso   1.000  C
  C672     1.0000 0.02687  0.77703  0.93443  Biso   1.000  C
  C673     1.0000 0.97807  0.75703  0.92563  Biso   1.000  C
  C674     1.0000 0.02027  0.77113  0.95343  Biso   1.000  C
  C675     1.0000 0.05127  0.74983  0.92903  Biso   1.000  C
  C676     1.0000 0.19497  0.94963  0.93993  Biso   1.000  C
  C677     1.0000 0.29837  0.94093  0.96003  Biso   1.000  C
  C678     1.0000 0.35907  0.97243  0.96113  Biso   1.000  C
  C679     1.0000 0.38867  0.01913  0.94993  Biso   1.000  C
  C680     1.0000 0.35917  0.03723  0.93963  Biso   1.000  C
  C681     1.0000 0.30537  0.02513  0.94603  Biso   1.000  C
  C682     1.0000 0.27307  0.96943  0.95783  Biso   1.000  C
  C683     1.0000 0.60307  0.21463  0.17873  Biso   1.000  C
  C684     1.0000 0.50957  0.01773  0.17943  Biso   1.000  C
  C685     1.0000 0.51767  0.97663  0.17533  Biso   1.000  C
  C686     1.0000 0.45567  0.99733  0.17893  Biso   1.000  C
  C687     1.0000 0.52267  0.02933  0.19833  Biso   1.000  C
  C688     1.0000 0.57997  0.12163  0.12063  Biso   1.000  C
  C689     1.0000 0.38867  0.78023  0.06903  Biso   1.000  C
  C690     1.0000 0.43697  0.83733  0.13403  Biso   1.000  C
  C691     1.0000 0.48567  0.84233  0.13873  Biso   1.000  C
  C692     1.0000 0.39997  0.78333  0.13593  Biso   1.000  C
  C693     1.0000 0.42267  0.86363  0.14673  Biso   1.000  C
  C694     1.0000 0.48427  0.96853  0.08123  Biso   1.000  C
  C695     1.0000 0.53887  0.09833  0.09063  Biso   1.000  C
  C696     1.0000 0.54677  0.15333  0.08373  Biso   1.000  C
  C697     1.0000 0.51577  0.15383  0.06763  Biso   1.000  C
  C698     1.0000 0.50297  0.11333  0.05423  Biso   1.000  C
  C699     1.0000 0.49757  0.06033  0.05943  Biso   1.000  C
  C700     1.0000 0.49597  0.05643  0.08213  Biso   1.000  C
  Cl21     1.0000 0.15107  0.87663  0.98903  Biso   1.000  Cl
  Cl22     1.0000 0.41367  0.00423  0.12483  Biso   1.000  Cl
  Mn21     1.0000 0.18907  0.86603  0.96445  Biso   1.000  Mn
  Mn22     1.0000 0.49167  0.01543  0.11815  Biso   1.000  Mn
  N41      1.0000 0.26607  0.89463  0.96853  Biso   1.000  N
  N42      1.0000 0.22037  0.93493  0.95143  Biso   1.000  N
  N43      1.0000 0.53927  0.09013  0.10923  Biso   1.000  N
  N44      1.0000 0.48117  0.00673  0.09013  Biso   1.000  N
  O127     1.0000 0.32747  0.75863  0.01863  Biso   1.000  O
  O128     1.0000 0.25037  0.67463  0.01733  Biso   1.000  O
  O129     1.0000 0.16657  0.79233  0.96463  Biso   1.000  O
  O130     1.0000 0.09067  0.99213  0.89603  Biso   1.000  O
  O131     1.0000 0.00697  0.91413  0.90083  Biso   1.000  O
  O132     1.0000 0.12807  0.83353  0.94963  Biso   1.000  O
  O133     1.0000 0.62627  0.26273  0.17103  Biso   1.000  O
  O134     1.0000 0.59737  0.21263  0.19723  Biso   1.000  O
  O135     1.0000 0.52657  0.01923  0.14033  Biso   1.000  O
  O136     1.0000 0.39137  0.78763  0.05113  Biso   1.000  O
  O137     1.0000 0.36297  0.73463  0.07753  Biso   1.000  O
  O138     1.0000 0.48817  0.95023  0.12093  Biso   1.000  O
  Zn27     1.0000 0.36625  0.73806  0.03281  Biso   1.000  Zn
  Zn28     1.0000 0.63209  0.26248  0.21730  Biso   1.000  Zn
  C701     1.0000 0.33917  0.20243  0.79743  Biso   1.000  C
  C702     1.0000 0.20047  0.84563  0.94653  Biso   1.000  C
  C703     1.0000 0.34757  0.15113  0.80163  Biso   1.000  C
  C704     1.0000 0.16277  0.81333  0.95133  Biso   1.000  C
  C705     1.0000 0.91613  0.07837  0.33306  Biso   1.000  C
  C706     1.0000 0.94223  0.12807  0.32557  Biso   1.000  C
  C707     1.0000 0.91613  0.14477  0.31407  Biso   1.000  C
  C708     1.0000 0.86373  0.11177  0.31007  Biso   1.000  C
  C709     1.0000 0.83763  0.06207  0.31757  Biso   1.000  C
  C710     1.0000 0.86383  0.04537  0.32907  Biso   1.000  C
  C711     1.0000 0.94493  0.05947  0.34597  Biso   1.000  C
  C712     1.0000 0.74333  0.24847  0.24833  Biso   1.000  C
  C713     1.0000 0.79293  0.27507  0.25587  Biso   1.000  C
  C714     1.0000 0.81043  0.24897  0.26707  Biso   1.000  C
  C715     1.0000 0.77823  0.19627  0.27067  Biso   1.000  C
  C716     1.0000 0.72863  0.16967  0.26317  Biso   1.000  C
  C717     1.0000 0.71113  0.19577  0.25197  Biso   1.000  C
  C718     1.0000 0.77983  0.02237  0.31327  Biso   1.000  C
  C719     1.0000 0.24963  0.49657  0.50137  Biso   1.000  C
  C720     1.0000 0.25673  0.49657  0.48247  Biso   1.000  C
  C721     1.0000 0.23843  0.44977  0.47317  Biso   1.000  C
  C722     1.0000 0.21313  0.40297  0.48267  Biso   1.000  C
  C723     1.0000 0.20593  0.40287  0.50157  Biso   1.000  C
  C724     1.0000 0.22423  0.44967  0.51097  Biso   1.000  C
  C725     1.0000 0.74843  0.04267  0.31787  Biso   1.000  C
  C726     1.0000 0.08223  0.15977  0.41577  Biso   1.000  C
  C727     1.0000 0.10583  0.21117  0.40987  Biso   1.000  C
  C728     1.0000 0.12963  0.25147  0.42247  Biso   1.000  C
  C729     1.0000 0.13003  0.24047  0.44107  Biso   1.000  C
  C730     1.0000 0.10643  0.18907  0.44697  Biso   1.000  C
  C731     1.0000 0.08253  0.14867  0.43427  Biso   1.000  C
  C732     1.0000 0.76833  0.97567  0.32237  Biso   1.000  C
  C733     1.0000 0.77393  0.00967  0.29457  Biso   1.000  C
  C734     1.0000 0.94913  0.19577  0.30767  Biso   1.000  C
  C735     1.0000 0.72563  0.27927  0.23587  Biso   1.000  C
  C736     1.0000 0.69353  0.11037  0.26777  Biso   1.000  C
  C737     1.0000 0.64473  0.09037  0.25897  Biso   1.000  C
  C738     1.0000 0.68693  0.10447  0.28677  Biso   1.000  C
  C739     1.0000 0.71793  0.08317  0.26237  Biso   1.000  C
  C740     1.0000 0.86163  0.28297  0.27327  Biso   1.000  C
  C741     1.0000 0.96503  0.27427  0.29337  Biso   1.000  C
  C742     1.0000 0.02573  0.30577  0.29447  Biso   1.000  C
  C743     1.0000 0.05533  0.35247  0.28327  Biso   1.000  C
  C744     1.0000 0.02583  0.37057  0.27297  Biso   1.000  C
  C745     1.0000 0.97203  0.35847  0.27937  Biso   1.000  C
  C746     1.0000 0.93973  0.30277  0.29117  Biso   1.000  C
  C747     1.0000 0.26973  0.54797  0.51207  Biso   1.000  C
  C748     1.0000 0.17623  0.35107  0.51277  Biso   1.000  C
  C749     1.0000 0.18433  0.30997  0.50867  Biso   1.000  C
  C750     1.0000 0.12233  0.33067  0.51227  Biso   1.000  C
  C751     1.0000 0.18933  0.36267  0.53167  Biso   1.000  C
  C752     1.0000 0.24663  0.45497  0.45397  Biso   1.000  C
  C753     1.0000 0.05533  0.11357  0.40237  Biso   1.000  C
  C754     1.0000 0.10363  0.17067  0.46737  Biso   1.000  C
  C755     1.0000 0.15233  0.17567  0.47207  Biso   1.000  C
  C756     1.0000 0.06663  0.11667  0.46927  Biso   1.000  C
  C757     1.0000 0.08933  0.19697  0.48007  Biso   1.000  C
  C758     1.0000 0.15093  0.30187  0.41457  Biso   1.000  C
  C759     1.0000 0.20553  0.43167  0.42397  Biso   1.000  C
  C760     1.0000 0.21343  0.48667  0.41707  Biso   1.000  C
  C761     1.0000 0.18243  0.48717  0.40097  Biso   1.000  C
  C762     1.0000 0.16963  0.44667  0.38757  Biso   1.000  C
  C763     1.0000 0.16423  0.39367  0.39277  Biso   1.000  C
  C764     1.0000 0.16263  0.38977  0.41547  Biso   1.000  C
  Cl23     1.0000 0.81773  0.20997  0.32237  Biso   1.000  Cl
  Cl24     1.0000 0.08033  0.33757  0.45817  Biso   1.000  Cl
  Mn23     1.0000 0.85573  0.19937  0.29779  Biso   1.000  Mn
  Mn24     1.0000 0.15833  0.34877  0.45149  Biso   1.000  Mn
  N45      1.0000 0.93273  0.22797  0.30187  Biso   1.000  N
  N46      1.0000 0.88703  0.26827  0.28477  Biso   1.000  N
  N47      1.0000 0.20593  0.42347  0.44257  Biso   1.000  N
  N48      1.0000 0.14783  0.34007  0.42347  Biso   1.000  N
  O139     1.0000 0.99413  0.09197  0.35197  Biso   1.000  O
  O140     1.0000 0.91703  0.00797  0.35067  Biso   1.000  O
  O141     1.0000 0.83323  0.12567  0.29797  Biso   1.000  O
  O142     1.0000 0.75733  0.32547  0.22937  Biso   1.000  O
  O143     1.0000 0.67363  0.24747  0.23417  Biso   1.000  O
  O144     1.0000 0.79473  0.16687  0.28297  Biso   1.000  O
  O145     1.0000 0.29293  0.59607  0.50437  Biso   1.000  O
  O146     1.0000 0.26403  0.54597  0.53057  Biso   1.000  O
  O147     1.0000 0.19323  0.35257  0.47367  Biso   1.000  O
  O148     1.0000 0.05803  0.12097  0.38447  Biso   1.000  O
  O149     1.0000 0.02963  0.06797  0.41087  Biso   1.000  O
  O150     1.0000 0.15483  0.28357  0.45427  Biso   1.000  O
  Zn29     1.0000 0.03291  0.07140  0.36615  Biso   1.000  Zn
  Zn30     1.0000 0.29875  0.59582  0.55064  Biso   1.000  Zn
  C765     1.0000 0.00583  0.53577  0.13077  Biso   1.000  C
  C766     1.0000 0.86713  0.17897  0.27987  Biso   1.000  C
  C767     1.0000 0.01423  0.48447  0.13497  Biso   1.000  C
  C768     1.0000 0.82943  0.14667  0.28467  Biso   1.000  C
  C769     1.0000 0.82890  0.41720  0.66639  Biso   1.000  C
  C770     1.0000 0.85250  0.39110  0.65890  Biso   1.000  C
  C771     1.0000 0.89530  0.41720  0.64740  Biso   1.000  C
  C772     1.0000 0.91470  0.46960  0.64340  Biso   1.000  C
  C773     1.0000 0.89110  0.49570  0.65090  Biso   1.000  C
  C774     1.0000 0.84820  0.46950  0.66240  Biso   1.000  C
  C775     1.0000 0.78120  0.38840  0.67930  Biso   1.000  C
  C776     1.0000 0.17180  0.59000  0.58166  Biso   1.000  C
  C777     1.0000 0.14880  0.54040  0.58920  Biso   1.000  C
  C778     1.0000 0.10520  0.52290  0.60040  Biso   1.000  C
  C779     1.0000 0.08470  0.55510  0.60400  Biso   1.000  C
  C780     1.0000 0.10770  0.60470  0.59650  Biso   1.000  C
  C781     1.0000 0.15130  0.62220  0.58530  Biso   1.000  C
  C782     1.0000 0.90920  0.55350  0.64660  Biso   1.000  C
  C783     1.0000 0.91360  0.08370  0.83470  Biso   1.000  C
  C784     1.0000 0.90650  0.07660  0.81580  Biso   1.000  C
  C785     1.0000 0.87800  0.09490  0.80650  Biso   1.000  C
  C786     1.0000 0.85650  0.12020  0.81600  Biso   1.000  C
  C787     1.0000 0.86360  0.12740  0.83490  Biso   1.000  C
  C788     1.0000 0.89210  0.10910  0.84430  Biso   1.000  C
  C789     1.0000 0.96090  0.58490  0.65120  Biso   1.000  C
  C790     1.0000 0.74420  0.25110  0.74910  Biso   1.000  C
  C791     1.0000 0.77200  0.22750  0.74320  Biso   1.000  C
  C792     1.0000 0.78850  0.20370  0.75580  Biso   1.000  C
  C793     1.0000 0.77710  0.20330  0.77440  Biso   1.000  C
  C794     1.0000 0.74930  0.22690  0.78030  Biso   1.000  C
  C795     1.0000 0.73280  0.25080  0.76760  Biso   1.000  C
  C796     1.0000 0.87400  0.56500  0.65570  Biso   1.000  C
  C797     1.0000 0.90240  0.55940  0.62790  Biso   1.000  C
  C798     1.0000 0.91330  0.38420  0.64100  Biso   1.000  C
  C799     1.0000 0.22030  0.60770  0.56920  Biso   1.000  C
  C800     1.0000 0.08350  0.63980  0.60110  Biso   1.000  C
  C801     1.0000 0.11230  0.68860  0.59230  Biso   1.000  C
  C802     1.0000 0.08420  0.64640  0.62010  Biso   1.000  C
  C803     1.0000 0.03190  0.61540  0.59570  Biso   1.000  C
  C804     1.0000 0.08800  0.47170  0.60660  Biso   1.000  C
  C805     1.0000 0.97590  0.36830  0.62670  Biso   1.000  C
  C806     1.0000 0.94670  0.30760  0.62780  Biso   1.000  C
  C807     1.0000 0.96380  0.27800  0.61660  Biso   1.000  C
  C808     1.0000 0.01140  0.30750  0.60630  Biso   1.000  C
  C809     1.0000 0.05310  0.36130  0.61270  Biso   1.000  C
  C810     1.0000 0.02970  0.39360  0.62450  Biso   1.000  C
  C811     1.0000 0.94490  0.06360  0.84540  Biso   1.000  C
  C812     1.0000 0.84150  0.15710  0.84610  Biso   1.000  C
  C813     1.0000 0.79230  0.14900  0.84200  Biso   1.000  C
  C814     1.0000 0.87500  0.21100  0.84560  Biso   1.000  C
  C815     1.0000 0.84000  0.14400  0.86500  Biso   1.000  C
  C816     1.0000 0.87500  0.08670  0.78730  Biso   1.000  C
  C817     1.0000 0.72490  0.27800  0.73570  Biso   1.000  C
  C818     1.0000 0.73370  0.22970  0.80070  Biso   1.000  C
  C819     1.0000 0.69000  0.18100  0.80540  Biso   1.000  C
  C820     1.0000 0.71670  0.26670  0.80260  Biso   1.000  C
  C821     1.0000 0.77430  0.24400  0.81340  Biso   1.000  C
  C822     1.0000 0.81760  0.18240  0.74790  Biso   1.000  C
  C823     1.0000 0.89280  0.12780  0.75730  Biso   1.000  C
  C824     1.0000 0.93990  0.11990  0.75040  Biso   1.000  C
  C825     1.0000 0.97140  0.15090  0.73430  Biso   1.000  C
  C826     1.0000 0.94370  0.16370  0.72090  Biso   1.000  C
  C827     1.0000 0.89610  0.16910  0.72610  Biso   1.000  C
  C828     1.0000 0.89380  0.17070  0.74880  Biso   1.000  C
  Cl25     1.0000 0.05890  0.51560  0.65570  Biso   1.000  Cl
  Cl26     1.0000 0.92390  0.25300  0.79150  Biso   1.000  Cl
  Mn25     1.0000 0.01030  0.47760  0.63112  Biso   1.000  Mn
  Mn26     1.0000 0.85710  0.17500  0.78482  Biso   1.000  Mn
  N49      1.0000 0.96190  0.40060  0.63520  Biso   1.000  N
  N50      1.0000 0.04790  0.44630  0.61810  Biso   1.000  N
  N51      1.0000 0.88420  0.12740  0.77590  Biso   1.000  N
  N52      1.0000 0.85890  0.18550  0.75680  Biso   1.000  N
  O151     1.0000 0.76450  0.33920  0.68530  Biso   1.000  O
  O152     1.0000 0.75760  0.41630  0.68400  Biso   1.000  O
  O153     1.0000 0.95910  0.50010  0.63130  Biso   1.000  O
  O154     1.0000 0.23480  0.57600  0.56270  Biso   1.000  O
  O155     1.0000 0.24050  0.65970  0.56750  Biso   1.000  O
  O156     1.0000 0.03880  0.53860  0.61630  Biso   1.000  O
  O157     1.0000 0.96980  0.04040  0.83770  Biso   1.000  O
  O158     1.0000 0.94860  0.06930  0.86390  Biso   1.000  O
  O159     1.0000 0.82600  0.14010  0.80700  Biso   1.000  O
  O160     1.0000 0.72960  0.27530  0.71780  Biso   1.000  O
  O161     1.0000 0.70500  0.30370  0.74420  Biso   1.000  O
  O162     1.0000 0.79540  0.17850  0.78760  Biso   1.000  O
  Zn31     1.0000 0.70515  0.30042  0.69948  Biso   1.000  Zn
  Zn32     1.0000 0.96373  0.03458  0.88397  Biso   1.000  Zn
  C829     1.0000 0.19660  0.32750  0.46410  Biso   1.000  C
  C830     1.0000 0.97850  0.46620  0.61320  Biso   1.000  C
  C831     1.0000 0.13690  0.31910  0.46830  Biso   1.000  C
  C832     1.0000 0.98390  0.50390  0.61800  Biso   1.000  C
  C833     1.0000 0.49557  0.75053  0.99972  Biso   1.000  C
  C834     1.0000 0.51917  0.72443  0.99223  Biso   1.000  C
  C835     1.0000 0.56197  0.75053  0.98073  Biso   1.000  C
  C836     1.0000 0.58137  0.80293  0.97673  Biso   1.000  C
  C837     1.0000 0.55777  0.82903  0.98423  Biso   1.000  C
  C838     1.0000 0.51487  0.80283  0.99573  Biso   1.000  C
  C839     1.0000 0.44787  0.72173  0.01263  Biso   1.000  C
  C840     1.0000 0.83847  0.92333  0.91499  Biso   1.000  C
  C841     1.0000 0.81547  0.87373  0.92253  Biso   1.000  C
  C842     1.0000 0.77187  0.85623  0.93373  Biso   1.000  C
  C843     1.0000 0.75137  0.88843  0.93733  Biso   1.000  C
  C844     1.0000 0.77437  0.93803  0.92983  Biso   1.000  C
  C845     1.0000 0.81797  0.95553  0.91863  Biso   1.000  C
  C846     1.0000 0.57587  0.88683  0.97993  Biso   1.000  C
  C847     1.0000 0.58027  0.41703  0.16803  Biso   1.000  C
  C848     1.0000 0.57317  0.40993  0.14913  Biso   1.000  C
  C849     1.0000 0.54467  0.42823  0.13983  Biso   1.000  C
  C850     1.0000 0.52317  0.45353  0.14933  Biso   1.000  C
  C851     1.0000 0.53027  0.46073  0.16823  Biso   1.000  C
  C852     1.0000 0.55877  0.44243  0.17763  Biso   1.000  C
  C853     1.0000 0.62757  0.91823  0.98453  Biso   1.000  C
  C854     1.0000 0.41087  0.58443  0.08243  Biso   1.000  C
  C855     1.0000 0.43867  0.56083  0.07653  Biso   1.000  C
  C856     1.0000 0.45517  0.53703  0.08913  Biso   1.000  C
  C857     1.0000 0.44377  0.53663  0.10773  Biso   1.000  C
  C858     1.0000 0.41597  0.56023  0.11363  Biso   1.000  C
  C859     1.0000 0.39947  0.58413  0.10093  Biso   1.000  C
  C860     1.0000 0.54067  0.89833  0.98903  Biso   1.000  C
  C861     1.0000 0.56907  0.89273  0.96123  Biso   1.000  C
  C862     1.0000 0.57997  0.71753  0.97433  Biso   1.000  C
  C863     1.0000 0.88697  0.94103  0.90253  Biso   1.000  C
  C864     1.0000 0.75017  0.97313  0.93443  Biso   1.000  C
  C865     1.0000 0.77897  0.02193  0.92563  Biso   1.000  C
  C866     1.0000 0.75087  0.97973  0.95343  Biso   1.000  C
  C867     1.0000 0.69857  0.94873  0.92903  Biso   1.000  C
  C868     1.0000 0.75467  0.80503  0.93993  Biso   1.000  C
  C869     1.0000 0.64257  0.70163  0.96003  Biso   1.000  C
  C870     1.0000 0.61337  0.64093  0.96113  Biso   1.000  C
  C871     1.0000 0.63047  0.61133  0.94993  Biso   1.000  C
  C872     1.0000 0.67807  0.64083  0.93963  Biso   1.000  C
  C873     1.0000 0.71977  0.69463  0.94603  Biso   1.000  C
  C874     1.0000 0.69637  0.72693  0.95783  Biso   1.000  C
  C875     1.0000 0.61157  0.39693  0.17873  Biso   1.000  C
  C876     1.0000 0.50817  0.49043  0.17943  Biso   1.000  C
  C877     1.0000 0.45897  0.48233  0.17533  Biso   1.000  C
  C878     1.0000 0.54167  0.54433  0.17893  Biso   1.000  C
  C879     1.0000 0.50667  0.47733  0.19833  Biso   1.000  C
  C880     1.0000 0.54167  0.42003  0.12063  Biso   1.000  C
  C881     1.0000 0.39157  0.61133  0.06903  Biso   1.000  C
  C882     1.0000 0.40037  0.56303  0.13403  Biso   1.000  C
  C883     1.0000 0.35667  0.51433  0.13873  Biso   1.000  C
  C884     1.0000 0.38337  0.60003  0.13593  Biso   1.000  C
  C885     1.0000 0.44097  0.57733  0.14673  Biso   1.000  C
  C886     1.0000 0.48427  0.51573  0.08123  Biso   1.000  C
  C887     1.0000 0.55947  0.46113  0.09063  Biso   1.000  C
  C888     1.0000 0.60657  0.45323  0.08373  Biso   1.000  C
  C889     1.0000 0.63807  0.48423  0.06763  Biso   1.000  C
  C890     1.0000 0.61037  0.49703  0.05423  Biso   1.000  C
  C891     1.0000 0.56277  0.50243  0.05943  Biso   1.000  C
  C892     1.0000 0.56047  0.50403  0.08213  Biso   1.000  C
  Cl27     1.0000 0.72557  0.84893  0.98903  Biso   1.000  Cl
  Cl28     1.0000 0.59057  0.58633  0.12483  Biso   1.000  Cl
  Mn27     1.0000 0.67697  0.81093  0.96445  Biso   1.000  Mn
  Mn28     1.0000 0.52377  0.50833  0.11815  Biso   1.000  Mn
  N53      1.0000 0.62857  0.73393  0.96853  Biso   1.000  N
  N54      1.0000 0.71457  0.77963  0.95143  Biso   1.000  N
  N55      1.0000 0.55087  0.46073  0.10923  Biso   1.000  N
  N56      1.0000 0.52557  0.51883  0.09013  Biso   1.000  N
  O163     1.0000 0.43117  0.67253  0.01863  Biso   1.000  O
  O164     1.0000 0.42427  0.74963  0.01733  Biso   1.000  O
  O165     1.0000 0.62577  0.83343  0.96463  Biso   1.000  O
  O166     1.0000 0.90147  0.90933  0.89603  Biso   1.000  O
  O167     1.0000 0.90717  0.99303  0.90083  Biso   1.000  O
  O168     1.0000 0.70547  0.87193  0.94963  Biso   1.000  O
  O169     1.0000 0.63647  0.37373  0.17103  Biso   1.000  O
  O170     1.0000 0.61527  0.40263  0.19723  Biso   1.000  O
  O171     1.0000 0.49267  0.47343  0.14033  Biso   1.000  O
  O172     1.0000 0.39627  0.60863  0.05113  Biso   1.000  O
  O173     1.0000 0.37167  0.63703  0.07753  Biso   1.000  O
  O174     1.0000 0.46207  0.51183  0.12093  Biso   1.000  O
  Zn33     1.0000 0.37182  0.63375  0.03281  Biso   1.000  Zn
  Zn34     1.0000 0.63040  0.36791  0.21730  Biso   1.000  Zn
  C893     1.0000 0.86327  0.66083  0.79743  Biso   1.000  C
  C894     1.0000 0.64517  0.79953  0.94653  Biso   1.000  C
  C895     1.0000 0.80357  0.65243  0.80163  Biso   1.000  C
  C896     1.0000 0.65057  0.83723  0.95133  Biso   1.000  C
  C897     1.0000 0.16223  0.08387  0.33306  Biso   1.000  C
  C898     1.0000 0.18583  0.05777  0.32557  Biso   1.000  C
  C899     1.0000 0.22863  0.08387  0.31407  Biso   1.000  C
  C900     1.0000 0.24803  0.13627  0.31007  Biso   1.000  C
  C901     1.0000 0.22443  0.16237  0.31757  Biso   1.000  C
  C902     1.0000 0.18153  0.13617  0.32907  Biso   1.000  C
  C903     1.0000 0.11453  0.05507  0.34597  Biso   1.000  C
  C904     1.0000 0.50513  0.25667  0.24833  Biso   1.000  C
  C905     1.0000 0.48213  0.20707  0.25587  Biso   1.000  C
  C906     1.0000 0.43853  0.18957  0.26707  Biso   1.000  C
  C907     1.0000 0.41803  0.22177  0.27067  Biso   1.000  C
  C908     1.0000 0.44103  0.27137  0.26317  Biso   1.000  C
  C909     1.0000 0.48463  0.28887  0.25197  Biso   1.000  C
  C910     1.0000 0.24253  0.22017  0.31327  Biso   1.000  C
  C911     1.0000 0.24693  0.75037  0.50137  Biso   1.000  C
  C912     1.0000 0.23983  0.74327  0.48247  Biso   1.000  C
  C913     1.0000 0.21133  0.76157  0.47317  Biso   1.000  C
  C914     1.0000 0.18983  0.78687  0.48267  Biso   1.000  C
  C915     1.0000 0.19693  0.79407  0.50157  Biso   1.000  C
  C916     1.0000 0.22543  0.77577  0.51097  Biso   1.000  C
  C917     1.0000 0.29423  0.25157  0.31787  Biso   1.000  C
  C918     1.0000 0.07753  0.91777  0.41577  Biso   1.000  C
  C919     1.0000 0.10533  0.89417  0.40987  Biso   1.000  C
  C920     1.0000 0.12183  0.87037  0.42247  Biso   1.000  C
  C921     1.0000 0.11043  0.86997  0.44107  Biso   1.000  C
  C922     1.0000 0.08263  0.89357  0.44697  Biso   1.000  C
  C923     1.0000 0.06613  0.91747  0.43427  Biso   1.000  C
  C924     1.0000 0.20733  0.23167  0.32237  Biso   1.000  C
  C925     1.0000 0.23573  0.22607  0.29457  Biso   1.000  C
  C926     1.0000 0.24663  0.05087  0.30767  Biso   1.000  C
  C927     1.0000 0.55363  0.27437  0.23587  Biso   1.000  C
  C928     1.0000 0.41683  0.30647  0.26777  Biso   1.000  C
  C929     1.0000 0.44563  0.35527  0.25897  Biso   1.000  C
  C930     1.0000 0.41753  0.31307  0.28677  Biso   1.000  C
  C931     1.0000 0.36523  0.28207  0.26237  Biso   1.000  C
  C932     1.0000 0.42133  0.13837  0.27327  Biso   1.000  C
  C933     1.0000 0.30923  0.03497  0.29337  Biso   1.000  C
  C934     1.0000 0.28003  0.97427  0.29447  Biso   1.000  C
  C935     1.0000 0.29713  0.94467  0.28327  Biso   1.000  C
  C936     1.0000 0.34473  0.97417  0.27297  Biso   1.000  C
  C937     1.0000 0.38643  0.02797  0.27937  Biso   1.000  C
  C938     1.0000 0.36303  0.06027  0.29117  Biso   1.000  C
  C939     1.0000 0.27823  0.73027  0.51207  Biso   1.000  C
  C940     1.0000 0.17483  0.82377  0.51277  Biso   1.000  C
  C941     1.0000 0.12563  0.81567  0.50867  Biso   1.000  C
  C942     1.0000 0.20833  0.87767  0.51227  Biso   1.000  C
  C943     1.0000 0.17333  0.81067  0.53167  Biso   1.000  C
  C944     1.0000 0.20833  0.75337  0.45397  Biso   1.000  C
  C945     1.0000 0.05823  0.94467  0.40237  Biso   1.000  C
  C946     1.0000 0.06703  0.89637  0.46737  Biso   1.000  C
  C947     1.0000 0.02333  0.84767  0.47207  Biso   1.000  C
  C948     1.0000 0.05003  0.93337  0.46927  Biso   1.000  C
  C949     1.0000 0.10763  0.91067  0.48007  Biso   1.000  C
  C950     1.0000 0.15093  0.84907  0.41457  Biso   1.000  C
  C951     1.0000 0.22613  0.79447  0.42397  Biso   1.000  C
  C952     1.0000 0.27323  0.78657  0.41707  Biso   1.000  C
  C953     1.0000 0.30473  0.81757  0.40097  Biso   1.000  C
  C954     1.0000 0.27703  0.83037  0.38757  Biso   1.000  C
  C955     1.0000 0.22943  0.83577  0.39277  Biso   1.000  C
  C956     1.0000 0.22713  0.83737  0.41547  Biso   1.000  C
  Cl29     1.0000 0.39223  0.18227  0.32237  Biso   1.000  Cl
  Cl30     1.0000 0.25723  0.91967  0.45817  Biso   1.000  Cl
  Mn29     1.0000 0.34363  0.14427  0.29779  Biso   1.000  Mn
  Mn30     1.0000 0.19043  0.84167  0.45149  Biso   1.000  Mn
  N57      1.0000 0.29523  0.06727  0.30187  Biso   1.000  N
  N58      1.0000 0.38123  0.11297  0.28477  Biso   1.000  N
  N59      1.0000 0.21753  0.79407  0.44257  Biso   1.000  N
  N60      1.0000 0.19223  0.85217  0.42347  Biso   1.000  N
  O175     1.0000 0.09783  0.00587  0.35197  Biso   1.000  O
  O176     1.0000 0.09093  0.08297  0.35067  Biso   1.000  O
  O177     1.0000 0.29243  0.16677  0.29797  Biso   1.000  O
  O178     1.0000 0.56813  0.24267  0.22937  Biso   1.000  O
  O179     1.0000 0.57383  0.32637  0.23417  Biso   1.000  O
  O180     1.0000 0.37213  0.20527  0.28297  Biso   1.000  O
  O181     1.0000 0.30313  0.70707  0.50437  Biso   1.000  O
  O182     1.0000 0.28193  0.73597  0.53057  Biso   1.000  O
  O183     1.0000 0.15933  0.80677  0.47367  Biso   1.000  O
  O184     1.0000 0.06293  0.94197  0.38447  Biso   1.000  O
  O185     1.0000 0.03833  0.97037  0.41087  Biso   1.000  O
  O186     1.0000 0.12873  0.84517  0.45427  Biso   1.000  O
  Zn35     1.0000 0.03848  0.96709  0.36615  Biso   1.000  Zn
  Zn36     1.0000 0.29706  0.70125  0.55064  Biso   1.000  Zn
  C957     1.0000 0.52993  0.99417  0.13077  Biso   1.000  C
  C958     1.0000 0.31183  0.13287  0.27987  Biso   1.000  C
  C959     1.0000 0.47023  0.98577  0.13497  Biso   1.000  C
  C960     1.0000 0.31723  0.17057  0.28467  Biso   1.000  C
  C961     1.0000 0.58830  0.17110  0.66639  Biso   1.000  C
  C962     1.0000 0.53860  0.14750  0.65890  Biso   1.000  C
  C963     1.0000 0.52190  0.10470  0.64740  Biso   1.000  C
  C964     1.0000 0.55490  0.08530  0.64340  Biso   1.000  C
  C965     1.0000 0.60460  0.10890  0.65090  Biso   1.000  C
  C966     1.0000 0.62130  0.15180  0.66240  Biso   1.000  C
  C967     1.0000 0.60720  0.21880  0.67930  Biso   1.000  C
  C968     1.0000 0.41820  0.82820  0.58166  Biso   1.000  C
  C969     1.0000 0.39160  0.85120  0.58920  Biso   1.000  C
  C970     1.0000 0.41770  0.89480  0.60040  Biso   1.000  C
  C971     1.0000 0.47040  0.91530  0.60400  Biso   1.000  C
  C972     1.0000 0.49700  0.89230  0.59650  Biso   1.000  C
  C973     1.0000 0.47090  0.84870  0.58530  Biso   1.000  C
  C974     1.0000 0.64430  0.09080  0.64660  Biso   1.000  C
  C975     1.0000 0.17010  0.08640  0.83470  Biso   1.000  C
  C976     1.0000 0.17010  0.09350  0.81580  Biso   1.000  C
  C977     1.0000 0.21690  0.12200  0.80650  Biso   1.000  C
  C978     1.0000 0.26370  0.14350  0.81600  Biso   1.000  C
  C979     1.0000 0.26380  0.13640  0.83490  Biso   1.000  C
  C980     1.0000 0.21700  0.10790  0.84430  Biso   1.000  C
  C981     1.0000 0.62400  0.03910  0.65120  Biso   1.000  C
  C982     1.0000 0.50690  0.25580  0.74910  Biso   1.000  C
  C983     1.0000 0.45550  0.22800  0.74320  Biso   1.000  C
  C984     1.0000 0.41520  0.21150  0.75580  Biso   1.000  C
  C985     1.0000 0.42620  0.22290  0.77440  Biso   1.000  C
  C986     1.0000 0.47760  0.25070  0.78030  Biso   1.000  C
  C987     1.0000 0.51800  0.26720  0.76760  Biso   1.000  C
  C988     1.0000 0.69100  0.12600  0.65570  Biso   1.000  C
  C989     1.0000 0.65700  0.09760  0.62790  Biso   1.000  C
  C990     1.0000 0.47090  0.08670  0.64100  Biso   1.000  C
  C991     1.0000 0.38740  0.77970  0.56920  Biso   1.000  C
  C992     1.0000 0.55630  0.91650  0.60110  Biso   1.000  C
  C993     1.0000 0.57630  0.88770  0.59230  Biso   1.000  C
  C994     1.0000 0.56220  0.91580  0.62010  Biso   1.000  C
  C995     1.0000 0.58350  0.96810  0.59570  Biso   1.000  C
  C996     1.0000 0.38370  0.91200  0.60660  Biso   1.000  C
  C997     1.0000 0.39240  0.02410  0.62670  Biso   1.000  C
  C998     1.0000 0.36090  0.05330  0.62780  Biso   1.000  C
  C999     1.0000 0.31420  0.03620  0.61660  Biso   1.000  C
  C1000    1.0000 0.29610  0.98860  0.60630  Biso   1.000  C
  C1001    1.0000 0.30820  0.94690  0.61270  Biso   1.000  C
  C1002    1.0000 0.36390  0.97030  0.62450  Biso   1.000  C
  C1003    1.0000 0.11870  0.05510  0.84540  Biso   1.000  C
  C1004    1.0000 0.31560  0.15850  0.84610  Biso   1.000  C
  C1005    1.0000 0.35670  0.20770  0.84200  Biso   1.000  C
  C1006    1.0000 0.33600  0.12500  0.84560  Biso   1.000  C
  C1007    1.0000 0.30400  0.16000  0.86500  Biso   1.000  C
  C1008    1.0000 0.21170  0.12500  0.78730  Biso   1.000  C
  C1009    1.0000 0.55310  0.27510  0.73570  Biso   1.000  C
  C1010    1.0000 0.49600  0.26630  0.80070  Biso   1.000  C
  C1011    1.0000 0.49100  0.31000  0.80540  Biso   1.000  C
  C1012    1.0000 0.55000  0.28330  0.80260  Biso   1.000  C
  C1013    1.0000 0.46970  0.22570  0.81340  Biso   1.000  C
  C1014    1.0000 0.36480  0.18240  0.74790  Biso   1.000  C
  C1015    1.0000 0.23500  0.10720  0.75730  Biso   1.000  C
  C1016    1.0000 0.18000  0.06010  0.75040  Biso   1.000  C
  C1017    1.0000 0.17950  0.02860  0.73430  Biso   1.000  C
  C1018    1.0000 0.22000  0.05630  0.72090  Biso   1.000  C
  C1019    1.0000 0.27300  0.10390  0.72610  Biso   1.000  C
  C1020    1.0000 0.27690  0.10620  0.74880  Biso   1.000  C
  Cl31     1.0000 0.45670  0.94110  0.65570  Biso   1.000  Cl
  Cl32     1.0000 0.32910  0.07610  0.79150  Biso   1.000  Cl
  Mn31     1.0000 0.46730  0.98970  0.63112  Biso   1.000  Mn
  Mn32     1.0000 0.31790  0.14290  0.78482  Biso   1.000  Mn
  N61      1.0000 0.43870  0.03810  0.63520  Biso   1.000  N
  N62      1.0000 0.39840  0.95210  0.61810  Biso   1.000  N
  N63      1.0000 0.24320  0.11580  0.77590  Biso   1.000  N
  N64      1.0000 0.32660  0.14110  0.75680  Biso   1.000  N
  O187     1.0000 0.57470  0.23550  0.68530  Biso   1.000  O
  O188     1.0000 0.65870  0.24240  0.68400  Biso   1.000  O
  O189     1.0000 0.54100  0.04090  0.63130  Biso   1.000  O
  O190     1.0000 0.34120  0.76520  0.56270  Biso   1.000  O
  O191     1.0000 0.41920  0.75950  0.56750  Biso   1.000  O
  O192     1.0000 0.49980  0.96120  0.61630  Biso   1.000  O
  O193     1.0000 0.07060  0.03020  0.83770  Biso   1.000  O
  O194     1.0000 0.12070  0.05140  0.86390  Biso   1.000  O
  O195     1.0000 0.31410  0.17400  0.80700  Biso   1.000  O
  O196     1.0000 0.54570  0.27040  0.71780  Biso   1.000  O
  O197     1.0000 0.59870  0.29500  0.74420  Biso   1.000  O
  O198     1.0000 0.38310  0.20460  0.78760  Biso   1.000  O
  Zn37     1.0000 0.59527  0.29485  0.69948  Biso   1.000  Zn
  Zn38     1.0000 0.07085  0.03627  0.88397  Biso   1.000  Zn
  C1021    1.0000 0.13090  0.80340  0.46410  Biso   1.000  C
  C1022    1.0000 0.48770  0.02150  0.61320  Biso   1.000  C
  C1023    1.0000 0.18220  0.86310  0.46830  Biso   1.000  C
  C1024    1.0000 0.52000  0.01610  0.61800  Biso   1.000  C
  C1025    1.0000 0.25497  0.50443  0.99972  Biso   1.000  C
  C1026    1.0000 0.20527  0.48083  0.99223  Biso   1.000  C
  C1027    1.0000 0.18857  0.43803  0.98073  Biso   1.000  C
  C1028    1.0000 0.22157  0.41863  0.97673  Biso   1.000  C
  C1029    1.0000 0.27127  0.44223  0.98423  Biso   1.000  C
  C1030    1.0000 0.28797  0.48513  0.99573  Biso   1.000  C
  C1031    1.0000 0.27387  0.55213  0.01263  Biso   1.000  C
  C1032    1.0000 0.08487  0.16153  0.91499  Biso   1.000  C
  C1033    1.0000 0.05827  0.18453  0.92253  Biso   1.000  C
  C1034    1.0000 0.08437  0.22813  0.93373  Biso   1.000  C
  C1035    1.0000 0.13707  0.24863  0.93733  Biso   1.000  C
  C1036    1.0000 0.16367  0.22563  0.92983  Biso   1.000  C
  C1037    1.0000 0.13757  0.18203  0.91863  Biso   1.000  C
  C1038    1.0000 0.31097  0.42413  0.97993  Biso   1.000  C
  C1039    1.0000 0.83677  0.41973  0.16803  Biso   1.000  C
  C1040    1.0000 0.83677  0.42683  0.14913  Biso   1.000  C
  C1041    1.0000 0.88357  0.45533  0.13983  Biso   1.000  C
  C1042    1.0000 0.93037  0.47683  0.14933  Biso   1.000  C
  C1043    1.0000 0.93047  0.46973  0.16823  Biso   1.000  C
  C1044    1.0000 0.88367  0.44123  0.17763  Biso   1.000  C
  C1045    1.0000 0.29067  0.37243  0.98453  Biso   1.000  C
  C1046    1.0000 0.17357  0.58913  0.08243  Biso   1.000  C
  C1047    1.0000 0.12217  0.56133  0.07653  Biso   1.000  C
  C1048    1.0000 0.08187  0.54483  0.08913  Biso   1.000  C
  C1049    1.0000 0.09287  0.55623  0.10773  Biso   1.000  C
  C1050    1.0000 0.14427  0.58403  0.11363  Biso   1.000  C
  C1051    1.0000 0.18467  0.60053  0.10093  Biso   1.000  C
  C1052    1.0000 0.35767  0.45933  0.98903  Biso   1.000  C
  C1053    1.0000 0.32367  0.43093  0.96123  Biso   1.000  C
  C1054    1.0000 0.13757  0.42003  0.97433  Biso   1.000  C
  C1055    1.0000 0.05407  0.11303  0.90253  Biso   1.000  C
  C1056    1.0000 0.22297  0.24983  0.93443  Biso   1.000  C
  C1057    1.0000 0.24297  0.22103  0.92563  Biso   1.000  C
  C1058    1.0000 0.22887  0.24913  0.95343  Biso   1.000  C
  C1059    1.0000 0.25017  0.30143  0.92903  Biso   1.000  C
  C1060    1.0000 0.05037  0.24533  0.93993  Biso   1.000  C
  C1061    1.0000 0.05907  0.35743  0.96003  Biso   1.000  C
  C1062    1.0000 0.02757  0.38663  0.96113  Biso   1.000  C
  C1063    1.0000 0.98087  0.36953  0.94993  Biso   1.000  C
  C1064    1.0000 0.96277  0.32193  0.93963  Biso   1.000  C
  C1065    1.0000 0.97487  0.28023  0.94603  Biso   1.000  C
  C1066    1.0000 0.03057  0.30363  0.95783  Biso   1.000  C
  C1067    1.0000 0.78537  0.38843  0.17873  Biso   1.000  C
  C1068    1.0000 0.98227  0.49183  0.17943  Biso   1.000  C
  C1069    1.0000 0.02337  0.54103  0.17533  Biso   1.000  C
  C1070    1.0000 0.00267  0.45833  0.17893  Biso   1.000  C
  C1071    1.0000 0.97067  0.49333  0.19833  Biso   1.000  C
  C1072    1.0000 0.87837  0.45833  0.12063  Biso   1.000  C
  C1073    1.0000 0.21977  0.60843  0.06903  Biso   1.000  C
  C1074    1.0000 0.16267  0.59963  0.13403  Biso   1.000  C
  C1075    1.0000 0.15767  0.64333  0.13873  Biso   1.000  C
  C1076    1.0000 0.21667  0.61663  0.13593  Biso   1.000  C
  C1077    1.0000 0.13637  0.55903  0.14673  Biso   1.000  C
  C1078    1.0000 0.03147  0.51573  0.08123  Biso   1.000  C
  C1079    1.0000 0.90167  0.44053  0.09063  Biso   1.000  C
  C1080    1.0000 0.84667  0.39343  0.08373  Biso   1.000  C
  C1081    1.0000 0.84617  0.36193  0.06763  Biso   1.000  C
  C1082    1.0000 0.88667  0.38963  0.05423  Biso   1.000  C
  C1083    1.0000 0.93967  0.43723  0.05943  Biso   1.000  C
  C1084    1.0000 0.94357  0.43953  0.08213  Biso   1.000  C
  Cl33     1.0000 0.12337  0.27443  0.98903  Biso   1.000  Cl
  Cl34     1.0000 0.99577  0.40943  0.12483  Biso   1.000  Cl
  Mn33     1.0000 0.13397  0.32303  0.96445  Biso   1.000  Mn
  Mn34     1.0000 0.98457  0.47623  0.11815  Biso   1.000  Mn
  N65      1.0000 0.10537  0.37143  0.96853  Biso   1.000  N
  N66      1.0000 0.06507  0.28543  0.95143  Biso   1.000  N
  N67      1.0000 0.90987  0.44913  0.10923  Biso   1.000  N
  N68      1.0000 0.99327  0.47443  0.09013  Biso   1.000  N
  O199     1.0000 0.24137  0.56883  0.01863  Biso   1.000  O
  O200     1.0000 0.32537  0.57573  0.01733  Biso   1.000  O
  O201     1.0000 0.20767  0.37423  0.96463  Biso   1.000  O
  O202     1.0000 0.00787  0.09853  0.89603  Biso   1.000  O
  O203     1.0000 0.08587  0.09283  0.90083  Biso   1.000  O
  O204     1.0000 0.16647  0.29453  0.94963  Biso   1.000  O
  O205     1.0000 0.73727  0.36353  0.17103  Biso   1.000  O
  O206     1.0000 0.78737  0.38473  0.19723  Biso   1.000  O
  O207     1.0000 0.98077  0.50733  0.14033  Biso   1.000  O
  O208     1.0000 0.21237  0.60373  0.05113  Biso   1.000  O
  O209     1.0000 0.26537  0.62833  0.07753  Biso   1.000  O
  O210     1.0000 0.04977  0.53793  0.12093  Biso   1.000  O
  Zn39     1.0000 0.26194  0.62818  0.03281  Biso   1.000  Zn
  Zn40     1.0000 0.73752  0.36960  0.21730  Biso   1.000  Zn
  C1085    1.0000 0.79757  0.13673  0.79743  Biso   1.000  C
  C1086    1.0000 0.15437  0.35483  0.94653  Biso   1.000  C
  C1087    1.0000 0.84887  0.19643  0.80163  Biso   1.000  C
  C1088    1.0000 0.18667  0.34943  0.95133  Biso   1.000  C
  C1089    1.0000 0.92163  0.83777  0.33306  Biso   1.000  C
  C1090    1.0000 0.87193  0.81417  0.32557  Biso   1.000  C
  C1091    1.0000 0.85523  0.77137  0.31407  Biso   1.000  C
  C1092    1.0000 0.88823  0.75197  0.31007  Biso   1.000  C
  C1093    1.0000 0.93793  0.77557  0.31757  Biso   1.000  C
  C1094    1.0000 0.95463  0.81847  0.32907  Biso   1.000  C
  C1095    1.0000 0.94053  0.88547  0.34597  Biso   1.000  C
  C1096    1.0000 0.75153  0.49487  0.24833  Biso   1.000  C
  C1097    1.0000 0.72493  0.51787  0.25587  Biso   1.000  C
  C1098    1.0000 0.75103  0.56147  0.26707  Biso   1.000  C
  C1099    1.0000 0.80373  0.58197  0.27067  Biso   1.000  C
  C1100    1.0000 0.83033  0.55897  0.26317  Biso   1.000  C
  C1101    1.0000 0.80423  0.51537  0.25197  Biso   1.000  C
  C1102    1.0000 0.97763  0.75747  0.31327  Biso   1.000  C
  C1103    1.0000 0.50343  0.75307  0.50137  Biso   1.000  C
  C1104    1.0000 0.50343  0.76017  0.48247  Biso   1.000  C
  C1105    1.0000 0.55023  0.78867  0.47317  Biso   1.000  C
  C1106    1.0000 0.59703  0.81017  0.48267  Biso   1.000  C
  C1107    1.0000 0.59713  0.80307  0.50157  Biso   1.000  C
  C1108    1.0000 0.55033  0.77457  0.51097  Biso   1.000  C
  C1109    1.0000 0.95733  0.70577  0.31787  Biso   1.000  C
  C1110    1.0000 0.84023  0.92247  0.41577  Biso   1.000  C
  C1111    1.0000 0.78883  0.89467  0.40987  Biso   1.000  C
  C1112    1.0000 0.74853  0.87817  0.42247  Biso   1.000  C
  C1113    1.0000 0.75953  0.88957  0.44107  Biso   1.000  C
  C1114    1.0000 0.81093  0.91737  0.44697  Biso   1.000  C
  C1115    1.0000 0.85133  0.93387  0.43427  Biso   1.000  C
  C1116    1.0000 0.02433  0.79267  0.32237  Biso   1.000  C
  C1117    1.0000 0.99033  0.76427  0.29457  Biso   1.000  C
  C1118    1.0000 0.80423  0.75337  0.30767  Biso   1.000  C
  C1119    1.0000 0.72073  0.44637  0.23587  Biso   1.000  C
  C1120    1.0000 0.88963  0.58317  0.26777  Biso   1.000  C
  C1121    1.0000 0.90963  0.55437  0.25897  Biso   1.000  C
  C1122    1.0000 0.89553  0.58247  0.28677  Biso   1.000  C
  C1123    1.0000 0.91683  0.63477  0.26237  Biso   1.000  C
  C1124    1.0000 0.71703  0.57867  0.27327  Biso   1.000  C
  C1125    1.0000 0.72573  0.69077  0.29337  Biso   1.000  C
  C1126    1.0000 0.69423  0.71997  0.29447  Biso   1.000  C
  C1127    1.0000 0.64753  0.70287  0.28327  Biso   1.000  C
  C1128    1.0000 0.62943  0.65527  0.27297  Biso   1.000  C
  C1129    1.0000 0.64153  0.61357  0.27937  Biso   1.000  C
  C1130    1.0000 0.69723  0.63697  0.29117  Biso   1.000  C
  C1131    1.0000 0.45203  0.72177  0.51207  Biso   1.000  C
  C1132    1.0000 0.64893  0.82517  0.51277  Biso   1.000  C
  C1133    1.0000 0.69003  0.87437  0.50867  Biso   1.000  C
  C1134    1.0000 0.66933  0.79167  0.51227  Biso   1.000  C
  C1135    1.0000 0.63733  0.82667  0.53167  Biso   1.000  C
  C1136    1.0000 0.54503  0.79167  0.45397  Biso   1.000  C
  C1137    1.0000 0.88643  0.94177  0.40237  Biso   1.000  C
  C1138    1.0000 0.82933  0.93297  0.46737  Biso   1.000  C
  C1139    1.0000 0.82433  0.97667  0.47207  Biso   1.000  C
  C1140    1.0000 0.88333  0.94997  0.46927  Biso   1.000  C
  C1141    1.0000 0.80303  0.89237  0.48007  Biso   1.000  C
  C1142    1.0000 0.69813  0.84907  0.41457  Biso   1.000  C
  C1143    1.0000 0.56833  0.77387  0.42397  Biso   1.000  C
  C1144    1.0000 0.51333  0.72677  0.41707  Biso   1.000  C
  C1145    1.0000 0.51283  0.69527  0.40097  Biso   1.000  C
  C1146    1.0000 0.55333  0.72297  0.38757  Biso   1.000  C
  C1147    1.0000 0.60633  0.77057  0.39277  Biso   1.000  C
  C1148    1.0000 0.61023  0.77287  0.41547  Biso   1.000  C
  Cl35     1.0000 0.79003  0.60777  0.32237  Biso   1.000  Cl
  Cl36     1.0000 0.66243  0.74277  0.45817  Biso   1.000  Cl
  Mn35     1.0000 0.80063  0.65637  0.29779  Biso   1.000  Mn
  Mn36     1.0000 0.65123  0.80957  0.45149  Biso   1.000  Mn
  N69      1.0000 0.77203  0.70477  0.30187  Biso   1.000  N
  N70      1.0000 0.73173  0.61877  0.28477  Biso   1.000  N
  N71      1.0000 0.57653  0.78247  0.44257  Biso   1.000  N
  N72      1.0000 0.65993  0.80777  0.42347  Biso   1.000  N
  O211     1.0000 0.90803  0.90217  0.35197  Biso   1.000  O
  O212     1.0000 0.99203  0.90907  0.35067  Biso   1.000  O
  O213     1.0000 0.87433  0.70757  0.29797  Biso   1.000  O
  O214     1.0000 0.67453  0.43187  0.22937  Biso   1.000  O
  O215     1.0000 0.75253  0.42617  0.23417  Biso   1.000  O
  O216     1.0000 0.83313  0.62787  0.28297  Biso   1.000  O
  O217     1.0000 0.40393  0.69687  0.50437  Biso   1.000  O
  O218     1.0000 0.45403  0.71807  0.53057  Biso   1.000  O
  O219     1.0000 0.64743  0.84067  0.47367  Biso   1.000  O
  O220     1.0000 0.87903  0.93707  0.38447  Biso   1.000  O
  O221     1.0000 0.93203  0.96167  0.41087  Biso   1.000  O
  O222     1.0000 0.71643  0.87127  0.45427  Biso   1.000  O
  Zn41     1.0000 0.92860  0.96152  0.36615  Biso   1.000  Zn
  Zn42     1.0000 0.40418  0.70294  0.55064  Biso   1.000  Zn
  C1149    1.0000 0.46423  0.47007  0.13077  Biso   1.000  C
  C1150    1.0000 0.82103  0.68817  0.27987  Biso   1.000  C
  C1151    1.0000 0.51553  0.52977  0.13497  Biso   1.000  C
  C1152    1.0000 0.85333  0.68277  0.28467  Biso   1.000  C
  Zn43     1.0000 0.00000  0.00000  0.84823  Biso   1.000  Zn
  O223     1.0000 0.00000  0.00000  0.87510  Biso   1.000  O
  Zn44     1.0000 0.66667  0.33333  0.18156  Biso   1.000  Zn
  O224     1.0000 0.66667  0.33333  0.20843  Biso   1.000  O
  Zn45     1.0000 0.33333  0.66667  0.51490  Biso   1.000  Zn
  O225     1.0000 0.33333  0.66667  0.54177  Biso   1.000  O
  Zn46     1.0000 0.66667  0.33333  0.73484  Biso   1.000  Zn
  O226     1.0000 0.66667  0.33333  0.70920  Biso   1.000  O
  Zn47     1.0000 0.33333  0.66667  0.06817  Biso   1.000  Zn
  O227     1.0000 0.33333  0.66667  0.04253  Biso   1.000  O
  Zn48     1.0000 0.00000  0.00000  0.40151  Biso   1.000  Zn
  O228     1.0000 0.00000  0.00000  0.37587  Biso   1.000  O
