data_image0
_cell_length_a       27.268
_cell_length_b       13.6992
_cell_length_c       45.888
_cell_angle_alpha    90
_cell_angle_beta     90
_cell_angle_gamma    90

_symmetry_space_group_name_H-M    "P 1"
_symmetry_int_tables_number       1

loop_
  _symmetry_equiv_pos_as_xyz
  'x, y, z'

loop_
  _atom_site_label
  _atom_site_occupancy
  _atom_site_fract_x
  _atom_site_fract_y
  _atom_site_fract_z
  _atom_site_thermal_displace_type
  _atom_site_B_iso_or_equiv
  _atom_site_type_symbol
  C1       1.0000 0.05200  0.02390  0.52785  Biso   1.000  C
  H1       1.0000 0.03140  0.05570  0.54160  Biso   1.000  H
  C2       1.0000 0.06800  0.07480  0.50434  Biso   1.000  C
  H2       1.0000 0.05930  0.14150  0.50210  Biso   1.000  H
  C3       1.0000 0.09720  0.02980  0.48356  Biso   1.000  C
  C4       1.0000 0.10910  0.93170  0.48752  Biso   1.000  C
  H3       1.0000 0.12870  0.89780  0.47370  Biso   1.000  H
  C5       1.0000 0.09160  0.88570  0.51207  Biso   1.000  C
  H4       1.0000 0.09950  0.81870  0.51480  Biso   1.000  H
  C6       1.0000 0.11390  0.08240  0.45695  Biso   1.000  C
  C7       1.0000 0.11390  0.21870  0.42961  Biso   1.000  C
  C8       1.0000 0.14810  0.08070  0.41272  Biso   1.000  C
  C9       1.0000 0.09810  0.32130  0.42458  Biso   1.000  C
  C10      1.0000 0.08860  0.38190  0.44770  Biso   1.000  C
  H5       1.0000 0.09390  0.35980  0.46710  Biso   1.000  H
  C11      1.0000 0.07100  0.47630  0.44262  Biso   1.000  C
  H6       1.0000 0.06550  0.51840  0.45870  Biso   1.000  H
  C12      1.0000 0.07200  0.44920  0.39360  Biso   1.000  C
  H7       1.0000 0.06680  0.47320  0.37440  Biso   1.000  H
  C13      1.0000 0.08950  0.35570  0.39684  Biso   1.000  C
  H8       1.0000 0.09550  0.31570  0.38030  Biso   1.000  H
  C14      1.0000 0.17080  0.02650  0.38839  Biso   1.000  C
  C15      1.0000 0.19250  0.07380  0.36545  Biso   1.000  C
  H9       1.0000 0.19340  0.14310  0.36480  Biso   1.000  H
  C16      1.0000 0.21310  0.01940  0.34317  Biso   1.000  C
  H10      1.0000 0.22820  0.05260  0.32740  Biso   1.000  H
  C17      1.0000 0.19080  0.87580  0.36550  Biso   1.000  C
  H11      1.0000 0.18980  0.80640  0.36560  Biso   1.000  H
  C18      1.0000 0.17000  0.92540  0.38836  Biso   1.000  C
  H12      1.0000 0.15530  0.89080  0.40400  Biso   1.000  H
  C19      1.0000 0.30560  0.06900  0.76170  Biso   1.000  C
  H13      1.0000 0.33350  0.08880  0.77260  Biso   1.000  H
  C20      1.0000 0.31280  0.03300  0.73347  Biso   1.000  C
  H14      1.0000 0.34480  0.02820  0.72540  Biso   1.000  H
  C21      1.0000 0.27210  0.00470  0.71780  Biso   1.000  C
  C22      1.0000 0.22570  0.00810  0.73093  Biso   1.000  C
  H15      1.0000 0.19730  0.98650  0.72080  Biso   1.000  H
  C23      1.0000 0.22260  0.04360  0.75879  Biso   1.000  C
  H16      1.0000 0.19130  0.04500  0.76790  Biso   1.000  H
  C24      1.0000 0.27740  0.97430  0.68658  Biso   1.000  C
  C25      1.0000 0.32360  0.94060  0.64792  Biso   1.000  C
  C26      1.0000 0.24160  0.93870  0.64388  Biso   1.000  C
  C27      1.0000 0.37240  0.92880  0.63459  Biso   1.000  C
  C28      1.0000 0.41470  0.92960  0.65117  Biso   1.000  C
  H17      1.0000 0.41270  0.94220  0.67150  Biso   1.000  H
  C29      1.0000 0.45940  0.91220  0.63852  Biso   1.000  C
  H18      1.0000 0.48780  0.91160  0.65050  Biso   1.000  H
  C30      1.0000 0.42410  0.89870  0.59314  Biso   1.000  C
  H19      1.0000 0.42740  0.88960  0.57270  Biso   1.000  H
  C31      1.0000 0.37790  0.91440  0.60483  Biso   1.000  C
  H20      1.0000 0.35000  0.91530  0.59240  Biso   1.000  H
  C32      1.0000 0.19650  0.92360  0.62635  Biso   1.000  C
  C33      1.0000 0.19870  0.89680  0.59744  Biso   1.000  C
  H21      1.0000 0.22960  0.88920  0.58820  Biso   1.000  H
  C34      1.0000 0.15640  0.88110  0.58200  Biso   1.000  C
  H22      1.0000 0.15870  0.86210  0.56210  Biso   1.000  H
  C35      1.0000 0.10960  0.91920  0.62226  Biso   1.000  C
  H23      1.0000 0.07830  0.92830  0.63100  Biso   1.000  H
  C36      1.0000 0.15050  0.93470  0.63888  Biso   1.000  C
  H24      1.0000 0.14750  0.95290  0.65880  Biso   1.000  H
  I1       1.0000 0.98193  0.95865  0.59731  Biso   1.000  I
  I2       1.0000 0.04743  0.67698  0.56354  Biso   1.000  I
  I3       1.0000 0.19445  0.68838  0.30358  Biso   1.000  I
  I4       1.0000 0.33753  0.82723  0.32224  Biso   1.000  I
  I5       1.0000 0.07766  0.72526  0.36767  Biso   1.000  I
  I6       1.0000 0.01664  0.72364  0.45771  Biso   1.000  I
  N1       1.0000 0.06410  0.92990  0.53240  Biso   1.000  N
  N2       1.0000 0.10250  0.17830  0.45522  Biso   1.000  N
  N3       1.0000 0.13660  0.17340  0.40756  Biso   1.000  N
  N4       1.0000 0.13770  0.03050  0.43707  Biso   1.000  N
  N5       1.0000 0.06210  0.50830  0.41615  Biso   1.000  N
  N6       1.0000 0.21250  0.92090  0.34303  Biso   1.000  N
  N7       1.0000 0.26170  0.07660  0.77390  Biso   1.000  N
  N8       1.0000 0.32220  0.96550  0.67606  Biso   1.000  N
  N9       1.0000 0.28460  0.92770  0.63065  Biso   1.000  N
  N10      1.0000 0.23540  0.96120  0.67184  Biso   1.000  N
  N11      1.0000 0.46430  0.89610  0.60989  Biso   1.000  N
  N12      1.0000 0.11150  0.89160  0.59402  Biso   1.000  N
  Zn1      1.0000 0.04807  0.86079  0.57140  Biso   1.000  Zn
  Zn2      1.0000 0.24641  0.84181  0.31108  Biso   1.000  Zn
  Zn3      1.0000 0.03116  0.64266  0.40852  Biso   1.000  Zn
  C37      1.0000 0.44800  0.97610  0.02785  Biso   1.000  C
  H25      1.0000 0.46860  0.94430  0.04160  Biso   1.000  H
  C38      1.0000 0.43200  0.92520  0.00434  Biso   1.000  C
  H26      1.0000 0.44070  0.85850  0.00210  Biso   1.000  H
  C39      1.0000 0.40280  0.97020  0.98356  Biso   1.000  C
  C40      1.0000 0.39090  0.06830  0.98752  Biso   1.000  C
  H27      1.0000 0.37130  0.10220  0.97370  Biso   1.000  H
  C41      1.0000 0.40840  0.11430  0.01207  Biso   1.000  C
  H28      1.0000 0.40050  0.18130  0.01480  Biso   1.000  H
  C42      1.0000 0.38610  0.91760  0.95695  Biso   1.000  C
  C43      1.0000 0.38610  0.78130  0.92961  Biso   1.000  C
  C44      1.0000 0.35190  0.91930  0.91272  Biso   1.000  C
  C45      1.0000 0.40190  0.67870  0.92458  Biso   1.000  C
  C46      1.0000 0.41140  0.61810  0.94770  Biso   1.000  C
  H29      1.0000 0.40610  0.64020  0.96710  Biso   1.000  H
  C47      1.0000 0.42900  0.52370  0.94262  Biso   1.000  C
  H30      1.0000 0.43450  0.48160  0.95870  Biso   1.000  H
  C48      1.0000 0.42800  0.55080  0.89360  Biso   1.000  C
  H31      1.0000 0.43320  0.52680  0.87440  Biso   1.000  H
  C49      1.0000 0.41050  0.64430  0.89684  Biso   1.000  C
  H32      1.0000 0.40450  0.68430  0.88030  Biso   1.000  H
  C50      1.0000 0.32920  0.97350  0.88839  Biso   1.000  C
  C51      1.0000 0.30750  0.92620  0.86545  Biso   1.000  C
  H33      1.0000 0.30660  0.85690  0.86480  Biso   1.000  H
  C52      1.0000 0.28690  0.98060  0.84317  Biso   1.000  C
  H34      1.0000 0.27180  0.94740  0.82740  Biso   1.000  H
  C53      1.0000 0.30920  0.12420  0.86550  Biso   1.000  C
  H35      1.0000 0.31020  0.19360  0.86560  Biso   1.000  H
  C54      1.0000 0.33000  0.07460  0.88836  Biso   1.000  C
  H36      1.0000 0.34470  0.10920  0.90400  Biso   1.000  H
  C55      1.0000 0.19440  0.93100  0.26170  Biso   1.000  C
  H37      1.0000 0.16650  0.91120  0.27260  Biso   1.000  H
  C56      1.0000 0.18720  0.96700  0.23347  Biso   1.000  C
  H38      1.0000 0.15520  0.97180  0.22540  Biso   1.000  H
  C57      1.0000 0.22790  0.99530  0.21780  Biso   1.000  C
  C58      1.0000 0.27430  0.99190  0.23093  Biso   1.000  C
  H39      1.0000 0.30270  0.01350  0.22080  Biso   1.000  H
  C59      1.0000 0.27740  0.95640  0.25879  Biso   1.000  C
  H40      1.0000 0.30870  0.95500  0.26790  Biso   1.000  H
  C60      1.0000 0.22260  0.02570  0.18658  Biso   1.000  C
  C61      1.0000 0.17640  0.05940  0.14792  Biso   1.000  C
  C62      1.0000 0.25840  0.06130  0.14388  Biso   1.000  C
  C63      1.0000 0.12760  0.07120  0.13459  Biso   1.000  C
  C64      1.0000 0.08530  0.07040  0.15117  Biso   1.000  C
  H41      1.0000 0.08730  0.05780  0.17150  Biso   1.000  H
  C65      1.0000 0.04060  0.08780  0.13852  Biso   1.000  C
  H42      1.0000 0.01220  0.08840  0.15050  Biso   1.000  H
  C66      1.0000 0.07590  0.10130  0.09314  Biso   1.000  C
  H43      1.0000 0.07260  0.11040  0.07270  Biso   1.000  H
  C67      1.0000 0.12210  0.08560  0.10483  Biso   1.000  C
  H44      1.0000 0.15000  0.08470  0.09240  Biso   1.000  H
  C68      1.0000 0.30350  0.07640  0.12635  Biso   1.000  C
  C69      1.0000 0.30130  0.10320  0.09744  Biso   1.000  C
  H45      1.0000 0.27040  0.11080  0.08820  Biso   1.000  H
  C70      1.0000 0.34360  0.11890  0.08200  Biso   1.000  C
  H46      1.0000 0.34130  0.13790  0.06210  Biso   1.000  H
  C71      1.0000 0.39040  0.08080  0.12226  Biso   1.000  C
  H47      1.0000 0.42170  0.07170  0.13100  Biso   1.000  H
  C72      1.0000 0.34950  0.06530  0.13888  Biso   1.000  C
  H48      1.0000 0.35250  0.04710  0.15880  Biso   1.000  H
  I7       1.0000 0.51807  0.04135  0.09731  Biso   1.000  I
  I8       1.0000 0.45257  0.32302  0.06354  Biso   1.000  I
  I9       1.0000 0.30555  0.31162  0.80358  Biso   1.000  I
  I10      1.0000 0.16247  0.17277  0.82224  Biso   1.000  I
  I11      1.0000 0.42234  0.27474  0.86767  Biso   1.000  I
  I12      1.0000 0.48336  0.27636  0.95771  Biso   1.000  I
  N13      1.0000 0.43590  0.07010  0.03240  Biso   1.000  N
  N14      1.0000 0.39750  0.82170  0.95522  Biso   1.000  N
  N15      1.0000 0.36340  0.82660  0.90756  Biso   1.000  N
  N16      1.0000 0.36230  0.96950  0.93707  Biso   1.000  N
  N17      1.0000 0.43790  0.49170  0.91615  Biso   1.000  N
  N18      1.0000 0.28750  0.07910  0.84303  Biso   1.000  N
  N19      1.0000 0.23830  0.92340  0.27390  Biso   1.000  N
  N20      1.0000 0.17780  0.03450  0.17606  Biso   1.000  N
  N21      1.0000 0.21540  0.07230  0.13065  Biso   1.000  N
  N22      1.0000 0.26460  0.03880  0.17184  Biso   1.000  N
  N23      1.0000 0.03570  0.10390  0.10989  Biso   1.000  N
  N24      1.0000 0.38850  0.10840  0.09402  Biso   1.000  N
  Zn4      1.0000 0.45193  0.13921  0.07140  Biso   1.000  Zn
  Zn5      1.0000 0.25359  0.15819  0.81108  Biso   1.000  Zn
  Zn6      1.0000 0.46884  0.35734  0.90852  Biso   1.000  Zn
  C73      1.0000 0.94800  0.52390  0.97215  Biso   1.000  C
  H49      1.0000 0.96860  0.55570  0.95840  Biso   1.000  H
  C74      1.0000 0.93200  0.57480  0.99566  Biso   1.000  C
  H50      1.0000 0.94070  0.64150  0.99790  Biso   1.000  H
  C75      1.0000 0.90280  0.52980  0.01644  Biso   1.000  C
  C76      1.0000 0.89090  0.43170  0.01248  Biso   1.000  C
  H51      1.0000 0.87130  0.39780  0.02630  Biso   1.000  H
  C77      1.0000 0.90840  0.38570  0.98793  Biso   1.000  C
  H52      1.0000 0.90050  0.31870  0.98520  Biso   1.000  H
  C78      1.0000 0.88610  0.58240  0.04305  Biso   1.000  C
  C79      1.0000 0.88610  0.71870  0.07039  Biso   1.000  C
  C80      1.0000 0.85190  0.58070  0.08728  Biso   1.000  C
  C81      1.0000 0.90190  0.82130  0.07542  Biso   1.000  C
  C82      1.0000 0.91140  0.88190  0.05230  Biso   1.000  C
  H53      1.0000 0.90610  0.85980  0.03290  Biso   1.000  H
  C83      1.0000 0.92900  0.97630  0.05738  Biso   1.000  C
  H54      1.0000 0.93450  0.01840  0.04130  Biso   1.000  H
  C84      1.0000 0.92800  0.94920  0.10640  Biso   1.000  C
  H55      1.0000 0.93320  0.97320  0.12560  Biso   1.000  H
  C85      1.0000 0.91050  0.85570  0.10316  Biso   1.000  C
  H56      1.0000 0.90450  0.81570  0.11970  Biso   1.000  H
  C86      1.0000 0.82920  0.52650  0.11161  Biso   1.000  C
  C87      1.0000 0.80750  0.57380  0.13455  Biso   1.000  C
  H57      1.0000 0.80660  0.64310  0.13520  Biso   1.000  H
  C88      1.0000 0.78690  0.51940  0.15683  Biso   1.000  C
  H58      1.0000 0.77180  0.55260  0.17260  Biso   1.000  H
  C89      1.0000 0.80920  0.37580  0.13450  Biso   1.000  C
  H59      1.0000 0.81020  0.30640  0.13440  Biso   1.000  H
  C90      1.0000 0.83000  0.42540  0.11164  Biso   1.000  C
  H60      1.0000 0.84470  0.39080  0.09600  Biso   1.000  H
  C91      1.0000 0.69440  0.56900  0.73830  Biso   1.000  C
  H61      1.0000 0.66650  0.58880  0.72740  Biso   1.000  H
  C92      1.0000 0.68720  0.53300  0.76653  Biso   1.000  C
  H62      1.0000 0.65520  0.52820  0.77460  Biso   1.000  H
  C93      1.0000 0.72790  0.50470  0.78220  Biso   1.000  C
  C94      1.0000 0.77430  0.50810  0.76907  Biso   1.000  C
  H63      1.0000 0.80270  0.48650  0.77920  Biso   1.000  H
  C95      1.0000 0.77740  0.54360  0.74121  Biso   1.000  C
  H64      1.0000 0.80870  0.54500  0.73210  Biso   1.000  H
  C96      1.0000 0.72260  0.47430  0.81342  Biso   1.000  C
  C97      1.0000 0.67640  0.44060  0.85208  Biso   1.000  C
  C98      1.0000 0.75840  0.43870  0.85612  Biso   1.000  C
  C99      1.0000 0.62760  0.42880  0.86541  Biso   1.000  C
  C100     1.0000 0.58530  0.42960  0.84883  Biso   1.000  C
  H65      1.0000 0.58730  0.44220  0.82850  Biso   1.000  H
  C101     1.0000 0.54060  0.41220  0.86148  Biso   1.000  C
  H66      1.0000 0.51220  0.41160  0.84950  Biso   1.000  H
  C102     1.0000 0.57590  0.39870  0.90686  Biso   1.000  C
  H67      1.0000 0.57260  0.38960  0.92730  Biso   1.000  H
  C103     1.0000 0.62210  0.41440  0.89517  Biso   1.000  C
  H68      1.0000 0.65000  0.41530  0.90760  Biso   1.000  H
  C104     1.0000 0.80350  0.42360  0.87365  Biso   1.000  C
  C105     1.0000 0.80130  0.39680  0.90256  Biso   1.000  C
  H69      1.0000 0.77040  0.38920  0.91180  Biso   1.000  H
  C106     1.0000 0.84360  0.38110  0.91800  Biso   1.000  C
  H70      1.0000 0.84130  0.36210  0.93790  Biso   1.000  H
  C107     1.0000 0.89040  0.41920  0.87774  Biso   1.000  C
  H71      1.0000 0.92170  0.42830  0.86900  Biso   1.000  H
  C108     1.0000 0.84950  0.43470  0.86112  Biso   1.000  C
  H72      1.0000 0.85250  0.45290  0.84120  Biso   1.000  H
  I13      1.0000 0.01807  0.45865  0.90269  Biso   1.000  I
  I14      1.0000 0.95257  0.17698  0.93646  Biso   1.000  I
  I15      1.0000 0.80555  0.18838  0.19642  Biso   1.000  I
  I16      1.0000 0.66247  0.32723  0.17776  Biso   1.000  I
  I17      1.0000 0.92234  0.22526  0.13233  Biso   1.000  I
  I18      1.0000 0.98336  0.22364  0.04229  Biso   1.000  I
  N25      1.0000 0.93590  0.42990  0.96760  Biso   1.000  N
  N26      1.0000 0.89750  0.67830  0.04478  Biso   1.000  N
  N27      1.0000 0.86340  0.67340  0.09244  Biso   1.000  N
  N28      1.0000 0.86230  0.53050  0.06293  Biso   1.000  N
  N29      1.0000 0.93790  0.00830  0.08385  Biso   1.000  N
  N30      1.0000 0.78750  0.42090  0.15697  Biso   1.000  N
  N31      1.0000 0.73830  0.57660  0.72610  Biso   1.000  N
  N32      1.0000 0.67780  0.46550  0.82394  Biso   1.000  N
  N33      1.0000 0.71540  0.42770  0.86935  Biso   1.000  N
  N34      1.0000 0.76460  0.46120  0.82816  Biso   1.000  N
  N35      1.0000 0.53570  0.39610  0.89011  Biso   1.000  N
  N36      1.0000 0.88850  0.39160  0.90598  Biso   1.000  N
  Zn7      1.0000 0.95193  0.36079  0.92860  Biso   1.000  Zn
  Zn8      1.0000 0.75359  0.34181  0.18892  Biso   1.000  Zn
  Zn9      1.0000 0.96884  0.14266  0.09148  Biso   1.000  Zn
  C109     1.0000 0.55200  0.47610  0.47215  Biso   1.000  C
  H73      1.0000 0.53140  0.44430  0.45840  Biso   1.000  H
  C110     1.0000 0.56800  0.42520  0.49566  Biso   1.000  C
  H74      1.0000 0.55930  0.35850  0.49790  Biso   1.000  H
  C111     1.0000 0.59720  0.47020  0.51644  Biso   1.000  C
  C112     1.0000 0.60910  0.56830  0.51248  Biso   1.000  C
  H75      1.0000 0.62870  0.60220  0.52630  Biso   1.000  H
  C113     1.0000 0.59160  0.61430  0.48793  Biso   1.000  C
  H76      1.0000 0.59950  0.68130  0.48520  Biso   1.000  H
  C114     1.0000 0.61390  0.41760  0.54305  Biso   1.000  C
  C115     1.0000 0.61390  0.28130  0.57039  Biso   1.000  C
  C116     1.0000 0.64810  0.41930  0.58728  Biso   1.000  C
  C117     1.0000 0.59810  0.17870  0.57542  Biso   1.000  C
  C118     1.0000 0.58860  0.11810  0.55230  Biso   1.000  C
  H77      1.0000 0.59390  0.14020  0.53290  Biso   1.000  H
  C119     1.0000 0.57100  0.02370  0.55738  Biso   1.000  C
  H78      1.0000 0.56550  0.98160  0.54130  Biso   1.000  H
  C120     1.0000 0.57200  0.05080  0.60640  Biso   1.000  C
  H79      1.0000 0.56680  0.02680  0.62560  Biso   1.000  H
  C121     1.0000 0.58950  0.14430  0.60316  Biso   1.000  C
  H80      1.0000 0.59550  0.18430  0.61970  Biso   1.000  H
  C122     1.0000 0.67080  0.47350  0.61161  Biso   1.000  C
  C123     1.0000 0.69250  0.42620  0.63455  Biso   1.000  C
  H81      1.0000 0.69340  0.35690  0.63520  Biso   1.000  H
  C124     1.0000 0.71310  0.48060  0.65683  Biso   1.000  C
  H82      1.0000 0.72820  0.44740  0.67260  Biso   1.000  H
  C125     1.0000 0.69080  0.62420  0.63450  Biso   1.000  C
  H83      1.0000 0.68980  0.69360  0.63440  Biso   1.000  H
  C126     1.0000 0.67000  0.57460  0.61164  Biso   1.000  C
  H84      1.0000 0.65530  0.60920  0.59600  Biso   1.000  H
  C127     1.0000 0.80560  0.43100  0.23830  Biso   1.000  C
  H85      1.0000 0.83350  0.41120  0.22740  Biso   1.000  H
  C128     1.0000 0.81280  0.46700  0.26653  Biso   1.000  C
  H86      1.0000 0.84480  0.47180  0.27460  Biso   1.000  H
  C129     1.0000 0.77210  0.49530  0.28220  Biso   1.000  C
  C130     1.0000 0.72570  0.49190  0.26907  Biso   1.000  C
  H87      1.0000 0.69730  0.51350  0.27920  Biso   1.000  H
  C131     1.0000 0.72260  0.45640  0.24121  Biso   1.000  C
  H88      1.0000 0.69130  0.45500  0.23210  Biso   1.000  H
  C132     1.0000 0.77740  0.52570  0.31342  Biso   1.000  C
  C133     1.0000 0.82360  0.55940  0.35208  Biso   1.000  C
  C134     1.0000 0.74160  0.56130  0.35612  Biso   1.000  C
  C135     1.0000 0.87240  0.57120  0.36541  Biso   1.000  C
  C136     1.0000 0.91470  0.57040  0.34883  Biso   1.000  C
  H89      1.0000 0.91270  0.55780  0.32850  Biso   1.000  H
  C137     1.0000 0.95940  0.58780  0.36148  Biso   1.000  C
  H90      1.0000 0.98780  0.58840  0.34950  Biso   1.000  H
  C138     1.0000 0.92410  0.60130  0.40686  Biso   1.000  C
  H91      1.0000 0.92740  0.61040  0.42730  Biso   1.000  H
  C139     1.0000 0.87790  0.58560  0.39517  Biso   1.000  C
  H92      1.0000 0.85000  0.58470  0.40760  Biso   1.000  H
  C140     1.0000 0.69650  0.57640  0.37365  Biso   1.000  C
  C141     1.0000 0.69870  0.60320  0.40256  Biso   1.000  C
  H93      1.0000 0.72960  0.61080  0.41180  Biso   1.000  H
  C142     1.0000 0.65640  0.61890  0.41800  Biso   1.000  C
  H94      1.0000 0.65870  0.63790  0.43790  Biso   1.000  H
  C143     1.0000 0.60960  0.58080  0.37774  Biso   1.000  C
  H95      1.0000 0.57830  0.57170  0.36900  Biso   1.000  H
  C144     1.0000 0.65050  0.56530  0.36112  Biso   1.000  C
  H96      1.0000 0.64750  0.54710  0.34120  Biso   1.000  H
  I19      1.0000 0.48193  0.54135  0.40269  Biso   1.000  I
  I20      1.0000 0.54743  0.82302  0.43646  Biso   1.000  I
  I21      1.0000 0.69445  0.81162  0.69642  Biso   1.000  I
  I22      1.0000 0.83753  0.67277  0.67776  Biso   1.000  I
  I23      1.0000 0.57766  0.77474  0.63233  Biso   1.000  I
  I24      1.0000 0.51664  0.77636  0.54229  Biso   1.000  I
  N37      1.0000 0.56410  0.57010  0.46760  Biso   1.000  N
  N38      1.0000 0.60250  0.32170  0.54478  Biso   1.000  N
  N39      1.0000 0.63660  0.32660  0.59244  Biso   1.000  N
  N40      1.0000 0.63770  0.46950  0.56293  Biso   1.000  N
  N41      1.0000 0.56210  0.99170  0.58385  Biso   1.000  N
  N42      1.0000 0.71250  0.57910  0.65697  Biso   1.000  N
  N43      1.0000 0.76170  0.42340  0.22610  Biso   1.000  N
  N44      1.0000 0.82220  0.53450  0.32394  Biso   1.000  N
  N45      1.0000 0.78460  0.57230  0.36935  Biso   1.000  N
  N46      1.0000 0.73540  0.53880  0.32816  Biso   1.000  N
  N47      1.0000 0.96430  0.60390  0.39011  Biso   1.000  N
  N48      1.0000 0.61150  0.60840  0.40598  Biso   1.000  N
  Zn10     1.0000 0.54807  0.63921  0.42860  Biso   1.000  Zn
  Zn11     1.0000 0.74641  0.65819  0.68892  Biso   1.000  Zn
  Zn12     1.0000 0.53116  0.85734  0.59148  Biso   1.000  Zn
  C145     1.0000 0.94800  0.97610  0.47215  Biso   1.000  C
  H97      1.0000 0.96860  0.94430  0.45840  Biso   1.000  H
  C146     1.0000 0.93200  0.92520  0.49566  Biso   1.000  C
  H98      1.0000 0.94070  0.85850  0.49790  Biso   1.000  H
  C147     1.0000 0.90280  0.97020  0.51644  Biso   1.000  C
  C148     1.0000 0.89090  0.06830  0.51248  Biso   1.000  C
  H99      1.0000 0.87130  0.10220  0.52630  Biso   1.000  H
  C149     1.0000 0.90840  0.11430  0.48793  Biso   1.000  C
  H100     1.0000 0.90050  0.18130  0.48520  Biso   1.000  H
  C150     1.0000 0.88610  0.91760  0.54305  Biso   1.000  C
  C151     1.0000 0.88610  0.78130  0.57039  Biso   1.000  C
  C152     1.0000 0.85190  0.91930  0.58728  Biso   1.000  C
  C153     1.0000 0.90190  0.67870  0.57542  Biso   1.000  C
  C154     1.0000 0.91140  0.61810  0.55230  Biso   1.000  C
  H101     1.0000 0.90610  0.64020  0.53290  Biso   1.000  H
  C155     1.0000 0.92900  0.52370  0.55738  Biso   1.000  C
  H102     1.0000 0.93450  0.48160  0.54130  Biso   1.000  H
  C156     1.0000 0.92800  0.55080  0.60640  Biso   1.000  C
  H103     1.0000 0.93320  0.52680  0.62560  Biso   1.000  H
  C157     1.0000 0.91050  0.64430  0.60316  Biso   1.000  C
  H104     1.0000 0.90450  0.68430  0.61970  Biso   1.000  H
  C158     1.0000 0.82920  0.97350  0.61161  Biso   1.000  C
  C159     1.0000 0.80750  0.92620  0.63455  Biso   1.000  C
  H105     1.0000 0.80660  0.85690  0.63520  Biso   1.000  H
  C160     1.0000 0.78690  0.98060  0.65683  Biso   1.000  C
  H106     1.0000 0.77180  0.94740  0.67260  Biso   1.000  H
  C161     1.0000 0.80920  0.12420  0.63450  Biso   1.000  C
  H107     1.0000 0.81020  0.19360  0.63440  Biso   1.000  H
  C162     1.0000 0.83000  0.07460  0.61164  Biso   1.000  C
  H108     1.0000 0.84470  0.10920  0.59600  Biso   1.000  H
  C163     1.0000 0.69440  0.93100  0.23830  Biso   1.000  C
  H109     1.0000 0.66650  0.91120  0.22740  Biso   1.000  H
  C164     1.0000 0.68720  0.96700  0.26653  Biso   1.000  C
  H110     1.0000 0.65520  0.97180  0.27460  Biso   1.000  H
  C165     1.0000 0.72790  0.99530  0.28220  Biso   1.000  C
  C166     1.0000 0.77430  0.99190  0.26907  Biso   1.000  C
  H111     1.0000 0.80270  0.01350  0.27920  Biso   1.000  H
  C167     1.0000 0.77740  0.95640  0.24121  Biso   1.000  C
  H112     1.0000 0.80870  0.95500  0.23210  Biso   1.000  H
  C168     1.0000 0.72260  0.02570  0.31342  Biso   1.000  C
  C169     1.0000 0.67640  0.05940  0.35208  Biso   1.000  C
  C170     1.0000 0.75840  0.06130  0.35612  Biso   1.000  C
  C171     1.0000 0.62760  0.07120  0.36541  Biso   1.000  C
  C172     1.0000 0.58530  0.07040  0.34883  Biso   1.000  C
  H113     1.0000 0.58730  0.05780  0.32850  Biso   1.000  H
  C173     1.0000 0.54060  0.08780  0.36148  Biso   1.000  C
  H114     1.0000 0.51220  0.08840  0.34950  Biso   1.000  H
  C174     1.0000 0.57590  0.10130  0.40686  Biso   1.000  C
  H115     1.0000 0.57260  0.11040  0.42730  Biso   1.000  H
  C175     1.0000 0.62210  0.08560  0.39517  Biso   1.000  C
  H116     1.0000 0.65000  0.08470  0.40760  Biso   1.000  H
  C176     1.0000 0.80350  0.07640  0.37365  Biso   1.000  C
  C177     1.0000 0.80130  0.10320  0.40256  Biso   1.000  C
  H117     1.0000 0.77040  0.11080  0.41180  Biso   1.000  H
  C178     1.0000 0.84360  0.11890  0.41800  Biso   1.000  C
  H118     1.0000 0.84130  0.13790  0.43790  Biso   1.000  H
  C179     1.0000 0.89040  0.08080  0.37774  Biso   1.000  C
  H119     1.0000 0.92170  0.07170  0.36900  Biso   1.000  H
  C180     1.0000 0.84950  0.06530  0.36112  Biso   1.000  C
  H120     1.0000 0.85250  0.04710  0.34120  Biso   1.000  H
  I25      1.0000 0.01807  0.04135  0.40269  Biso   1.000  I
  I26      1.0000 0.95257  0.32302  0.43646  Biso   1.000  I
  I27      1.0000 0.80555  0.31162  0.69642  Biso   1.000  I
  I28      1.0000 0.66247  0.17277  0.67776  Biso   1.000  I
  I29      1.0000 0.92234  0.27474  0.63233  Biso   1.000  I
  I30      1.0000 0.98336  0.27636  0.54229  Biso   1.000  I
  N49      1.0000 0.93590  0.07010  0.46760  Biso   1.000  N
  N50      1.0000 0.89750  0.82170  0.54478  Biso   1.000  N
  N51      1.0000 0.86340  0.82660  0.59244  Biso   1.000  N
  N52      1.0000 0.86230  0.96950  0.56293  Biso   1.000  N
  N53      1.0000 0.93790  0.49170  0.58385  Biso   1.000  N
  N54      1.0000 0.78750  0.07910  0.65697  Biso   1.000  N
  N55      1.0000 0.73830  0.92340  0.22610  Biso   1.000  N
  N56      1.0000 0.67780  0.03450  0.32394  Biso   1.000  N
  N57      1.0000 0.71540  0.07230  0.36935  Biso   1.000  N
  N58      1.0000 0.76460  0.03880  0.32816  Biso   1.000  N
  N59      1.0000 0.53570  0.10390  0.39011  Biso   1.000  N
  N60      1.0000 0.88850  0.10840  0.40598  Biso   1.000  N
  Zn13     1.0000 0.95193  0.13921  0.42860  Biso   1.000  Zn
  Zn14     1.0000 0.75359  0.15819  0.68892  Biso   1.000  Zn
  Zn15     1.0000 0.96884  0.35734  0.59148  Biso   1.000  Zn
  C181     1.0000 0.55200  0.02390  0.97215  Biso   1.000  C
  H121     1.0000 0.53140  0.05570  0.95840  Biso   1.000  H
  C182     1.0000 0.56800  0.07480  0.99566  Biso   1.000  C
  H122     1.0000 0.55930  0.14150  0.99790  Biso   1.000  H
  C183     1.0000 0.59720  0.02980  0.01644  Biso   1.000  C
  C184     1.0000 0.60910  0.93170  0.01248  Biso   1.000  C
  H123     1.0000 0.62870  0.89780  0.02630  Biso   1.000  H
  C185     1.0000 0.59160  0.88570  0.98793  Biso   1.000  C
  H124     1.0000 0.59950  0.81870  0.98520  Biso   1.000  H
  C186     1.0000 0.61390  0.08240  0.04305  Biso   1.000  C
  C187     1.0000 0.61390  0.21870  0.07039  Biso   1.000  C
  C188     1.0000 0.64810  0.08070  0.08728  Biso   1.000  C
  C189     1.0000 0.59810  0.32130  0.07542  Biso   1.000  C
  C190     1.0000 0.58860  0.38190  0.05230  Biso   1.000  C
  H125     1.0000 0.59390  0.35980  0.03290  Biso   1.000  H
  C191     1.0000 0.57100  0.47630  0.05738  Biso   1.000  C
  H126     1.0000 0.56550  0.51840  0.04130  Biso   1.000  H
  C192     1.0000 0.57200  0.44920  0.10640  Biso   1.000  C
  H127     1.0000 0.56680  0.47320  0.12560  Biso   1.000  H
  C193     1.0000 0.58950  0.35570  0.10316  Biso   1.000  C
  H128     1.0000 0.59550  0.31570  0.11970  Biso   1.000  H
  C194     1.0000 0.67080  0.02650  0.11161  Biso   1.000  C
  C195     1.0000 0.69250  0.07380  0.13455  Biso   1.000  C
  H129     1.0000 0.69340  0.14310  0.13520  Biso   1.000  H
  C196     1.0000 0.71310  0.01940  0.15683  Biso   1.000  C
  H130     1.0000 0.72820  0.05260  0.17260  Biso   1.000  H
  C197     1.0000 0.69080  0.87580  0.13450  Biso   1.000  C
  H131     1.0000 0.68980  0.80640  0.13440  Biso   1.000  H
  C198     1.0000 0.67000  0.92540  0.11164  Biso   1.000  C
  H132     1.0000 0.65530  0.89080  0.09600  Biso   1.000  H
  C199     1.0000 0.80560  0.06900  0.73830  Biso   1.000  C
  H133     1.0000 0.83350  0.08880  0.72740  Biso   1.000  H
  C200     1.0000 0.81280  0.03300  0.76653  Biso   1.000  C
  H134     1.0000 0.84480  0.02820  0.77460  Biso   1.000  H
  C201     1.0000 0.77210  0.00470  0.78220  Biso   1.000  C
  C202     1.0000 0.72570  0.00810  0.76907  Biso   1.000  C
  H135     1.0000 0.69730  0.98650  0.77920  Biso   1.000  H
  C203     1.0000 0.72260  0.04360  0.74121  Biso   1.000  C
  H136     1.0000 0.69130  0.04500  0.73210  Biso   1.000  H
  C204     1.0000 0.77740  0.97430  0.81342  Biso   1.000  C
  C205     1.0000 0.82360  0.94060  0.85208  Biso   1.000  C
  C206     1.0000 0.74160  0.93870  0.85612  Biso   1.000  C
  C207     1.0000 0.87240  0.92880  0.86541  Biso   1.000  C
  C208     1.0000 0.91470  0.92960  0.84883  Biso   1.000  C
  H137     1.0000 0.91270  0.94220  0.82850  Biso   1.000  H
  C209     1.0000 0.95940  0.91220  0.86148  Biso   1.000  C
  H138     1.0000 0.98780  0.91160  0.84950  Biso   1.000  H
  C210     1.0000 0.92410  0.89870  0.90686  Biso   1.000  C
  H139     1.0000 0.92740  0.88960  0.92730  Biso   1.000  H
  C211     1.0000 0.87790  0.91440  0.89517  Biso   1.000  C
  H140     1.0000 0.85000  0.91530  0.90760  Biso   1.000  H
  C212     1.0000 0.69650  0.92360  0.87365  Biso   1.000  C
  C213     1.0000 0.69870  0.89680  0.90256  Biso   1.000  C
  H141     1.0000 0.72960  0.88920  0.91180  Biso   1.000  H
  C214     1.0000 0.65640  0.88110  0.91800  Biso   1.000  C
  H142     1.0000 0.65870  0.86210  0.93790  Biso   1.000  H
  C215     1.0000 0.60960  0.91920  0.87774  Biso   1.000  C
  H143     1.0000 0.57830  0.92830  0.86900  Biso   1.000  H
  C216     1.0000 0.65050  0.93470  0.86112  Biso   1.000  C
  H144     1.0000 0.64750  0.95290  0.84120  Biso   1.000  H
  I31      1.0000 0.48193  0.95865  0.90269  Biso   1.000  I
  I32      1.0000 0.54743  0.67698  0.93646  Biso   1.000  I
  I33      1.0000 0.69445  0.68838  0.19642  Biso   1.000  I
  I34      1.0000 0.83753  0.82723  0.17776  Biso   1.000  I
  I35      1.0000 0.57766  0.72526  0.13233  Biso   1.000  I
  I36      1.0000 0.51664  0.72364  0.04229  Biso   1.000  I
  N61      1.0000 0.56410  0.92990  0.96760  Biso   1.000  N
  N62      1.0000 0.60250  0.17830  0.04478  Biso   1.000  N
  N63      1.0000 0.63660  0.17340  0.09244  Biso   1.000  N
  N64      1.0000 0.63770  0.03050  0.06293  Biso   1.000  N
  N65      1.0000 0.56210  0.50830  0.08385  Biso   1.000  N
  N66      1.0000 0.71250  0.92090  0.15697  Biso   1.000  N
  N67      1.0000 0.76170  0.07660  0.72610  Biso   1.000  N
  N68      1.0000 0.82220  0.96550  0.82394  Biso   1.000  N
  N69      1.0000 0.78460  0.92770  0.86935  Biso   1.000  N
  N70      1.0000 0.73540  0.96120  0.82816  Biso   1.000  N
  N71      1.0000 0.96430  0.89610  0.89011  Biso   1.000  N
  N72      1.0000 0.61150  0.89160  0.90598  Biso   1.000  N
  Zn16     1.0000 0.54807  0.86079  0.92860  Biso   1.000  Zn
  Zn17     1.0000 0.74641  0.84181  0.18892  Biso   1.000  Zn
  Zn18     1.0000 0.53116  0.64266  0.09148  Biso   1.000  Zn
  C217     1.0000 0.05200  0.47610  0.02785  Biso   1.000  C
  H145     1.0000 0.03140  0.44430  0.04160  Biso   1.000  H
  C218     1.0000 0.06800  0.42520  0.00434  Biso   1.000  C
  H146     1.0000 0.05930  0.35850  0.00210  Biso   1.000  H
  C219     1.0000 0.09720  0.47020  0.98356  Biso   1.000  C
  C220     1.0000 0.10910  0.56830  0.98752  Biso   1.000  C
  H147     1.0000 0.12870  0.60220  0.97370  Biso   1.000  H
  C221     1.0000 0.09160  0.61430  0.01207  Biso   1.000  C
  H148     1.0000 0.09950  0.68130  0.01480  Biso   1.000  H
  C222     1.0000 0.11390  0.41760  0.95695  Biso   1.000  C
  C223     1.0000 0.11390  0.28130  0.92961  Biso   1.000  C
  C224     1.0000 0.14810  0.41930  0.91272  Biso   1.000  C
  C225     1.0000 0.09810  0.17870  0.92458  Biso   1.000  C
  C226     1.0000 0.08860  0.11810  0.94770  Biso   1.000  C
  H149     1.0000 0.09390  0.14020  0.96710  Biso   1.000  H
  C227     1.0000 0.07100  0.02370  0.94262  Biso   1.000  C
  H150     1.0000 0.06550  0.98160  0.95870  Biso   1.000  H
  C228     1.0000 0.07200  0.05080  0.89360  Biso   1.000  C
  H151     1.0000 0.06680  0.02680  0.87440  Biso   1.000  H
  C229     1.0000 0.08950  0.14430  0.89684  Biso   1.000  C
  H152     1.0000 0.09550  0.18430  0.88030  Biso   1.000  H
  C230     1.0000 0.17080  0.47350  0.88839  Biso   1.000  C
  C231     1.0000 0.19250  0.42620  0.86545  Biso   1.000  C
  H153     1.0000 0.19340  0.35690  0.86480  Biso   1.000  H
  C232     1.0000 0.21310  0.48060  0.84317  Biso   1.000  C
  H154     1.0000 0.22820  0.44740  0.82740  Biso   1.000  H
  C233     1.0000 0.19080  0.62420  0.86550  Biso   1.000  C
  H155     1.0000 0.18980  0.69360  0.86560  Biso   1.000  H
  C234     1.0000 0.17000  0.57460  0.88836  Biso   1.000  C
  H156     1.0000 0.15530  0.60920  0.90400  Biso   1.000  H
  C235     1.0000 0.30560  0.43100  0.26170  Biso   1.000  C
  H157     1.0000 0.33350  0.41120  0.27260  Biso   1.000  H
  C236     1.0000 0.31280  0.46700  0.23347  Biso   1.000  C
  H158     1.0000 0.34480  0.47180  0.22540  Biso   1.000  H
  C237     1.0000 0.27210  0.49530  0.21780  Biso   1.000  C
  C238     1.0000 0.22570  0.49190  0.23093  Biso   1.000  C
  H159     1.0000 0.19730  0.51350  0.22080  Biso   1.000  H
  C239     1.0000 0.22260  0.45640  0.25879  Biso   1.000  C
  H160     1.0000 0.19130  0.45500  0.26790  Biso   1.000  H
  C240     1.0000 0.27740  0.52570  0.18658  Biso   1.000  C
  C241     1.0000 0.32360  0.55940  0.14792  Biso   1.000  C
  C242     1.0000 0.24160  0.56130  0.14388  Biso   1.000  C
  C243     1.0000 0.37240  0.57120  0.13459  Biso   1.000  C
  C244     1.0000 0.41470  0.57040  0.15117  Biso   1.000  C
  H161     1.0000 0.41270  0.55780  0.17150  Biso   1.000  H
  C245     1.0000 0.45940  0.58780  0.13852  Biso   1.000  C
  H162     1.0000 0.48780  0.58840  0.15050  Biso   1.000  H
  C246     1.0000 0.42410  0.60130  0.09314  Biso   1.000  C
  H163     1.0000 0.42740  0.61040  0.07270  Biso   1.000  H
  C247     1.0000 0.37790  0.58560  0.10483  Biso   1.000  C
  H164     1.0000 0.35000  0.58470  0.09240  Biso   1.000  H
  C248     1.0000 0.19650  0.57640  0.12635  Biso   1.000  C
  C249     1.0000 0.19870  0.60320  0.09744  Biso   1.000  C
  H165     1.0000 0.22960  0.61080  0.08820  Biso   1.000  H
  C250     1.0000 0.15640  0.61890  0.08200  Biso   1.000  C
  H166     1.0000 0.15870  0.63790  0.06210  Biso   1.000  H
  C251     1.0000 0.10960  0.58080  0.12226  Biso   1.000  C
  H167     1.0000 0.07830  0.57170  0.13100  Biso   1.000  H
  C252     1.0000 0.15050  0.56530  0.13888  Biso   1.000  C
  H168     1.0000 0.14750  0.54710  0.15880  Biso   1.000  H
  I37      1.0000 0.98193  0.54135  0.09731  Biso   1.000  I
  I38      1.0000 0.04743  0.82302  0.06354  Biso   1.000  I
  I39      1.0000 0.19445  0.81162  0.80358  Biso   1.000  I
  I40      1.0000 0.33753  0.67277  0.82224  Biso   1.000  I
  I41      1.0000 0.07766  0.77474  0.86767  Biso   1.000  I
  I42      1.0000 0.01664  0.77636  0.95771  Biso   1.000  I
  N73      1.0000 0.06410  0.57010  0.03240  Biso   1.000  N
  N74      1.0000 0.10250  0.32170  0.95522  Biso   1.000  N
  N75      1.0000 0.13660  0.32660  0.90756  Biso   1.000  N
  N76      1.0000 0.13770  0.46950  0.93707  Biso   1.000  N
  N77      1.0000 0.06210  0.99170  0.91615  Biso   1.000  N
  N78      1.0000 0.21250  0.57910  0.84303  Biso   1.000  N
  N79      1.0000 0.26170  0.42340  0.27390  Biso   1.000  N
  N80      1.0000 0.32220  0.53450  0.17606  Biso   1.000  N
  N81      1.0000 0.28460  0.57230  0.13065  Biso   1.000  N
  N82      1.0000 0.23540  0.53880  0.17184  Biso   1.000  N
  N83      1.0000 0.46430  0.60390  0.10989  Biso   1.000  N
  N84      1.0000 0.11150  0.60840  0.09402  Biso   1.000  N
  Zn19     1.0000 0.04807  0.63921  0.07140  Biso   1.000  Zn
  Zn20     1.0000 0.24641  0.65819  0.81108  Biso   1.000  Zn
  Zn21     1.0000 0.03116  0.85734  0.90852  Biso   1.000  Zn
  C253     1.0000 0.44800  0.52390  0.52785  Biso   1.000  C
  H169     1.0000 0.46860  0.55570  0.54160  Biso   1.000  H
  C254     1.0000 0.43200  0.57480  0.50434  Biso   1.000  C
  H170     1.0000 0.44070  0.64150  0.50210  Biso   1.000  H
  C255     1.0000 0.40280  0.52980  0.48356  Biso   1.000  C
  C256     1.0000 0.39090  0.43170  0.48752  Biso   1.000  C
  H171     1.0000 0.37130  0.39780  0.47370  Biso   1.000  H
  C257     1.0000 0.40840  0.38570  0.51207  Biso   1.000  C
  H172     1.0000 0.40050  0.31870  0.51480  Biso   1.000  H
  C258     1.0000 0.38610  0.58240  0.45695  Biso   1.000  C
  C259     1.0000 0.38610  0.71870  0.42961  Biso   1.000  C
  C260     1.0000 0.35190  0.58070  0.41272  Biso   1.000  C
  C261     1.0000 0.40190  0.82130  0.42458  Biso   1.000  C
  C262     1.0000 0.41140  0.88190  0.44770  Biso   1.000  C
  H173     1.0000 0.40610  0.85980  0.46710  Biso   1.000  H
  C263     1.0000 0.42900  0.97630  0.44262  Biso   1.000  C
  H174     1.0000 0.43450  0.01840  0.45870  Biso   1.000  H
  C264     1.0000 0.42800  0.94920  0.39360  Biso   1.000  C
  H175     1.0000 0.43320  0.97320  0.37440  Biso   1.000  H
  C265     1.0000 0.41050  0.85570  0.39684  Biso   1.000  C
  H176     1.0000 0.40450  0.81570  0.38030  Biso   1.000  H
  C266     1.0000 0.32920  0.52650  0.38839  Biso   1.000  C
  C267     1.0000 0.30750  0.57380  0.36545  Biso   1.000  C
  H177     1.0000 0.30660  0.64310  0.36480  Biso   1.000  H
  C268     1.0000 0.28690  0.51940  0.34317  Biso   1.000  C
  H178     1.0000 0.27180  0.55260  0.32740  Biso   1.000  H
  C269     1.0000 0.30920  0.37580  0.36550  Biso   1.000  C
  H179     1.0000 0.31020  0.30640  0.36560  Biso   1.000  H
  C270     1.0000 0.33000  0.42540  0.38836  Biso   1.000  C
  H180     1.0000 0.34470  0.39080  0.40400  Biso   1.000  H
  C271     1.0000 0.19440  0.56900  0.76170  Biso   1.000  C
  H181     1.0000 0.16650  0.58880  0.77260  Biso   1.000  H
  C272     1.0000 0.18720  0.53300  0.73347  Biso   1.000  C
  H182     1.0000 0.15520  0.52820  0.72540  Biso   1.000  H
  C273     1.0000 0.22790  0.50470  0.71780  Biso   1.000  C
  C274     1.0000 0.27430  0.50810  0.73093  Biso   1.000  C
  H183     1.0000 0.30270  0.48650  0.72080  Biso   1.000  H
  C275     1.0000 0.27740  0.54360  0.75879  Biso   1.000  C
  H184     1.0000 0.30870  0.54500  0.76790  Biso   1.000  H
  C276     1.0000 0.22260  0.47430  0.68658  Biso   1.000  C
  C277     1.0000 0.17640  0.44060  0.64792  Biso   1.000  C
  C278     1.0000 0.25840  0.43870  0.64388  Biso   1.000  C
  C279     1.0000 0.12760  0.42880  0.63459  Biso   1.000  C
  C280     1.0000 0.08530  0.42960  0.65117  Biso   1.000  C
  H185     1.0000 0.08730  0.44220  0.67150  Biso   1.000  H
  C281     1.0000 0.04060  0.41220  0.63852  Biso   1.000  C
  H186     1.0000 0.01220  0.41160  0.65050  Biso   1.000  H
  C282     1.0000 0.07590  0.39870  0.59314  Biso   1.000  C
  H187     1.0000 0.07260  0.38960  0.57270  Biso   1.000  H
  C283     1.0000 0.12210  0.41440  0.60483  Biso   1.000  C
  H188     1.0000 0.15000  0.41530  0.59240  Biso   1.000  H
  C284     1.0000 0.30350  0.42360  0.62635  Biso   1.000  C
  C285     1.0000 0.30130  0.39680  0.59744  Biso   1.000  C
  H189     1.0000 0.27040  0.38920  0.58820  Biso   1.000  H
  C286     1.0000 0.34360  0.38110  0.58200  Biso   1.000  C
  H190     1.0000 0.34130  0.36210  0.56210  Biso   1.000  H
  C287     1.0000 0.39040  0.41920  0.62226  Biso   1.000  C
  H191     1.0000 0.42170  0.42830  0.63100  Biso   1.000  H
  C288     1.0000 0.34950  0.43470  0.63888  Biso   1.000  C
  H192     1.0000 0.35250  0.45290  0.65880  Biso   1.000  H
  I43      1.0000 0.51807  0.45865  0.59731  Biso   1.000  I
  I44      1.0000 0.45257  0.17698  0.56354  Biso   1.000  I
  I45      1.0000 0.30555  0.18838  0.30358  Biso   1.000  I
  I46      1.0000 0.16247  0.32723  0.32224  Biso   1.000  I
  I47      1.0000 0.42234  0.22526  0.36767  Biso   1.000  I
  I48      1.0000 0.48336  0.22364  0.45771  Biso   1.000  I
  N85      1.0000 0.43590  0.42990  0.53240  Biso   1.000  N
  N86      1.0000 0.39750  0.67830  0.45522  Biso   1.000  N
  N87      1.0000 0.36340  0.67340  0.40756  Biso   1.000  N
  N88      1.0000 0.36230  0.53050  0.43707  Biso   1.000  N
  N89      1.0000 0.43790  0.00830  0.41615  Biso   1.000  N
  N90      1.0000 0.28750  0.42090  0.34303  Biso   1.000  N
  N91      1.0000 0.23830  0.57660  0.77390  Biso   1.000  N
  N92      1.0000 0.17780  0.46550  0.67606  Biso   1.000  N
  N93      1.0000 0.21540  0.42770  0.63065  Biso   1.000  N
  N94      1.0000 0.26460  0.46120  0.67184  Biso   1.000  N
  N95      1.0000 0.03570  0.39610  0.60989  Biso   1.000  N
  N96      1.0000 0.38850  0.39160  0.59402  Biso   1.000  N
  Zn22     1.0000 0.45193  0.36079  0.57140  Biso   1.000  Zn
  Zn23     1.0000 0.25359  0.34181  0.31108  Biso   1.000  Zn
  Zn24     1.0000 0.46884  0.14266  0.40852  Biso   1.000  Zn
