data_image0
_cell_length_a       27.6479
_cell_length_b       13.75
_cell_length_c       45.714
_cell_angle_alpha    90
_cell_angle_beta     90
_cell_angle_gamma    90

_symmetry_space_group_name_H-M    "P 1"
_symmetry_int_tables_number       1

loop_
  _symmetry_equiv_pos_as_xyz
  'x, y, z'

loop_
  _atom_site_label
  _atom_site_occupancy
  _atom_site_fract_x
  _atom_site_fract_y
  _atom_site_fract_z
  _atom_site_thermal_displace_type
  _atom_site_B_iso_or_equiv
  _atom_site_type_symbol
  C1       1.0000 0.05100  0.01640  0.53183  Biso   1.000  C
  H1       1.0000 0.03330  0.04890  0.54670  Biso   1.000  H
  C2       1.0000 0.06470  0.06740  0.50718  Biso   1.000  C
  H2       1.0000 0.05610  0.13400  0.50530  Biso   1.000  H
  C3       1.0000 0.09061  0.02250  0.48539  Biso   1.000  C
  C4       1.0000 0.10050  0.92340  0.48824  Biso   1.000  C
  H3       1.0000 0.11690  0.88900  0.47320  Biso   1.000  H
  C5       1.0000 0.08580  0.87660  0.51346  Biso   1.000  C
  H4       1.0000 0.09280  0.80930  0.51550  Biso   1.000  H
  C6       1.0000 0.10658  0.07700  0.45899  Biso   1.000  C
  C7       1.0000 0.10837  0.21520  0.43260  Biso   1.000  C
  C8       1.0000 0.14236  0.07900  0.41476  Biso   1.000  C
  C9       1.0000 0.09309  0.31810  0.42854  Biso   1.000  C
  C10      1.0000 0.07390  0.37040  0.45147  Biso   1.000  C
  H5       1.0000 0.07190  0.34270  0.47050  Biso   1.000  H
  C11      1.0000 0.05730  0.46430  0.44635  Biso   1.000  C
  H6       1.0000 0.04430  0.50050  0.46220  Biso   1.000  H
  C12      1.0000 0.07740  0.45370  0.39750  Biso   1.000  C
  H7       1.0000 0.07850  0.48200  0.37860  Biso   1.000  H
  C13      1.0000 0.09490  0.36010  0.40132  Biso   1.000  C
  H8       1.0000 0.10810  0.32530  0.38520  Biso   1.000  H
  C14      1.0000 0.16649  0.02660  0.39059  Biso   1.000  C
  C15      1.0000 0.18680  0.07530  0.36703  Biso   1.000  C
  H9       1.0000 0.18550  0.14420  0.36600  Biso   1.000  H
  C16      1.0000 0.20910  0.02220  0.34505  Biso   1.000  C
  H10      1.0000 0.22390  0.05610  0.32930  Biso   1.000  H
  C17      1.0000 0.18970  0.87760  0.36743  Biso   1.000  C
  H11      1.0000 0.19030  0.80850  0.36740  Biso   1.000  H
  C18      1.0000 0.16740  0.92520  0.39052  Biso   1.000  C
  H12      1.0000 0.15300  0.88930  0.40600  Biso   1.000  H
  C19      1.0000 0.30718  0.05730  0.76514  Biso   1.000  C
  H13      1.0000 0.33460  0.07240  0.77680  Biso   1.000  H
  C20      1.0000 0.31474  0.02210  0.73700  Biso   1.000  C
  H14      1.0000 0.34660  0.01270  0.72970  Biso   1.000  H
  C21      1.0000 0.27458  0.00100  0.71977  Biso   1.000  C
  C22      1.0000 0.22890  0.01100  0.73183  Biso   1.000  C
  H15      1.0000 0.20090  0.99450  0.72090  Biso   1.000  H
  C23      1.0000 0.22482  0.04550  0.76017  Biso   1.000  C
  H16      1.0000 0.19350  0.05150  0.76850  Biso   1.000  H
  C24      1.0000 0.27964  0.97280  0.68852  Biso   1.000  C
  C25      1.0000 0.32544  0.94190  0.64874  Biso   1.000  C
  C26      1.0000 0.24375  0.93970  0.64528  Biso   1.000  C
  C27      1.0000 0.37322  0.93030  0.63476  Biso   1.000  C
  C28      1.0000 0.41571  0.93140  0.65125  Biso   1.000  C
  H17      1.0000 0.41480  0.94250  0.67180  Biso   1.000  H
  C29      1.0000 0.45930  0.91590  0.63698  Biso   1.000  C
  H18      1.0000 0.48820  0.91540  0.64830  Biso   1.000  H
  C30      1.0000 0.42190  0.90330  0.59228  Biso   1.000  C
  H19      1.0000 0.42400  0.89500  0.57170  Biso   1.000  H
  C31      1.0000 0.37683  0.91680  0.60462  Biso   1.000  C
  H20      1.0000 0.34860  0.91690  0.59270  Biso   1.000  H
  C32      1.0000 0.19948  0.92620  0.62799  Biso   1.000  C
  C33      1.0000 0.20094  0.89820  0.59871  Biso   1.000  C
  H21      1.0000 0.23110  0.89000  0.58910  Biso   1.000  H
  C34      1.0000 0.15841  0.88260  0.58387  Biso   1.000  C
  H22      1.0000 0.16000  0.86260  0.56400  Biso   1.000  H
  C35      1.0000 0.11311  0.92390  0.62438  Biso   1.000  C
  H23      1.0000 0.08240  0.93480  0.63310  Biso   1.000  H
  C36      1.0000 0.15405  0.93880  0.64098  Biso   1.000  C
  H24      1.0000 0.15150  0.95730  0.66090  Biso   1.000  H
  I1       1.0000 0.98393  0.94744  0.60185  Biso   1.000  I
  I2       1.0000 0.05634  0.67242  0.56806  Biso   1.000  I
  I3       1.0000 0.19528  0.69144  0.30583  Biso   1.000  I
  I4       1.0000 0.33578  0.83316  0.32434  Biso   1.000  I
  I5       1.0000 0.07449  0.72536  0.37142  Biso   1.000  I
  I6       1.0000 0.00895  0.71687  0.46084  Biso   1.000  I
  N1       1.0000 0.06200  0.92220  0.53528  Biso   1.000  N
  N2       1.0000 0.09495  0.17070  0.45738  Biso   1.000  N
  N3       1.0000 0.13324  0.17290  0.41083  Biso   1.000  N
  N4       1.0000 0.13053  0.02710  0.43844  Biso   1.000  N
  N5       1.0000 0.05902  0.50550  0.41973  Biso   1.000  N
  N6       1.0000 0.21045  0.92500  0.34516  Biso   1.000  N
  N7       1.0000 0.26309  0.07100  0.77646  Biso   1.000  N
  N8       1.0000 0.32414  0.96430  0.67740  Biso   1.000  N
  N9       1.0000 0.28647  0.92890  0.63190  Biso   1.000  N
  N10      1.0000 0.23836  0.96140  0.67367  Biso   1.000  N
  N11      1.0000 0.46275  0.90140  0.60797  Biso   1.000  N
  N12      1.0000 0.11465  0.89460  0.59627  Biso   1.000  N
  Zn1      1.0000 0.05075  0.85570  0.57533  Biso   1.000  Zn
  Zn2      1.0000 0.24547  0.84635  0.31345  Biso   1.000  Zn
  Zn3      1.0000 0.02768  0.63847  0.41131  Biso   1.000  Zn
  C37      1.0000 0.44900  0.98360  0.03183  Biso   1.000  C
  H25      1.0000 0.46670  0.95110  0.04670  Biso   1.000  H
  C38      1.0000 0.43530  0.93260  0.00718  Biso   1.000  C
  H26      1.0000 0.44390  0.86600  0.00530  Biso   1.000  H
  C39      1.0000 0.40939  0.97750  0.98539  Biso   1.000  C
  C40      1.0000 0.39950  0.07660  0.98824  Biso   1.000  C
  H27      1.0000 0.38310  0.11100  0.97320  Biso   1.000  H
  C41      1.0000 0.41420  0.12340  0.01346  Biso   1.000  C
  H28      1.0000 0.40720  0.19070  0.01550  Biso   1.000  H
  C42      1.0000 0.39342  0.92300  0.95899  Biso   1.000  C
  C43      1.0000 0.39163  0.78480  0.93260  Biso   1.000  C
  C44      1.0000 0.35764  0.92100  0.91476  Biso   1.000  C
  C45      1.0000 0.40691  0.68190  0.92854  Biso   1.000  C
  C46      1.0000 0.42610  0.62960  0.95147  Biso   1.000  C
  H29      1.0000 0.42810  0.65730  0.97050  Biso   1.000  H
  C47      1.0000 0.44270  0.53570  0.94635  Biso   1.000  C
  H30      1.0000 0.45570  0.49950  0.96220  Biso   1.000  H
  C48      1.0000 0.42260  0.54630  0.89750  Biso   1.000  C
  H31      1.0000 0.42150  0.51800  0.87860  Biso   1.000  H
  C49      1.0000 0.40510  0.63990  0.90132  Biso   1.000  C
  H32      1.0000 0.39190  0.67470  0.88520  Biso   1.000  H
  C50      1.0000 0.33351  0.97340  0.89059  Biso   1.000  C
  C51      1.0000 0.31320  0.92470  0.86703  Biso   1.000  C
  H33      1.0000 0.31450  0.85580  0.86600  Biso   1.000  H
  C52      1.0000 0.29090  0.97780  0.84505  Biso   1.000  C
  H34      1.0000 0.27610  0.94390  0.82930  Biso   1.000  H
  C53      1.0000 0.31030  0.12240  0.86743  Biso   1.000  C
  H35      1.0000 0.30970  0.19150  0.86740  Biso   1.000  H
  C54      1.0000 0.33260  0.07480  0.89052  Biso   1.000  C
  H36      1.0000 0.34700  0.11070  0.90600  Biso   1.000  H
  C55      1.0000 0.19282  0.94270  0.26514  Biso   1.000  C
  H37      1.0000 0.16540  0.92760  0.27680  Biso   1.000  H
  C56      1.0000 0.18526  0.97790  0.23700  Biso   1.000  C
  H38      1.0000 0.15340  0.98730  0.22970  Biso   1.000  H
  C57      1.0000 0.22542  0.99900  0.21977  Biso   1.000  C
  C58      1.0000 0.27110  0.98900  0.23183  Biso   1.000  C
  H39      1.0000 0.29910  0.00550  0.22090  Biso   1.000  H
  C59      1.0000 0.27518  0.95450  0.26017  Biso   1.000  C
  H40      1.0000 0.30650  0.94850  0.26850  Biso   1.000  H
  C60      1.0000 0.22036  0.02720  0.18852  Biso   1.000  C
  C61      1.0000 0.17456  0.05810  0.14874  Biso   1.000  C
  C62      1.0000 0.25625  0.06030  0.14528  Biso   1.000  C
  C63      1.0000 0.12678  0.06970  0.13476  Biso   1.000  C
  C64      1.0000 0.08429  0.06860  0.15125  Biso   1.000  C
  H41      1.0000 0.08520  0.05750  0.17180  Biso   1.000  H
  C65      1.0000 0.04070  0.08410  0.13698  Biso   1.000  C
  H42      1.0000 0.01180  0.08460  0.14830  Biso   1.000  H
  C66      1.0000 0.07810  0.09670  0.09228  Biso   1.000  C
  H43      1.0000 0.07600  0.10500  0.07170  Biso   1.000  H
  C67      1.0000 0.12317  0.08320  0.10462  Biso   1.000  C
  H44      1.0000 0.15140  0.08310  0.09270  Biso   1.000  H
  C68      1.0000 0.30052  0.07380  0.12799  Biso   1.000  C
  C69      1.0000 0.29906  0.10180  0.09871  Biso   1.000  C
  H45      1.0000 0.26890  0.11000  0.08910  Biso   1.000  H
  C70      1.0000 0.34159  0.11740  0.08387  Biso   1.000  C
  H46      1.0000 0.34000  0.13740  0.06400  Biso   1.000  H
  C71      1.0000 0.38689  0.07610  0.12438  Biso   1.000  C
  H47      1.0000 0.41760  0.06520  0.13310  Biso   1.000  H
  C72      1.0000 0.34595  0.06120  0.14098  Biso   1.000  C
  H48      1.0000 0.34850  0.04270  0.16090  Biso   1.000  H
  I7       1.0000 0.51607  0.05256  0.10185  Biso   1.000  I
  I8       1.0000 0.44366  0.32758  0.06806  Biso   1.000  I
  I9       1.0000 0.30472  0.30856  0.80583  Biso   1.000  I
  I10      1.0000 0.16422  0.16684  0.82434  Biso   1.000  I
  I11      1.0000 0.42551  0.27464  0.87142  Biso   1.000  I
  I12      1.0000 0.49105  0.28313  0.96084  Biso   1.000  I
  N13      1.0000 0.43800  0.07780  0.03528  Biso   1.000  N
  N14      1.0000 0.40505  0.82930  0.95738  Biso   1.000  N
  N15      1.0000 0.36676  0.82710  0.91083  Biso   1.000  N
  N16      1.0000 0.36947  0.97290  0.93844  Biso   1.000  N
  N17      1.0000 0.44098  0.49450  0.91973  Biso   1.000  N
  N18      1.0000 0.28955  0.07500  0.84516  Biso   1.000  N
  N19      1.0000 0.23691  0.92900  0.27646  Biso   1.000  N
  N20      1.0000 0.17586  0.03570  0.17740  Biso   1.000  N
  N21      1.0000 0.21353  0.07110  0.13190  Biso   1.000  N
  N22      1.0000 0.26164  0.03860  0.17367  Biso   1.000  N
  N23      1.0000 0.03725  0.09860  0.10797  Biso   1.000  N
  N24      1.0000 0.38535  0.10540  0.09627  Biso   1.000  N
  Zn4      1.0000 0.44925  0.14430  0.07533  Biso   1.000  Zn
  Zn5      1.0000 0.25453  0.15365  0.81345  Biso   1.000  Zn
  Zn6      1.0000 0.47232  0.36153  0.91131  Biso   1.000  Zn
  C73      1.0000 0.94900  0.51640  0.96817  Biso   1.000  C
  H49      1.0000 0.96670  0.54890  0.95330  Biso   1.000  H
  C74      1.0000 0.93530  0.56740  0.99282  Biso   1.000  C
  H50      1.0000 0.94390  0.63400  0.99470  Biso   1.000  H
  C75      1.0000 0.90939  0.52250  0.01461  Biso   1.000  C
  C76      1.0000 0.89950  0.42340  0.01176  Biso   1.000  C
  H51      1.0000 0.88310  0.38900  0.02680  Biso   1.000  H
  C77      1.0000 0.91420  0.37660  0.98654  Biso   1.000  C
  H52      1.0000 0.90720  0.30930  0.98450  Biso   1.000  H
  C78      1.0000 0.89342  0.57700  0.04101  Biso   1.000  C
  C79      1.0000 0.89163  0.71520  0.06740  Biso   1.000  C
  C80      1.0000 0.85764  0.57900  0.08524  Biso   1.000  C
  C81      1.0000 0.90691  0.81810  0.07146  Biso   1.000  C
  C82      1.0000 0.92610  0.87040  0.04853  Biso   1.000  C
  H53      1.0000 0.92810  0.84270  0.02950  Biso   1.000  H
  C83      1.0000 0.94270  0.96430  0.05365  Biso   1.000  C
  H54      1.0000 0.95570  0.00050  0.03780  Biso   1.000  H
  C84      1.0000 0.92260  0.95370  0.10250  Biso   1.000  C
  H55      1.0000 0.92150  0.98200  0.12140  Biso   1.000  H
  C85      1.0000 0.90510  0.86010  0.09868  Biso   1.000  C
  H56      1.0000 0.89190  0.82530  0.11480  Biso   1.000  H
  C86      1.0000 0.83351  0.52660  0.10941  Biso   1.000  C
  C87      1.0000 0.81320  0.57530  0.13297  Biso   1.000  C
  H57      1.0000 0.81450  0.64420  0.13400  Biso   1.000  H
  C88      1.0000 0.79090  0.52220  0.15495  Biso   1.000  C
  H58      1.0000 0.77610  0.55610  0.17070  Biso   1.000  H
  C89      1.0000 0.81030  0.37760  0.13257  Biso   1.000  C
  H59      1.0000 0.80970  0.30850  0.13260  Biso   1.000  H
  C90      1.0000 0.83260  0.42520  0.10948  Biso   1.000  C
  H60      1.0000 0.84700  0.38930  0.09400  Biso   1.000  H
  C91      1.0000 0.69282  0.55730  0.73486  Biso   1.000  C
  H61      1.0000 0.66540  0.57240  0.72320  Biso   1.000  H
  C92      1.0000 0.68526  0.52210  0.76300  Biso   1.000  C
  H62      1.0000 0.65340  0.51270  0.77030  Biso   1.000  H
  C93      1.0000 0.72542  0.50100  0.78023  Biso   1.000  C
  C94      1.0000 0.77110  0.51100  0.76817  Biso   1.000  C
  H63      1.0000 0.79910  0.49450  0.77910  Biso   1.000  H
  C95      1.0000 0.77518  0.54550  0.73983  Biso   1.000  C
  H64      1.0000 0.80650  0.55150  0.73150  Biso   1.000  H
  C96      1.0000 0.72036  0.47280  0.81148  Biso   1.000  C
  C97      1.0000 0.67456  0.44190  0.85126  Biso   1.000  C
  C98      1.0000 0.75625  0.43970  0.85472  Biso   1.000  C
  C99      1.0000 0.62678  0.43030  0.86524  Biso   1.000  C
  C100     1.0000 0.58429  0.43140  0.84875  Biso   1.000  C
  H65      1.0000 0.58520  0.44250  0.82820  Biso   1.000  H
  C101     1.0000 0.54070  0.41590  0.86302  Biso   1.000  C
  H66      1.0000 0.51180  0.41540  0.85170  Biso   1.000  H
  C102     1.0000 0.57810  0.40330  0.90772  Biso   1.000  C
  H67      1.0000 0.57600  0.39500  0.92830  Biso   1.000  H
  C103     1.0000 0.62317  0.41680  0.89538  Biso   1.000  C
  H68      1.0000 0.65140  0.41690  0.90730  Biso   1.000  H
  C104     1.0000 0.80052  0.42620  0.87201  Biso   1.000  C
  C105     1.0000 0.79906  0.39820  0.90129  Biso   1.000  C
  H69      1.0000 0.76890  0.39000  0.91090  Biso   1.000  H
  C106     1.0000 0.84159  0.38260  0.91613  Biso   1.000  C
  H70      1.0000 0.84000  0.36260  0.93600  Biso   1.000  H
  C107     1.0000 0.88689  0.42390  0.87562  Biso   1.000  C
  H71      1.0000 0.91760  0.43480  0.86690  Biso   1.000  H
  C108     1.0000 0.84595  0.43880  0.85902  Biso   1.000  C
  H72      1.0000 0.84850  0.45730  0.83910  Biso   1.000  H
  I13      1.0000 0.01607  0.44744  0.89815  Biso   1.000  I
  I14      1.0000 0.94366  0.17242  0.93194  Biso   1.000  I
  I15      1.0000 0.80472  0.19144  0.19417  Biso   1.000  I
  I16      1.0000 0.66422  0.33316  0.17566  Biso   1.000  I
  I17      1.0000 0.92551  0.22536  0.12858  Biso   1.000  I
  I18      1.0000 0.99105  0.21687  0.03916  Biso   1.000  I
  N25      1.0000 0.93800  0.42220  0.96472  Biso   1.000  N
  N26      1.0000 0.90505  0.67070  0.04262  Biso   1.000  N
  N27      1.0000 0.86676  0.67290  0.08917  Biso   1.000  N
  N28      1.0000 0.86947  0.52710  0.06156  Biso   1.000  N
  N29      1.0000 0.94098  0.00550  0.08027  Biso   1.000  N
  N30      1.0000 0.78955  0.42500  0.15484  Biso   1.000  N
  N31      1.0000 0.73691  0.57100  0.72354  Biso   1.000  N
  N32      1.0000 0.67586  0.46430  0.82260  Biso   1.000  N
  N33      1.0000 0.71353  0.42890  0.86810  Biso   1.000  N
  N34      1.0000 0.76164  0.46140  0.82633  Biso   1.000  N
  N35      1.0000 0.53725  0.40140  0.89203  Biso   1.000  N
  N36      1.0000 0.88535  0.39460  0.90373  Biso   1.000  N
  Zn7      1.0000 0.94925  0.35570  0.92467  Biso   1.000  Zn
  Zn8      1.0000 0.75453  0.34635  0.18655  Biso   1.000  Zn
  Zn9      1.0000 0.97232  0.13847  0.08869  Biso   1.000  Zn
  C109     1.0000 0.55100  0.48360  0.46817  Biso   1.000  C
  H73      1.0000 0.53330  0.45110  0.45330  Biso   1.000  H
  C110     1.0000 0.56470  0.43260  0.49282  Biso   1.000  C
  H74      1.0000 0.55610  0.36600  0.49470  Biso   1.000  H
  C111     1.0000 0.59061  0.47750  0.51461  Biso   1.000  C
  C112     1.0000 0.60050  0.57660  0.51176  Biso   1.000  C
  H75      1.0000 0.61690  0.61100  0.52680  Biso   1.000  H
  C113     1.0000 0.58580  0.62340  0.48654  Biso   1.000  C
  H76      1.0000 0.59280  0.69070  0.48450  Biso   1.000  H
  C114     1.0000 0.60658  0.42300  0.54101  Biso   1.000  C
  C115     1.0000 0.60837  0.28480  0.56740  Biso   1.000  C
  C116     1.0000 0.64236  0.42100  0.58524  Biso   1.000  C
  C117     1.0000 0.59309  0.18190  0.57146  Biso   1.000  C
  C118     1.0000 0.57390  0.12960  0.54853  Biso   1.000  C
  H77      1.0000 0.57190  0.15730  0.52950  Biso   1.000  H
  C119     1.0000 0.55730  0.03570  0.55365  Biso   1.000  C
  H78      1.0000 0.54430  0.99950  0.53780  Biso   1.000  H
  C120     1.0000 0.57740  0.04630  0.60250  Biso   1.000  C
  H79      1.0000 0.57850  0.01800  0.62140  Biso   1.000  H
  C121     1.0000 0.59490  0.13990  0.59868  Biso   1.000  C
  H80      1.0000 0.60810  0.17470  0.61480  Biso   1.000  H
  C122     1.0000 0.66649  0.47340  0.60941  Biso   1.000  C
  C123     1.0000 0.68680  0.42470  0.63297  Biso   1.000  C
  H81      1.0000 0.68550  0.35580  0.63400  Biso   1.000  H
  C124     1.0000 0.70910  0.47780  0.65495  Biso   1.000  C
  H82      1.0000 0.72390  0.44390  0.67070  Biso   1.000  H
  C125     1.0000 0.68970  0.62240  0.63257  Biso   1.000  C
  H83      1.0000 0.69030  0.69150  0.63260  Biso   1.000  H
  C126     1.0000 0.66740  0.57480  0.60948  Biso   1.000  C
  H84      1.0000 0.65300  0.61070  0.59400  Biso   1.000  H
  C127     1.0000 0.80718  0.44270  0.23486  Biso   1.000  C
  H85      1.0000 0.83460  0.42760  0.22320  Biso   1.000  H
  C128     1.0000 0.81474  0.47790  0.26300  Biso   1.000  C
  H86      1.0000 0.84660  0.48730  0.27030  Biso   1.000  H
  C129     1.0000 0.77458  0.49900  0.28023  Biso   1.000  C
  C130     1.0000 0.72890  0.48900  0.26817  Biso   1.000  C
  H87      1.0000 0.70090  0.50550  0.27910  Biso   1.000  H
  C131     1.0000 0.72482  0.45450  0.23983  Biso   1.000  C
  H88      1.0000 0.69350  0.44850  0.23150  Biso   1.000  H
  C132     1.0000 0.77964  0.52720  0.31148  Biso   1.000  C
  C133     1.0000 0.82544  0.55810  0.35126  Biso   1.000  C
  C134     1.0000 0.74375  0.56030  0.35472  Biso   1.000  C
  C135     1.0000 0.87322  0.56970  0.36524  Biso   1.000  C
  C136     1.0000 0.91571  0.56860  0.34875  Biso   1.000  C
  H89      1.0000 0.91480  0.55750  0.32820  Biso   1.000  H
  C137     1.0000 0.95930  0.58410  0.36302  Biso   1.000  C
  H90      1.0000 0.98820  0.58460  0.35170  Biso   1.000  H
  C138     1.0000 0.92190  0.59670  0.40772  Biso   1.000  C
  H91      1.0000 0.92400  0.60500  0.42830  Biso   1.000  H
  C139     1.0000 0.87683  0.58320  0.39538  Biso   1.000  C
  H92      1.0000 0.84860  0.58310  0.40730  Biso   1.000  H
  C140     1.0000 0.69948  0.57380  0.37201  Biso   1.000  C
  C141     1.0000 0.70094  0.60180  0.40129  Biso   1.000  C
  H93      1.0000 0.73110  0.61000  0.41090  Biso   1.000  H
  C142     1.0000 0.65841  0.61740  0.41613  Biso   1.000  C
  H94      1.0000 0.66000  0.63740  0.43600  Biso   1.000  H
  C143     1.0000 0.61311  0.57610  0.37562  Biso   1.000  C
  H95      1.0000 0.58240  0.56520  0.36690  Biso   1.000  H
  C144     1.0000 0.65405  0.56120  0.35902  Biso   1.000  C
  H96      1.0000 0.65150  0.54270  0.33910  Biso   1.000  H
  I19      1.0000 0.48393  0.55256  0.39815  Biso   1.000  I
  I20      1.0000 0.55634  0.82758  0.43194  Biso   1.000  I
  I21      1.0000 0.69528  0.80856  0.69417  Biso   1.000  I
  I22      1.0000 0.83578  0.66684  0.67566  Biso   1.000  I
  I23      1.0000 0.57449  0.77464  0.62858  Biso   1.000  I
  I24      1.0000 0.50895  0.78313  0.53916  Biso   1.000  I
  N37      1.0000 0.56200  0.57780  0.46472  Biso   1.000  N
  N38      1.0000 0.59495  0.32930  0.54262  Biso   1.000  N
  N39      1.0000 0.63324  0.32710  0.58917  Biso   1.000  N
  N40      1.0000 0.63053  0.47290  0.56156  Biso   1.000  N
  N41      1.0000 0.55902  0.99450  0.58027  Biso   1.000  N
  N42      1.0000 0.71045  0.57500  0.65484  Biso   1.000  N
  N43      1.0000 0.76309  0.42900  0.22354  Biso   1.000  N
  N44      1.0000 0.82414  0.53570  0.32260  Biso   1.000  N
  N45      1.0000 0.78647  0.57110  0.36810  Biso   1.000  N
  N46      1.0000 0.73836  0.53860  0.32633  Biso   1.000  N
  N47      1.0000 0.96275  0.59860  0.39203  Biso   1.000  N
  N48      1.0000 0.61465  0.60540  0.40373  Biso   1.000  N
  Zn10     1.0000 0.55075  0.64430  0.42467  Biso   1.000  Zn
  Zn11     1.0000 0.74547  0.65365  0.68655  Biso   1.000  Zn
  Zn12     1.0000 0.52768  0.86153  0.58869  Biso   1.000  Zn
  C145     1.0000 0.94900  0.98360  0.46817  Biso   1.000  C
  H97      1.0000 0.96670  0.95110  0.45330  Biso   1.000  H
  C146     1.0000 0.93530  0.93260  0.49282  Biso   1.000  C
  H98      1.0000 0.94390  0.86600  0.49470  Biso   1.000  H
  C147     1.0000 0.90939  0.97750  0.51461  Biso   1.000  C
  C148     1.0000 0.89950  0.07660  0.51176  Biso   1.000  C
  H99      1.0000 0.88310  0.11100  0.52680  Biso   1.000  H
  C149     1.0000 0.91420  0.12340  0.48654  Biso   1.000  C
  H100     1.0000 0.90720  0.19070  0.48450  Biso   1.000  H
  C150     1.0000 0.89342  0.92300  0.54101  Biso   1.000  C
  C151     1.0000 0.89163  0.78480  0.56740  Biso   1.000  C
  C152     1.0000 0.85764  0.92100  0.58524  Biso   1.000  C
  C153     1.0000 0.90691  0.68190  0.57146  Biso   1.000  C
  C154     1.0000 0.92610  0.62960  0.54853  Biso   1.000  C
  H101     1.0000 0.92810  0.65730  0.52950  Biso   1.000  H
  C155     1.0000 0.94270  0.53570  0.55365  Biso   1.000  C
  H102     1.0000 0.95570  0.49950  0.53780  Biso   1.000  H
  C156     1.0000 0.92260  0.54630  0.60250  Biso   1.000  C
  H103     1.0000 0.92150  0.51800  0.62140  Biso   1.000  H
  C157     1.0000 0.90510  0.63990  0.59868  Biso   1.000  C
  H104     1.0000 0.89190  0.67470  0.61480  Biso   1.000  H
  C158     1.0000 0.83351  0.97340  0.60941  Biso   1.000  C
  C159     1.0000 0.81320  0.92470  0.63297  Biso   1.000  C
  H105     1.0000 0.81450  0.85580  0.63400  Biso   1.000  H
  C160     1.0000 0.79090  0.97780  0.65495  Biso   1.000  C
  H106     1.0000 0.77610  0.94390  0.67070  Biso   1.000  H
  C161     1.0000 0.81030  0.12240  0.63257  Biso   1.000  C
  H107     1.0000 0.80970  0.19150  0.63260  Biso   1.000  H
  C162     1.0000 0.83260  0.07480  0.60948  Biso   1.000  C
  H108     1.0000 0.84700  0.11070  0.59400  Biso   1.000  H
  C163     1.0000 0.69282  0.94270  0.23486  Biso   1.000  C
  H109     1.0000 0.66540  0.92760  0.22320  Biso   1.000  H
  C164     1.0000 0.68526  0.97790  0.26300  Biso   1.000  C
  H110     1.0000 0.65340  0.98730  0.27030  Biso   1.000  H
  C165     1.0000 0.72542  0.99900  0.28023  Biso   1.000  C
  C166     1.0000 0.77110  0.98900  0.26817  Biso   1.000  C
  H111     1.0000 0.79910  0.00550  0.27910  Biso   1.000  H
  C167     1.0000 0.77518  0.95450  0.23983  Biso   1.000  C
  H112     1.0000 0.80650  0.94850  0.23150  Biso   1.000  H
  C168     1.0000 0.72036  0.02720  0.31148  Biso   1.000  C
  C169     1.0000 0.67456  0.05810  0.35126  Biso   1.000  C
  C170     1.0000 0.75625  0.06030  0.35472  Biso   1.000  C
  C171     1.0000 0.62678  0.06970  0.36524  Biso   1.000  C
  C172     1.0000 0.58429  0.06860  0.34875  Biso   1.000  C
  H113     1.0000 0.58520  0.05750  0.32820  Biso   1.000  H
  C173     1.0000 0.54070  0.08410  0.36302  Biso   1.000  C
  H114     1.0000 0.51180  0.08460  0.35170  Biso   1.000  H
  C174     1.0000 0.57810  0.09670  0.40772  Biso   1.000  C
  H115     1.0000 0.57600  0.10500  0.42830  Biso   1.000  H
  C175     1.0000 0.62317  0.08320  0.39538  Biso   1.000  C
  H116     1.0000 0.65140  0.08310  0.40730  Biso   1.000  H
  C176     1.0000 0.80052  0.07380  0.37201  Biso   1.000  C
  C177     1.0000 0.79906  0.10180  0.40129  Biso   1.000  C
  H117     1.0000 0.76890  0.11000  0.41090  Biso   1.000  H
  C178     1.0000 0.84159  0.11740  0.41613  Biso   1.000  C
  H118     1.0000 0.84000  0.13740  0.43600  Biso   1.000  H
  C179     1.0000 0.88689  0.07610  0.37562  Biso   1.000  C
  H119     1.0000 0.91760  0.06520  0.36690  Biso   1.000  H
  C180     1.0000 0.84595  0.06120  0.35902  Biso   1.000  C
  H120     1.0000 0.84850  0.04270  0.33910  Biso   1.000  H
  I25      1.0000 0.01607  0.05256  0.39815  Biso   1.000  I
  I26      1.0000 0.94366  0.32758  0.43194  Biso   1.000  I
  I27      1.0000 0.80472  0.30856  0.69417  Biso   1.000  I
  I28      1.0000 0.66422  0.16684  0.67566  Biso   1.000  I
  I29      1.0000 0.92551  0.27464  0.62858  Biso   1.000  I
  I30      1.0000 0.99105  0.28313  0.53916  Biso   1.000  I
  N49      1.0000 0.93800  0.07780  0.46472  Biso   1.000  N
  N50      1.0000 0.90505  0.82930  0.54262  Biso   1.000  N
  N51      1.0000 0.86676  0.82710  0.58917  Biso   1.000  N
  N52      1.0000 0.86947  0.97290  0.56156  Biso   1.000  N
  N53      1.0000 0.94098  0.49450  0.58027  Biso   1.000  N
  N54      1.0000 0.78955  0.07500  0.65484  Biso   1.000  N
  N55      1.0000 0.73691  0.92900  0.22354  Biso   1.000  N
  N56      1.0000 0.67586  0.03570  0.32260  Biso   1.000  N
  N57      1.0000 0.71353  0.07110  0.36810  Biso   1.000  N
  N58      1.0000 0.76164  0.03860  0.32633  Biso   1.000  N
  N59      1.0000 0.53725  0.09860  0.39203  Biso   1.000  N
  N60      1.0000 0.88535  0.10540  0.40373  Biso   1.000  N
  Zn13     1.0000 0.94925  0.14430  0.42467  Biso   1.000  Zn
  Zn14     1.0000 0.75453  0.15365  0.68655  Biso   1.000  Zn
  Zn15     1.0000 0.97232  0.36153  0.58869  Biso   1.000  Zn
  C181     1.0000 0.55100  0.01640  0.96817  Biso   1.000  C
  H121     1.0000 0.53330  0.04890  0.95330  Biso   1.000  H
  C182     1.0000 0.56470  0.06740  0.99282  Biso   1.000  C
  H122     1.0000 0.55610  0.13400  0.99470  Biso   1.000  H
  C183     1.0000 0.59061  0.02250  0.01461  Biso   1.000  C
  C184     1.0000 0.60050  0.92340  0.01176  Biso   1.000  C
  H123     1.0000 0.61690  0.88900  0.02680  Biso   1.000  H
  C185     1.0000 0.58580  0.87660  0.98654  Biso   1.000  C
  H124     1.0000 0.59280  0.80930  0.98450  Biso   1.000  H
  C186     1.0000 0.60658  0.07700  0.04101  Biso   1.000  C
  C187     1.0000 0.60837  0.21520  0.06740  Biso   1.000  C
  C188     1.0000 0.64236  0.07900  0.08524  Biso   1.000  C
  C189     1.0000 0.59309  0.31810  0.07146  Biso   1.000  C
  C190     1.0000 0.57390  0.37040  0.04853  Biso   1.000  C
  H125     1.0000 0.57190  0.34270  0.02950  Biso   1.000  H
  C191     1.0000 0.55730  0.46430  0.05365  Biso   1.000  C
  H126     1.0000 0.54430  0.50050  0.03780  Biso   1.000  H
  C192     1.0000 0.57740  0.45370  0.10250  Biso   1.000  C
  H127     1.0000 0.57850  0.48200  0.12140  Biso   1.000  H
  C193     1.0000 0.59490  0.36010  0.09868  Biso   1.000  C
  H128     1.0000 0.60810  0.32530  0.11480  Biso   1.000  H
  C194     1.0000 0.66649  0.02660  0.10941  Biso   1.000  C
  C195     1.0000 0.68680  0.07530  0.13297  Biso   1.000  C
  H129     1.0000 0.68550  0.14420  0.13400  Biso   1.000  H
  C196     1.0000 0.70910  0.02220  0.15495  Biso   1.000  C
  H130     1.0000 0.72390  0.05610  0.17070  Biso   1.000  H
  C197     1.0000 0.68970  0.87760  0.13257  Biso   1.000  C
  H131     1.0000 0.69030  0.80850  0.13260  Biso   1.000  H
  C198     1.0000 0.66740  0.92520  0.10948  Biso   1.000  C
  H132     1.0000 0.65300  0.88930  0.09400  Biso   1.000  H
  C199     1.0000 0.80718  0.05730  0.73486  Biso   1.000  C
  H133     1.0000 0.83460  0.07240  0.72320  Biso   1.000  H
  C200     1.0000 0.81474  0.02210  0.76300  Biso   1.000  C
  H134     1.0000 0.84660  0.01270  0.77030  Biso   1.000  H
  C201     1.0000 0.77458  0.00100  0.78023  Biso   1.000  C
  C202     1.0000 0.72890  0.01100  0.76817  Biso   1.000  C
  H135     1.0000 0.70090  0.99450  0.77910  Biso   1.000  H
  C203     1.0000 0.72482  0.04550  0.73983  Biso   1.000  C
  H136     1.0000 0.69350  0.05150  0.73150  Biso   1.000  H
  C204     1.0000 0.77964  0.97280  0.81148  Biso   1.000  C
  C205     1.0000 0.82544  0.94190  0.85126  Biso   1.000  C
  C206     1.0000 0.74375  0.93970  0.85472  Biso   1.000  C
  C207     1.0000 0.87322  0.93030  0.86524  Biso   1.000  C
  C208     1.0000 0.91571  0.93140  0.84875  Biso   1.000  C
  H137     1.0000 0.91480  0.94250  0.82820  Biso   1.000  H
  C209     1.0000 0.95930  0.91590  0.86302  Biso   1.000  C
  H138     1.0000 0.98820  0.91540  0.85170  Biso   1.000  H
  C210     1.0000 0.92190  0.90330  0.90772  Biso   1.000  C
  H139     1.0000 0.92400  0.89500  0.92830  Biso   1.000  H
  C211     1.0000 0.87683  0.91680  0.89538  Biso   1.000  C
  H140     1.0000 0.84860  0.91690  0.90730  Biso   1.000  H
  C212     1.0000 0.69948  0.92620  0.87201  Biso   1.000  C
  C213     1.0000 0.70094  0.89820  0.90129  Biso   1.000  C
  H141     1.0000 0.73110  0.89000  0.91090  Biso   1.000  H
  C214     1.0000 0.65841  0.88260  0.91613  Biso   1.000  C
  H142     1.0000 0.66000  0.86260  0.93600  Biso   1.000  H
  C215     1.0000 0.61311  0.92390  0.87562  Biso   1.000  C
  H143     1.0000 0.58240  0.93480  0.86690  Biso   1.000  H
  C216     1.0000 0.65405  0.93880  0.85902  Biso   1.000  C
  H144     1.0000 0.65150  0.95730  0.83910  Biso   1.000  H
  I31      1.0000 0.48393  0.94744  0.89815  Biso   1.000  I
  I32      1.0000 0.55634  0.67242  0.93194  Biso   1.000  I
  I33      1.0000 0.69528  0.69144  0.19417  Biso   1.000  I
  I34      1.0000 0.83578  0.83316  0.17566  Biso   1.000  I
  I35      1.0000 0.57449  0.72536  0.12858  Biso   1.000  I
  I36      1.0000 0.50895  0.71687  0.03916  Biso   1.000  I
  N61      1.0000 0.56200  0.92220  0.96472  Biso   1.000  N
  N62      1.0000 0.59495  0.17070  0.04262  Biso   1.000  N
  N63      1.0000 0.63324  0.17290  0.08917  Biso   1.000  N
  N64      1.0000 0.63053  0.02710  0.06156  Biso   1.000  N
  N65      1.0000 0.55902  0.50550  0.08027  Biso   1.000  N
  N66      1.0000 0.71045  0.92500  0.15484  Biso   1.000  N
  N67      1.0000 0.76309  0.07100  0.72354  Biso   1.000  N
  N68      1.0000 0.82414  0.96430  0.82260  Biso   1.000  N
  N69      1.0000 0.78647  0.92890  0.86810  Biso   1.000  N
  N70      1.0000 0.73836  0.96140  0.82633  Biso   1.000  N
  N71      1.0000 0.96275  0.90140  0.89203  Biso   1.000  N
  N72      1.0000 0.61465  0.89460  0.90373  Biso   1.000  N
  Zn16     1.0000 0.55075  0.85570  0.92467  Biso   1.000  Zn
  Zn17     1.0000 0.74547  0.84635  0.18655  Biso   1.000  Zn
  Zn18     1.0000 0.52768  0.63847  0.08869  Biso   1.000  Zn
  C217     1.0000 0.05100  0.48360  0.03183  Biso   1.000  C
  H145     1.0000 0.03330  0.45110  0.04670  Biso   1.000  H
  C218     1.0000 0.06470  0.43260  0.00718  Biso   1.000  C
  H146     1.0000 0.05610  0.36600  0.00530  Biso   1.000  H
  C219     1.0000 0.09061  0.47750  0.98539  Biso   1.000  C
  C220     1.0000 0.10050  0.57660  0.98824  Biso   1.000  C
  H147     1.0000 0.11690  0.61100  0.97320  Biso   1.000  H
  C221     1.0000 0.08580  0.62340  0.01346  Biso   1.000  C
  H148     1.0000 0.09280  0.69070  0.01550  Biso   1.000  H
  C222     1.0000 0.10658  0.42300  0.95899  Biso   1.000  C
  C223     1.0000 0.10837  0.28480  0.93260  Biso   1.000  C
  C224     1.0000 0.14236  0.42100  0.91476  Biso   1.000  C
  C225     1.0000 0.09309  0.18190  0.92854  Biso   1.000  C
  C226     1.0000 0.07390  0.12960  0.95147  Biso   1.000  C
  H149     1.0000 0.07190  0.15730  0.97050  Biso   1.000  H
  C227     1.0000 0.05730  0.03570  0.94635  Biso   1.000  C
  H150     1.0000 0.04430  0.99950  0.96220  Biso   1.000  H
  C228     1.0000 0.07740  0.04630  0.89750  Biso   1.000  C
  H151     1.0000 0.07850  0.01800  0.87860  Biso   1.000  H
  C229     1.0000 0.09490  0.13990  0.90132  Biso   1.000  C
  H152     1.0000 0.10810  0.17470  0.88520  Biso   1.000  H
  C230     1.0000 0.16649  0.47340  0.89059  Biso   1.000  C
  C231     1.0000 0.18680  0.42470  0.86703  Biso   1.000  C
  H153     1.0000 0.18550  0.35580  0.86600  Biso   1.000  H
  C232     1.0000 0.20910  0.47780  0.84505  Biso   1.000  C
  H154     1.0000 0.22390  0.44390  0.82930  Biso   1.000  H
  C233     1.0000 0.18970  0.62240  0.86743  Biso   1.000  C
  H155     1.0000 0.19030  0.69150  0.86740  Biso   1.000  H
  C234     1.0000 0.16740  0.57480  0.89052  Biso   1.000  C
  H156     1.0000 0.15300  0.61070  0.90600  Biso   1.000  H
  C235     1.0000 0.30718  0.44270  0.26514  Biso   1.000  C
  H157     1.0000 0.33460  0.42760  0.27680  Biso   1.000  H
  C236     1.0000 0.31474  0.47790  0.23700  Biso   1.000  C
  H158     1.0000 0.34660  0.48730  0.22970  Biso   1.000  H
  C237     1.0000 0.27458  0.49900  0.21977  Biso   1.000  C
  C238     1.0000 0.22890  0.48900  0.23183  Biso   1.000  C
  H159     1.0000 0.20090  0.50550  0.22090  Biso   1.000  H
  C239     1.0000 0.22482  0.45450  0.26017  Biso   1.000  C
  H160     1.0000 0.19350  0.44850  0.26850  Biso   1.000  H
  C240     1.0000 0.27964  0.52720  0.18852  Biso   1.000  C
  C241     1.0000 0.32544  0.55810  0.14874  Biso   1.000  C
  C242     1.0000 0.24375  0.56030  0.14528  Biso   1.000  C
  C243     1.0000 0.37322  0.56970  0.13476  Biso   1.000  C
  C244     1.0000 0.41571  0.56860  0.15125  Biso   1.000  C
  H161     1.0000 0.41480  0.55750  0.17180  Biso   1.000  H
  C245     1.0000 0.45930  0.58410  0.13698  Biso   1.000  C
  H162     1.0000 0.48820  0.58460  0.14830  Biso   1.000  H
  C246     1.0000 0.42190  0.59670  0.09228  Biso   1.000  C
  H163     1.0000 0.42400  0.60500  0.07170  Biso   1.000  H
  C247     1.0000 0.37683  0.58320  0.10462  Biso   1.000  C
  H164     1.0000 0.34860  0.58310  0.09270  Biso   1.000  H
  C248     1.0000 0.19948  0.57380  0.12799  Biso   1.000  C
  C249     1.0000 0.20094  0.60180  0.09871  Biso   1.000  C
  H165     1.0000 0.23110  0.61000  0.08910  Biso   1.000  H
  C250     1.0000 0.15841  0.61740  0.08387  Biso   1.000  C
  H166     1.0000 0.16000  0.63740  0.06400  Biso   1.000  H
  C251     1.0000 0.11311  0.57610  0.12438  Biso   1.000  C
  H167     1.0000 0.08240  0.56520  0.13310  Biso   1.000  H
  C252     1.0000 0.15405  0.56120  0.14098  Biso   1.000  C
  H168     1.0000 0.15150  0.54270  0.16090  Biso   1.000  H
  I37      1.0000 0.98393  0.55256  0.10185  Biso   1.000  I
  I38      1.0000 0.05634  0.82758  0.06806  Biso   1.000  I
  I39      1.0000 0.19528  0.80856  0.80583  Biso   1.000  I
  I40      1.0000 0.33578  0.66684  0.82434  Biso   1.000  I
  I41      1.0000 0.07449  0.77464  0.87142  Biso   1.000  I
  I42      1.0000 0.00895  0.78313  0.96084  Biso   1.000  I
  N73      1.0000 0.06200  0.57780  0.03528  Biso   1.000  N
  N74      1.0000 0.09495  0.32930  0.95738  Biso   1.000  N
  N75      1.0000 0.13324  0.32710  0.91083  Biso   1.000  N
  N76      1.0000 0.13053  0.47290  0.93844  Biso   1.000  N
  N77      1.0000 0.05902  0.99450  0.91973  Biso   1.000  N
  N78      1.0000 0.21045  0.57500  0.84516  Biso   1.000  N
  N79      1.0000 0.26309  0.42900  0.27646  Biso   1.000  N
  N80      1.0000 0.32414  0.53570  0.17740  Biso   1.000  N
  N81      1.0000 0.28647  0.57110  0.13190  Biso   1.000  N
  N82      1.0000 0.23836  0.53860  0.17367  Biso   1.000  N
  N83      1.0000 0.46275  0.59860  0.10797  Biso   1.000  N
  N84      1.0000 0.11465  0.60540  0.09627  Biso   1.000  N
  Zn19     1.0000 0.05075  0.64430  0.07533  Biso   1.000  Zn
  Zn20     1.0000 0.24547  0.65365  0.81345  Biso   1.000  Zn
  Zn21     1.0000 0.02768  0.86153  0.91131  Biso   1.000  Zn
  C253     1.0000 0.44900  0.51640  0.53183  Biso   1.000  C
  H169     1.0000 0.46670  0.54890  0.54670  Biso   1.000  H
  C254     1.0000 0.43530  0.56740  0.50718  Biso   1.000  C
  H170     1.0000 0.44390  0.63400  0.50530  Biso   1.000  H
  C255     1.0000 0.40939  0.52250  0.48539  Biso   1.000  C
  C256     1.0000 0.39950  0.42340  0.48824  Biso   1.000  C
  H171     1.0000 0.38310  0.38900  0.47320  Biso   1.000  H
  C257     1.0000 0.41420  0.37660  0.51346  Biso   1.000  C
  H172     1.0000 0.40720  0.30930  0.51550  Biso   1.000  H
  C258     1.0000 0.39342  0.57700  0.45899  Biso   1.000  C
  C259     1.0000 0.39163  0.71520  0.43260  Biso   1.000  C
  C260     1.0000 0.35764  0.57900  0.41476  Biso   1.000  C
  C261     1.0000 0.40691  0.81810  0.42854  Biso   1.000  C
  C262     1.0000 0.42610  0.87040  0.45147  Biso   1.000  C
  H173     1.0000 0.42810  0.84270  0.47050  Biso   1.000  H
  C263     1.0000 0.44270  0.96430  0.44635  Biso   1.000  C
  H174     1.0000 0.45570  0.00050  0.46220  Biso   1.000  H
  C264     1.0000 0.42260  0.95370  0.39750  Biso   1.000  C
  H175     1.0000 0.42150  0.98200  0.37860  Biso   1.000  H
  C265     1.0000 0.40510  0.86010  0.40132  Biso   1.000  C
  H176     1.0000 0.39190  0.82530  0.38520  Biso   1.000  H
  C266     1.0000 0.33351  0.52660  0.39059  Biso   1.000  C
  C267     1.0000 0.31320  0.57530  0.36703  Biso   1.000  C
  H177     1.0000 0.31450  0.64420  0.36600  Biso   1.000  H
  C268     1.0000 0.29090  0.52220  0.34505  Biso   1.000  C
  H178     1.0000 0.27610  0.55610  0.32930  Biso   1.000  H
  C269     1.0000 0.31030  0.37760  0.36743  Biso   1.000  C
  H179     1.0000 0.30970  0.30850  0.36740  Biso   1.000  H
  C270     1.0000 0.33260  0.42520  0.39052  Biso   1.000  C
  H180     1.0000 0.34700  0.38930  0.40600  Biso   1.000  H
  C271     1.0000 0.19282  0.55730  0.76514  Biso   1.000  C
  H181     1.0000 0.16540  0.57240  0.77680  Biso   1.000  H
  C272     1.0000 0.18526  0.52210  0.73700  Biso   1.000  C
  H182     1.0000 0.15340  0.51270  0.72970  Biso   1.000  H
  C273     1.0000 0.22542  0.50100  0.71977  Biso   1.000  C
  C274     1.0000 0.27110  0.51100  0.73183  Biso   1.000  C
  H183     1.0000 0.29910  0.49450  0.72090  Biso   1.000  H
  C275     1.0000 0.27518  0.54550  0.76017  Biso   1.000  C
  H184     1.0000 0.30650  0.55150  0.76850  Biso   1.000  H
  C276     1.0000 0.22036  0.47280  0.68852  Biso   1.000  C
  C277     1.0000 0.17456  0.44190  0.64874  Biso   1.000  C
  C278     1.0000 0.25625  0.43970  0.64528  Biso   1.000  C
  C279     1.0000 0.12678  0.43030  0.63476  Biso   1.000  C
  C280     1.0000 0.08429  0.43140  0.65125  Biso   1.000  C
  H185     1.0000 0.08520  0.44250  0.67180  Biso   1.000  H
  C281     1.0000 0.04070  0.41590  0.63698  Biso   1.000  C
  H186     1.0000 0.01180  0.41540  0.64830  Biso   1.000  H
  C282     1.0000 0.07810  0.40330  0.59228  Biso   1.000  C
  H187     1.0000 0.07600  0.39500  0.57170  Biso   1.000  H
  C283     1.0000 0.12317  0.41680  0.60462  Biso   1.000  C
  H188     1.0000 0.15140  0.41690  0.59270  Biso   1.000  H
  C284     1.0000 0.30052  0.42620  0.62799  Biso   1.000  C
  C285     1.0000 0.29906  0.39820  0.59871  Biso   1.000  C
  H189     1.0000 0.26890  0.39000  0.58910  Biso   1.000  H
  C286     1.0000 0.34159  0.38260  0.58387  Biso   1.000  C
  H190     1.0000 0.34000  0.36260  0.56400  Biso   1.000  H
  C287     1.0000 0.38689  0.42390  0.62438  Biso   1.000  C
  H191     1.0000 0.41760  0.43480  0.63310  Biso   1.000  H
  C288     1.0000 0.34595  0.43880  0.64098  Biso   1.000  C
  H192     1.0000 0.34850  0.45730  0.66090  Biso   1.000  H
  I43      1.0000 0.51607  0.44744  0.60185  Biso   1.000  I
  I44      1.0000 0.44366  0.17242  0.56806  Biso   1.000  I
  I45      1.0000 0.30472  0.19144  0.30583  Biso   1.000  I
  I46      1.0000 0.16422  0.33316  0.32434  Biso   1.000  I
  I47      1.0000 0.42551  0.22536  0.37142  Biso   1.000  I
  I48      1.0000 0.49105  0.21687  0.46084  Biso   1.000  I
  N85      1.0000 0.43800  0.42220  0.53528  Biso   1.000  N
  N86      1.0000 0.40505  0.67070  0.45738  Biso   1.000  N
  N87      1.0000 0.36676  0.67290  0.41083  Biso   1.000  N
  N88      1.0000 0.36947  0.52710  0.43844  Biso   1.000  N
  N89      1.0000 0.44098  0.00550  0.41973  Biso   1.000  N
  N90      1.0000 0.28955  0.42500  0.34516  Biso   1.000  N
  N91      1.0000 0.23691  0.57100  0.77646  Biso   1.000  N
  N92      1.0000 0.17586  0.46430  0.67740  Biso   1.000  N
  N93      1.0000 0.21353  0.42890  0.63190  Biso   1.000  N
  N94      1.0000 0.26164  0.46140  0.67367  Biso   1.000  N
  N95      1.0000 0.03725  0.40140  0.60797  Biso   1.000  N
  N96      1.0000 0.38535  0.39460  0.59627  Biso   1.000  N
  Zn22     1.0000 0.44925  0.35570  0.57533  Biso   1.000  Zn
  Zn23     1.0000 0.25453  0.34635  0.31345  Biso   1.000  Zn
  Zn24     1.0000 0.47232  0.13847  0.41131  Biso   1.000  Zn
