data_image0
_cell_length_a       27.568
_cell_length_b       13.7285
_cell_length_c       45.836
_cell_angle_alpha    90
_cell_angle_beta     90
_cell_angle_gamma    90

_symmetry_space_group_name_H-M    "P 1"
_symmetry_int_tables_number       1

loop_
  _symmetry_equiv_pos_as_xyz
  'x, y, z'

loop_
  _atom_site_label
  _atom_site_occupancy
  _atom_site_fract_x
  _atom_site_fract_y
  _atom_site_fract_z
  _atom_site_thermal_displace_type
  _atom_site_B_iso_or_equiv
  _atom_site_type_symbol
  C1       1.0000 0.72250  0.54630  0.25920  Biso   1.000  C
  H1       1.0000 0.69110  0.55110  0.26760  Biso   1.000  H
  C2       1.0000 0.72640  0.51080  0.23122  Biso   1.000  C
  H2       1.0000 0.69840  0.49160  0.22060  Biso   1.000  H
  C3       1.0000 0.77230  0.50390  0.21892  Biso   1.000  C
  C4       1.0000 0.81270  0.52700  0.23540  Biso   1.000  C
  H3       1.0000 0.84450  0.51940  0.22770  Biso   1.000  H
  C5       1.0000 0.80530  0.56180  0.26364  Biso   1.000  C
  H4       1.0000 0.83280  0.57730  0.27520  Biso   1.000  H
  C6       1.0000 0.77810  0.47630  0.18762  Biso   1.000  C
  C7       1.0000 0.74260  0.44090  0.14457  Biso   1.000  C
  C8       1.0000 0.82430  0.44340  0.14855  Biso   1.000  C
  C9       1.0000 0.69800  0.42670  0.12682  Biso   1.000  C
  C10      1.0000 0.65240  0.43950  0.13995  Biso   1.000  C
  H5       1.0000 0.64980  0.45850  0.15980  Biso   1.000  H
  C11      1.0000 0.61160  0.42360  0.12320  Biso   1.000  C
  H6       1.0000 0.58070  0.43350  0.13190  Biso   1.000  H
  C12      1.0000 0.65770  0.38420  0.08267  Biso   1.000  C
  H7       1.0000 0.65950  0.36520  0.06280  Biso   1.000  H
  C13      1.0000 0.70000  0.39980  0.09780  Biso   1.000  C
  H8       1.0000 0.73040  0.39220  0.08840  Biso   1.000  H
  C14      1.0000 0.87260  0.43210  0.13502  Biso   1.000  C
  C15      1.0000 0.87750  0.41710  0.10531  Biso   1.000  C
  H9       1.0000 0.84980  0.41630  0.09300  Biso   1.000  H
  C16      1.0000 0.92360  0.40320  0.09385  Biso   1.000  C
  H10      1.0000 0.92690  0.39530  0.07330  Biso   1.000  H
  C17      1.0000 0.95910  0.41630  0.13911  Biso   1.000  C
  H11      1.0000 0.98730  0.41650  0.15100  Biso   1.000  H
  C18      1.0000 0.91430  0.43270  0.15208  Biso   1.000  C
  H12      1.0000 0.91210  0.44420  0.17250  Biso   1.000  H
  C19      1.0000 0.81020  0.62660  0.36603  Biso   1.000  C
  H13      1.0000 0.81130  0.69580  0.36570  Biso   1.000  H
  C20      1.0000 0.83180  0.57700  0.38889  Biso   1.000  C
  H14      1.0000 0.84760  0.61220  0.40400  Biso   1.000  H
  C21      1.0000 0.83050  0.47710  0.38972  Biso   1.000  C
  C22      1.0000 0.80740  0.42820  0.36750  Biso   1.000  C
  H15      1.0000 0.80560  0.35910  0.36750  Biso   1.000  H
  C23      1.0000 0.78660  0.48170  0.34494  Biso   1.000  C
  H16      1.0000 0.77110  0.44790  0.32940  Biso   1.000  H
  C24      1.0000 0.85460  0.42350  0.41370  Biso   1.000  C
  C25      1.0000 0.88980  0.42240  0.45789  Biso   1.000  C
  C26      1.0000 0.88880  0.28530  0.43045  Biso   1.000  C
  C27      1.0000 0.94970  0.48080  0.52937  Biso   1.000  C
  H17      1.0000 0.96940  0.44910  0.54350  Biso   1.000  H
  C28      1.0000 0.93520  0.42960  0.50550  Biso   1.000  C
  H18      1.0000 0.94450  0.36340  0.50310  Biso   1.000  H
  C29      1.0000 0.90680  0.47520  0.48457  Biso   1.000  C
  C30      1.0000 0.89490  0.57270  0.48838  Biso   1.000  C
  H19      1.0000 0.87600  0.60640  0.47430  Biso   1.000  H
  C31      1.0000 0.91130  0.61930  0.51314  Biso   1.000  C
  H20      1.0000 0.90370  0.68630  0.51570  Biso   1.000  H
  C32      1.0000 0.93280  0.02940  0.44310  Biso   1.000  C
  H21      1.0000 0.93910  0.98770  0.45920  Biso   1.000  H
  C33      1.0000 0.91600  0.12370  0.44830  Biso   1.000  C
  H22      1.0000 0.91190  0.14630  0.46770  Biso   1.000  H
  C34      1.0000 0.90530  0.18400  0.42506  Biso   1.000  C
  C35      1.0000 0.91210  0.14860  0.39690  Biso   1.000  C
  H23      1.0000 0.90540  0.18810  0.38040  Biso   1.000  H
  C36      1.0000 0.92880  0.05490  0.39370  Biso   1.000  C
  H24      1.0000 0.93240  0.03000  0.37450  Biso   1.000  H
  I1       1.0000 0.80479  0.81030  0.30392  Biso   1.000  I
  I2       1.0000 0.66305  0.67193  0.32371  Biso   1.000  I
  I3       1.0000 0.07666  0.28118  0.13319  Biso   1.000  I
  I4       1.0000 0.01521  0.27862  0.04296  Biso   1.000  I
  I5       1.0000 0.48303  0.45231  0.10041  Biso   1.000  I
  I6       1.0000 0.55086  0.17495  0.06648  Biso   1.000  I
  N1       1.0000 0.76100  0.57440  0.27529  Biso   1.000  N
  N2       1.0000 0.73680  0.46380  0.17245  Biso   1.000  N
  N3       1.0000 0.78550  0.43010  0.13105  Biso   1.000  N
  N4       1.0000 0.82270  0.46650  0.17689  Biso   1.000  N
  N5       1.0000 0.61360  0.39500  0.09530  Biso   1.000  N
  N6       1.0000 0.96410  0.40030  0.11056  Biso   1.000  N
  N7       1.0000 0.78760  0.57940  0.34430  Biso   1.000  N
  N8       1.0000 0.86590  0.47300  0.43781  Biso   1.000  N
  N9       1.0000 0.90170  0.32800  0.45566  Biso   1.000  N
  N10      1.0000 0.86490  0.32930  0.40881  Biso   1.000  N
  N11      1.0000 0.93730  0.57430  0.53376  Biso   1.000  N
  N12      1.0000 0.94010  0.99640  0.41620  Biso   1.000  N
  Zn1      1.0000 0.75324  0.65755  0.31220  Biso   1.000  Zn
  Zn2      1.0000 0.02980  0.36176  0.09205  Biso   1.000  Zn
  Zn3      1.0000 0.54954  0.35904  0.07372  Biso   1.000  Zn
  C37      1.0000 0.77750  0.45370  0.75920  Biso   1.000  C
  H25      1.0000 0.80890  0.44890  0.76760  Biso   1.000  H
  C38      1.0000 0.77360  0.48920  0.73122  Biso   1.000  C
  H26      1.0000 0.80160  0.50840  0.72060  Biso   1.000  H
  C39      1.0000 0.72770  0.49610  0.71892  Biso   1.000  C
  C40      1.0000 0.68730  0.47300  0.73540  Biso   1.000  C
  H27      1.0000 0.65550  0.48060  0.72770  Biso   1.000  H
  C41      1.0000 0.69470  0.43820  0.76364  Biso   1.000  C
  H28      1.0000 0.66720  0.42270  0.77520  Biso   1.000  H
  C42      1.0000 0.72190  0.52370  0.68762  Biso   1.000  C
  C43      1.0000 0.75740  0.55910  0.64457  Biso   1.000  C
  C44      1.0000 0.67570  0.55660  0.64855  Biso   1.000  C
  C45      1.0000 0.80200  0.57330  0.62682  Biso   1.000  C
  C46      1.0000 0.84760  0.56050  0.63995  Biso   1.000  C
  H29      1.0000 0.85020  0.54150  0.65980  Biso   1.000  H
  C47      1.0000 0.88840  0.57640  0.62320  Biso   1.000  C
  H30      1.0000 0.91930  0.56650  0.63190  Biso   1.000  H
  C48      1.0000 0.84230  0.61580  0.58267  Biso   1.000  C
  H31      1.0000 0.84050  0.63480  0.56280  Biso   1.000  H
  C49      1.0000 0.80000  0.60020  0.59780  Biso   1.000  C
  H32      1.0000 0.76960  0.60780  0.58840  Biso   1.000  H
  C50      1.0000 0.62740  0.56790  0.63502  Biso   1.000  C
  C51      1.0000 0.62250  0.58290  0.60531  Biso   1.000  C
  H33      1.0000 0.65020  0.58370  0.59300  Biso   1.000  H
  C52      1.0000 0.57640  0.59680  0.59385  Biso   1.000  C
  H34      1.0000 0.57310  0.60470  0.57330  Biso   1.000  H
  C53      1.0000 0.54090  0.58370  0.63911  Biso   1.000  C
  H35      1.0000 0.51270  0.58350  0.65100  Biso   1.000  H
  C54      1.0000 0.58570  0.56730  0.65208  Biso   1.000  C
  H36      1.0000 0.58790  0.55580  0.67250  Biso   1.000  H
  C55      1.0000 0.68980  0.37340  0.86603  Biso   1.000  C
  H37      1.0000 0.68870  0.30420  0.86570  Biso   1.000  H
  C56      1.0000 0.66820  0.42300  0.88889  Biso   1.000  C
  H38      1.0000 0.65240  0.38780  0.90400  Biso   1.000  H
  C57      1.0000 0.66950  0.52290  0.88972  Biso   1.000  C
  C58      1.0000 0.69260  0.57180  0.86750  Biso   1.000  C
  H39      1.0000 0.69440  0.64090  0.86750  Biso   1.000  H
  C59      1.0000 0.71340  0.51830  0.84494  Biso   1.000  C
  H40      1.0000 0.72890  0.55210  0.82940  Biso   1.000  H
  C60      1.0000 0.64540  0.57650  0.91370  Biso   1.000  C
  C61      1.0000 0.61020  0.57760  0.95789  Biso   1.000  C
  C62      1.0000 0.61120  0.71470  0.93045  Biso   1.000  C
  C63      1.0000 0.55030  0.51920  0.02937  Biso   1.000  C
  H41      1.0000 0.53060  0.55090  0.04350  Biso   1.000  H
  C64      1.0000 0.56480  0.57040  0.00550  Biso   1.000  C
  H42      1.0000 0.55550  0.63660  0.00310  Biso   1.000  H
  C65      1.0000 0.59320  0.52480  0.98457  Biso   1.000  C
  C66      1.0000 0.60510  0.42730  0.98838  Biso   1.000  C
  H43      1.0000 0.62400  0.39360  0.97430  Biso   1.000  H
  C67      1.0000 0.58870  0.38070  0.01314  Biso   1.000  C
  H44      1.0000 0.59630  0.31370  0.01570  Biso   1.000  H
  C68      1.0000 0.56720  0.97060  0.94310  Biso   1.000  C
  H45      1.0000 0.56090  0.01230  0.95920  Biso   1.000  H
  C69      1.0000 0.58400  0.87630  0.94830  Biso   1.000  C
  H46      1.0000 0.58810  0.85370  0.96770  Biso   1.000  H
  C70      1.0000 0.59470  0.81600  0.92506  Biso   1.000  C
  C71      1.0000 0.58790  0.85140  0.89690  Biso   1.000  C
  H47      1.0000 0.59460  0.81190  0.88040  Biso   1.000  H
  C72      1.0000 0.57120  0.94510  0.89370  Biso   1.000  C
  H48      1.0000 0.56760  0.97000  0.87450  Biso   1.000  H
  I7       1.0000 0.69521  0.18970  0.80392  Biso   1.000  I
  I8       1.0000 0.83695  0.32807  0.82371  Biso   1.000  I
  I9       1.0000 0.42334  0.71882  0.63319  Biso   1.000  I
  I10      1.0000 0.48479  0.72138  0.54296  Biso   1.000  I
  I11      1.0000 0.01697  0.54769  0.60041  Biso   1.000  I
  I12      1.0000 0.94914  0.82505  0.56648  Biso   1.000  I
  N13      1.0000 0.73900  0.42560  0.77529  Biso   1.000  N
  N14      1.0000 0.76320  0.53620  0.67245  Biso   1.000  N
  N15      1.0000 0.71450  0.56990  0.63105  Biso   1.000  N
  N16      1.0000 0.67730  0.53350  0.67689  Biso   1.000  N
  N17      1.0000 0.88640  0.60500  0.59530  Biso   1.000  N
  N18      1.0000 0.53590  0.59970  0.61056  Biso   1.000  N
  N19      1.0000 0.71240  0.42060  0.84430  Biso   1.000  N
  N20      1.0000 0.63410  0.52700  0.93781  Biso   1.000  N
  N21      1.0000 0.59830  0.67200  0.95566  Biso   1.000  N
  N22      1.0000 0.63510  0.67070  0.90881  Biso   1.000  N
  N23      1.0000 0.56270  0.42570  0.03376  Biso   1.000  N
  N24      1.0000 0.55990  0.00360  0.91620  Biso   1.000  N
  Zn4      1.0000 0.74676  0.34245  0.81220  Biso   1.000  Zn
  Zn5      1.0000 0.47020  0.63824  0.59205  Biso   1.000  Zn
  Zn6      1.0000 0.95046  0.64096  0.57372  Biso   1.000  Zn
  C73      1.0000 0.27750  0.04630  0.24080  Biso   1.000  C
  H49      1.0000 0.30890  0.05110  0.23240  Biso   1.000  H
  C74      1.0000 0.27360  0.01080  0.26878  Biso   1.000  C
  H50      1.0000 0.30160  0.99160  0.27940  Biso   1.000  H
  C75      1.0000 0.22770  0.00390  0.28108  Biso   1.000  C
  C76      1.0000 0.18730  0.02700  0.26460  Biso   1.000  C
  H51      1.0000 0.15550  0.01940  0.27230  Biso   1.000  H
  C77      1.0000 0.19470  0.06180  0.23636  Biso   1.000  C
  H52      1.0000 0.16720  0.07730  0.22480  Biso   1.000  H
  C78      1.0000 0.22190  0.97630  0.31238  Biso   1.000  C
  C79      1.0000 0.25740  0.94090  0.35543  Biso   1.000  C
  C80      1.0000 0.17570  0.94340  0.35145  Biso   1.000  C
  C81      1.0000 0.30200  0.92670  0.37318  Biso   1.000  C
  C82      1.0000 0.34760  0.93950  0.36005  Biso   1.000  C
  H53      1.0000 0.35020  0.95850  0.34020  Biso   1.000  H
  C83      1.0000 0.38840  0.92360  0.37680  Biso   1.000  C
  H54      1.0000 0.41930  0.93350  0.36810  Biso   1.000  H
  C84      1.0000 0.34230  0.88420  0.41733  Biso   1.000  C
  H55      1.0000 0.34050  0.86520  0.43720  Biso   1.000  H
  C85      1.0000 0.30000  0.89980  0.40220  Biso   1.000  C
  H56      1.0000 0.26960  0.89220  0.41160  Biso   1.000  H
  C86      1.0000 0.12740  0.93210  0.36498  Biso   1.000  C
  C87      1.0000 0.12250  0.91710  0.39469  Biso   1.000  C
  H57      1.0000 0.15020  0.91630  0.40700  Biso   1.000  H
  C88      1.0000 0.07640  0.90320  0.40615  Biso   1.000  C
  H58      1.0000 0.07310  0.89530  0.42670  Biso   1.000  H
  C89      1.0000 0.04090  0.91630  0.36089  Biso   1.000  C
  H59      1.0000 0.01270  0.91650  0.34900  Biso   1.000  H
  C90      1.0000 0.08570  0.93270  0.34792  Biso   1.000  C
  H60      1.0000 0.08790  0.94420  0.32750  Biso   1.000  H
  C91      1.0000 0.18980  0.12660  0.13397  Biso   1.000  C
  H61      1.0000 0.18870  0.19580  0.13430  Biso   1.000  H
  C92      1.0000 0.16820  0.07700  0.11111  Biso   1.000  C
  H62      1.0000 0.15240  0.11220  0.09600  Biso   1.000  H
  C93      1.0000 0.16950  0.97710  0.11028  Biso   1.000  C
  C94      1.0000 0.19260  0.92820  0.13250  Biso   1.000  C
  H63      1.0000 0.19440  0.85910  0.13250  Biso   1.000  H
  C95      1.0000 0.21340  0.98170  0.15506  Biso   1.000  C
  H64      1.0000 0.22890  0.94790  0.17060  Biso   1.000  H
  C96      1.0000 0.14540  0.92350  0.08630  Biso   1.000  C
  C97      1.0000 0.11020  0.92240  0.04211  Biso   1.000  C
  C98      1.0000 0.11120  0.78530  0.06955  Biso   1.000  C
  C99      1.0000 0.05030  0.98080  0.97063  Biso   1.000  C
  H65      1.0000 0.03060  0.94910  0.95650  Biso   1.000  H
  C100     1.0000 0.06480  0.92960  0.99450  Biso   1.000  C
  H66      1.0000 0.05550  0.86340  0.99690  Biso   1.000  H
  C101     1.0000 0.09320  0.97520  0.01543  Biso   1.000  C
  C102     1.0000 0.10510  0.07270  0.01162  Biso   1.000  C
  H67      1.0000 0.12400  0.10640  0.02570  Biso   1.000  H
  C103     1.0000 0.08870  0.11930  0.98686  Biso   1.000  C
  H68      1.0000 0.09630  0.18630  0.98430  Biso   1.000  H
  C104     1.0000 0.06720  0.52940  0.05690  Biso   1.000  C
  H69      1.0000 0.06090  0.48770  0.04080  Biso   1.000  H
  C105     1.0000 0.08400  0.62370  0.05170  Biso   1.000  C
  H70      1.0000 0.08810  0.64630  0.03230  Biso   1.000  H
  C106     1.0000 0.09470  0.68400  0.07494  Biso   1.000  C
  C107     1.0000 0.08790  0.64860  0.10310  Biso   1.000  C
  H71      1.0000 0.09460  0.68810  0.11960  Biso   1.000  H
  C108     1.0000 0.07120  0.55490  0.10630  Biso   1.000  C
  H72      1.0000 0.06760  0.53000  0.12550  Biso   1.000  H
  I13      1.0000 0.19521  0.31030  0.19608  Biso   1.000  I
  I14      1.0000 0.33695  0.17193  0.17628  Biso   1.000  I
  I15      1.0000 0.92334  0.78118  0.36681  Biso   1.000  I
  I16      1.0000 0.98479  0.77862  0.45704  Biso   1.000  I
  I17      1.0000 0.51697  0.95231  0.39959  Biso   1.000  I
  I18      1.0000 0.44914  0.67495  0.43352  Biso   1.000  I
  N25      1.0000 0.23900  0.07440  0.22471  Biso   1.000  N
  N26      1.0000 0.26320  0.96380  0.32755  Biso   1.000  N
  N27      1.0000 0.21450  0.93010  0.36895  Biso   1.000  N
  N28      1.0000 0.17730  0.96650  0.32311  Biso   1.000  N
  N29      1.0000 0.38640  0.89500  0.40470  Biso   1.000  N
  N30      1.0000 0.03590  0.90030  0.38944  Biso   1.000  N
  N31      1.0000 0.21240  0.07940  0.15570  Biso   1.000  N
  N32      1.0000 0.13410  0.97300  0.06219  Biso   1.000  N
  N33      1.0000 0.09830  0.82800  0.04434  Biso   1.000  N
  N34      1.0000 0.13510  0.82930  0.09119  Biso   1.000  N
  N35      1.0000 0.06270  0.07430  0.96624  Biso   1.000  N
  N36      1.0000 0.05990  0.49640  0.08380  Biso   1.000  N
  Zn7      1.0000 0.24676  0.15755  0.18780  Biso   1.000  Zn
  Zn8      1.0000 0.97020  0.86176  0.40795  Biso   1.000  Zn
  Zn9      1.0000 0.45046  0.85904  0.42628  Biso   1.000  Zn
  C109     1.0000 0.22250  0.95370  0.74080  Biso   1.000  C
  H73      1.0000 0.19110  0.94890  0.73240  Biso   1.000  H
  C110     1.0000 0.22640  0.98920  0.76878  Biso   1.000  C
  H74      1.0000 0.19840  0.00840  0.77940  Biso   1.000  H
  C111     1.0000 0.27230  0.99610  0.78108  Biso   1.000  C
  C112     1.0000 0.31270  0.97300  0.76460  Biso   1.000  C
  H75      1.0000 0.34450  0.98060  0.77230  Biso   1.000  H
  C113     1.0000 0.30530  0.93820  0.73636  Biso   1.000  C
  H76      1.0000 0.33280  0.92270  0.72480  Biso   1.000  H
  C114     1.0000 0.27810  0.02370  0.81238  Biso   1.000  C
  C115     1.0000 0.24260  0.05910  0.85543  Biso   1.000  C
  C116     1.0000 0.32430  0.05660  0.85145  Biso   1.000  C
  C117     1.0000 0.19800  0.07330  0.87318  Biso   1.000  C
  C118     1.0000 0.15240  0.06050  0.86005  Biso   1.000  C
  H77      1.0000 0.14980  0.04150  0.84020  Biso   1.000  H
  C119     1.0000 0.11160  0.07640  0.87680  Biso   1.000  C
  H78      1.0000 0.08070  0.06650  0.86810  Biso   1.000  H
  C120     1.0000 0.15770  0.11580  0.91733  Biso   1.000  C
  H79      1.0000 0.15950  0.13480  0.93720  Biso   1.000  H
  C121     1.0000 0.20000  0.10020  0.90220  Biso   1.000  C
  H80      1.0000 0.23040  0.10780  0.91160  Biso   1.000  H
  C122     1.0000 0.37260  0.06790  0.86498  Biso   1.000  C
  C123     1.0000 0.37750  0.08290  0.89469  Biso   1.000  C
  H81      1.0000 0.34980  0.08370  0.90700  Biso   1.000  H
  C124     1.0000 0.42360  0.09680  0.90615  Biso   1.000  C
  H82      1.0000 0.42690  0.10470  0.92670  Biso   1.000  H
  C125     1.0000 0.45910  0.08370  0.86089  Biso   1.000  C
  H83      1.0000 0.48730  0.08350  0.84900  Biso   1.000  H
  C126     1.0000 0.41430  0.06730  0.84792  Biso   1.000  C
  H84      1.0000 0.41210  0.05580  0.82750  Biso   1.000  H
  C127     1.0000 0.31020  0.87340  0.63397  Biso   1.000  C
  H85      1.0000 0.31130  0.80420  0.63430  Biso   1.000  H
  C128     1.0000 0.33180  0.92300  0.61111  Biso   1.000  C
  H86      1.0000 0.34760  0.88780  0.59600  Biso   1.000  H
  C129     1.0000 0.33050  0.02290  0.61028  Biso   1.000  C
  C130     1.0000 0.30740  0.07180  0.63250  Biso   1.000  C
  H87      1.0000 0.30560  0.14090  0.63250  Biso   1.000  H
  C131     1.0000 0.28660  0.01830  0.65506  Biso   1.000  C
  H88      1.0000 0.27110  0.05210  0.67060  Biso   1.000  H
  C132     1.0000 0.35460  0.07650  0.58630  Biso   1.000  C
  C133     1.0000 0.38980  0.07760  0.54211  Biso   1.000  C
  C134     1.0000 0.38880  0.21470  0.56955  Biso   1.000  C
  C135     1.0000 0.44970  0.01920  0.47063  Biso   1.000  C
  H89      1.0000 0.46940  0.05090  0.45650  Biso   1.000  H
  C136     1.0000 0.43520  0.07040  0.49450  Biso   1.000  C
  H90      1.0000 0.44450  0.13660  0.49690  Biso   1.000  H
  C137     1.0000 0.40680  0.02480  0.51543  Biso   1.000  C
  C138     1.0000 0.39490  0.92730  0.51162  Biso   1.000  C
  H91      1.0000 0.37600  0.89360  0.52570  Biso   1.000  H
  C139     1.0000 0.41130  0.88070  0.48686  Biso   1.000  C
  H92      1.0000 0.40370  0.81370  0.48430  Biso   1.000  H
  C140     1.0000 0.43280  0.47060  0.55690  Biso   1.000  C
  H93      1.0000 0.43910  0.51230  0.54080  Biso   1.000  H
  C141     1.0000 0.41600  0.37630  0.55170  Biso   1.000  C
  H94      1.0000 0.41190  0.35370  0.53230  Biso   1.000  H
  C142     1.0000 0.40530  0.31600  0.57494  Biso   1.000  C
  C143     1.0000 0.41210  0.35140  0.60310  Biso   1.000  C
  H95      1.0000 0.40540  0.31190  0.61960  Biso   1.000  H
  C144     1.0000 0.42880  0.44510  0.60630  Biso   1.000  C
  H96      1.0000 0.43240  0.47000  0.62550  Biso   1.000  H
  I19      1.0000 0.30479  0.68970  0.69608  Biso   1.000  I
  I20      1.0000 0.16305  0.82807  0.67629  Biso   1.000  I
  I21      1.0000 0.57666  0.21882  0.86681  Biso   1.000  I
  I22      1.0000 0.51521  0.22138  0.95704  Biso   1.000  I
  I23      1.0000 0.98303  0.04769  0.89959  Biso   1.000  I
  I24      1.0000 0.05086  0.32505  0.93352  Biso   1.000  I
  N37      1.0000 0.26100  0.92560  0.72471  Biso   1.000  N
  N38      1.0000 0.23680  0.03620  0.82755  Biso   1.000  N
  N39      1.0000 0.28550  0.06990  0.86895  Biso   1.000  N
  N40      1.0000 0.32270  0.03350  0.82311  Biso   1.000  N
  N41      1.0000 0.11360  0.10500  0.90470  Biso   1.000  N
  N42      1.0000 0.46410  0.09970  0.88944  Biso   1.000  N
  N43      1.0000 0.28760  0.92060  0.65570  Biso   1.000  N
  N44      1.0000 0.36590  0.02700  0.56219  Biso   1.000  N
  N45      1.0000 0.40170  0.17200  0.54434  Biso   1.000  N
  N46      1.0000 0.36490  0.17070  0.59119  Biso   1.000  N
  N47      1.0000 0.43730  0.92570  0.46624  Biso   1.000  N
  N48      1.0000 0.44010  0.50360  0.58380  Biso   1.000  N
  Zn10     1.0000 0.25324  0.84245  0.68780  Biso   1.000  Zn
  Zn11     1.0000 0.52980  0.13824  0.90795  Biso   1.000  Zn
  Zn12     1.0000 0.04954  0.14096  0.92628  Biso   1.000  Zn
  C145     1.0000 0.27750  0.45370  0.74080  Biso   1.000  C
  H97      1.0000 0.30890  0.44890  0.73240  Biso   1.000  H
  C146     1.0000 0.27360  0.48920  0.76878  Biso   1.000  C
  H98      1.0000 0.30160  0.50840  0.77940  Biso   1.000  H
  C147     1.0000 0.22770  0.49610  0.78108  Biso   1.000  C
  C148     1.0000 0.18730  0.47300  0.76460  Biso   1.000  C
  H99      1.0000 0.15550  0.48060  0.77230  Biso   1.000  H
  C149     1.0000 0.19470  0.43820  0.73636  Biso   1.000  C
  H100     1.0000 0.16720  0.42270  0.72480  Biso   1.000  H
  C150     1.0000 0.22190  0.52370  0.81238  Biso   1.000  C
  C151     1.0000 0.25740  0.55910  0.85543  Biso   1.000  C
  C152     1.0000 0.17570  0.55660  0.85145  Biso   1.000  C
  C153     1.0000 0.30200  0.57330  0.87318  Biso   1.000  C
  C154     1.0000 0.34760  0.56050  0.86005  Biso   1.000  C
  H101     1.0000 0.35020  0.54150  0.84020  Biso   1.000  H
  C155     1.0000 0.38840  0.57640  0.87680  Biso   1.000  C
  H102     1.0000 0.41930  0.56650  0.86810  Biso   1.000  H
  C156     1.0000 0.34230  0.61580  0.91733  Biso   1.000  C
  H103     1.0000 0.34050  0.63480  0.93720  Biso   1.000  H
  C157     1.0000 0.30000  0.60020  0.90220  Biso   1.000  C
  H104     1.0000 0.26960  0.60780  0.91160  Biso   1.000  H
  C158     1.0000 0.12740  0.56790  0.86498  Biso   1.000  C
  C159     1.0000 0.12250  0.58290  0.89469  Biso   1.000  C
  H105     1.0000 0.15020  0.58370  0.90700  Biso   1.000  H
  C160     1.0000 0.07640  0.59680  0.90615  Biso   1.000  C
  H106     1.0000 0.07310  0.60470  0.92670  Biso   1.000  H
  C161     1.0000 0.04090  0.58370  0.86089  Biso   1.000  C
  H107     1.0000 0.01270  0.58350  0.84900  Biso   1.000  H
  C162     1.0000 0.08570  0.56730  0.84792  Biso   1.000  C
  H108     1.0000 0.08790  0.55580  0.82750  Biso   1.000  H
  C163     1.0000 0.18980  0.37340  0.63397  Biso   1.000  C
  H109     1.0000 0.18870  0.30420  0.63430  Biso   1.000  H
  C164     1.0000 0.16820  0.42300  0.61111  Biso   1.000  C
  H110     1.0000 0.15240  0.38780  0.59600  Biso   1.000  H
  C165     1.0000 0.16950  0.52290  0.61028  Biso   1.000  C
  C166     1.0000 0.19260  0.57180  0.63250  Biso   1.000  C
  H111     1.0000 0.19440  0.64090  0.63250  Biso   1.000  H
  C167     1.0000 0.21340  0.51830  0.65506  Biso   1.000  C
  H112     1.0000 0.22890  0.55210  0.67060  Biso   1.000  H
  C168     1.0000 0.14540  0.57650  0.58630  Biso   1.000  C
  C169     1.0000 0.11020  0.57760  0.54211  Biso   1.000  C
  C170     1.0000 0.11120  0.71470  0.56955  Biso   1.000  C
  C171     1.0000 0.05030  0.51920  0.47063  Biso   1.000  C
  H113     1.0000 0.03060  0.55090  0.45650  Biso   1.000  H
  C172     1.0000 0.06480  0.57040  0.49450  Biso   1.000  C
  H114     1.0000 0.05550  0.63660  0.49690  Biso   1.000  H
  C173     1.0000 0.09320  0.52480  0.51543  Biso   1.000  C
  C174     1.0000 0.10510  0.42730  0.51162  Biso   1.000  C
  H115     1.0000 0.12400  0.39360  0.52570  Biso   1.000  H
  C175     1.0000 0.08870  0.38070  0.48686  Biso   1.000  C
  H116     1.0000 0.09630  0.31370  0.48430  Biso   1.000  H
  C176     1.0000 0.06720  0.97060  0.55690  Biso   1.000  C
  H117     1.0000 0.06090  0.01230  0.54080  Biso   1.000  H
  C177     1.0000 0.08400  0.87630  0.55170  Biso   1.000  C
  H118     1.0000 0.08810  0.85370  0.53230  Biso   1.000  H
  C178     1.0000 0.09470  0.81600  0.57494  Biso   1.000  C
  C179     1.0000 0.08790  0.85140  0.60310  Biso   1.000  C
  H119     1.0000 0.09460  0.81190  0.61960  Biso   1.000  H
  C180     1.0000 0.07120  0.94510  0.60630  Biso   1.000  C
  H120     1.0000 0.06760  0.97000  0.62550  Biso   1.000  H
  I25      1.0000 0.19521  0.18970  0.69608  Biso   1.000  I
  I26      1.0000 0.33695  0.32807  0.67629  Biso   1.000  I
  I27      1.0000 0.92334  0.71882  0.86681  Biso   1.000  I
  I28      1.0000 0.98479  0.72138  0.95704  Biso   1.000  I
  I29      1.0000 0.51697  0.54769  0.89959  Biso   1.000  I
  I30      1.0000 0.44914  0.82505  0.93352  Biso   1.000  I
  N49      1.0000 0.23900  0.42560  0.72471  Biso   1.000  N
  N50      1.0000 0.26320  0.53620  0.82755  Biso   1.000  N
  N51      1.0000 0.21450  0.56990  0.86895  Biso   1.000  N
  N52      1.0000 0.17730  0.53350  0.82311  Biso   1.000  N
  N53      1.0000 0.38640  0.60500  0.90470  Biso   1.000  N
  N54      1.0000 0.03590  0.59970  0.88944  Biso   1.000  N
  N55      1.0000 0.21240  0.42060  0.65570  Biso   1.000  N
  N56      1.0000 0.13410  0.52700  0.56219  Biso   1.000  N
  N57      1.0000 0.09830  0.67200  0.54434  Biso   1.000  N
  N58      1.0000 0.13510  0.67070  0.59119  Biso   1.000  N
  N59      1.0000 0.06270  0.42570  0.46624  Biso   1.000  N
  N60      1.0000 0.05990  0.00360  0.58380  Biso   1.000  N
  Zn13     1.0000 0.24676  0.34245  0.68780  Biso   1.000  Zn
  Zn14     1.0000 0.97020  0.63824  0.90795  Biso   1.000  Zn
  Zn15     1.0000 0.45046  0.64096  0.92628  Biso   1.000  Zn
  C181     1.0000 0.22250  0.54630  0.24080  Biso   1.000  C
  H121     1.0000 0.19110  0.55110  0.23240  Biso   1.000  H
  C182     1.0000 0.22640  0.51080  0.26878  Biso   1.000  C
  H122     1.0000 0.19840  0.49160  0.27940  Biso   1.000  H
  C183     1.0000 0.27230  0.50390  0.28108  Biso   1.000  C
  C184     1.0000 0.31270  0.52700  0.26460  Biso   1.000  C
  H123     1.0000 0.34450  0.51940  0.27230  Biso   1.000  H
  C185     1.0000 0.30530  0.56180  0.23636  Biso   1.000  C
  H124     1.0000 0.33280  0.57730  0.22480  Biso   1.000  H
  C186     1.0000 0.27810  0.47630  0.31238  Biso   1.000  C
  C187     1.0000 0.24260  0.44090  0.35543  Biso   1.000  C
  C188     1.0000 0.32430  0.44340  0.35145  Biso   1.000  C
  C189     1.0000 0.19800  0.42670  0.37318  Biso   1.000  C
  C190     1.0000 0.15240  0.43950  0.36005  Biso   1.000  C
  H125     1.0000 0.14980  0.45850  0.34020  Biso   1.000  H
  C191     1.0000 0.11160  0.42360  0.37680  Biso   1.000  C
  H126     1.0000 0.08070  0.43350  0.36810  Biso   1.000  H
  C192     1.0000 0.15770  0.38420  0.41733  Biso   1.000  C
  H127     1.0000 0.15950  0.36520  0.43720  Biso   1.000  H
  C193     1.0000 0.20000  0.39980  0.40220  Biso   1.000  C
  H128     1.0000 0.23040  0.39220  0.41160  Biso   1.000  H
  C194     1.0000 0.37260  0.43210  0.36498  Biso   1.000  C
  C195     1.0000 0.37750  0.41710  0.39469  Biso   1.000  C
  H129     1.0000 0.34980  0.41630  0.40700  Biso   1.000  H
  C196     1.0000 0.42360  0.40320  0.40615  Biso   1.000  C
  H130     1.0000 0.42690  0.39530  0.42670  Biso   1.000  H
  C197     1.0000 0.45910  0.41630  0.36089  Biso   1.000  C
  H131     1.0000 0.48730  0.41650  0.34900  Biso   1.000  H
  C198     1.0000 0.41430  0.43270  0.34792  Biso   1.000  C
  H132     1.0000 0.41210  0.44420  0.32750  Biso   1.000  H
  C199     1.0000 0.31020  0.62660  0.13397  Biso   1.000  C
  H133     1.0000 0.31130  0.69580  0.13430  Biso   1.000  H
  C200     1.0000 0.33180  0.57700  0.11111  Biso   1.000  C
  H134     1.0000 0.34760  0.61220  0.09600  Biso   1.000  H
  C201     1.0000 0.33050  0.47710  0.11028  Biso   1.000  C
  C202     1.0000 0.30740  0.42820  0.13250  Biso   1.000  C
  H135     1.0000 0.30560  0.35910  0.13250  Biso   1.000  H
  C203     1.0000 0.28660  0.48170  0.15506  Biso   1.000  C
  H136     1.0000 0.27110  0.44790  0.17060  Biso   1.000  H
  C204     1.0000 0.35460  0.42350  0.08630  Biso   1.000  C
  C205     1.0000 0.38980  0.42240  0.04211  Biso   1.000  C
  C206     1.0000 0.38880  0.28530  0.06955  Biso   1.000  C
  C207     1.0000 0.44970  0.48080  0.97063  Biso   1.000  C
  H137     1.0000 0.46940  0.44910  0.95650  Biso   1.000  H
  C208     1.0000 0.43520  0.42960  0.99450  Biso   1.000  C
  H138     1.0000 0.44450  0.36340  0.99690  Biso   1.000  H
  C209     1.0000 0.40680  0.47520  0.01543  Biso   1.000  C
  C210     1.0000 0.39490  0.57270  0.01162  Biso   1.000  C
  H139     1.0000 0.37600  0.60640  0.02570  Biso   1.000  H
  C211     1.0000 0.41130  0.61930  0.98686  Biso   1.000  C
  H140     1.0000 0.40370  0.68630  0.98430  Biso   1.000  H
  C212     1.0000 0.43280  0.02940  0.05690  Biso   1.000  C
  H141     1.0000 0.43910  0.98770  0.04080  Biso   1.000  H
  C213     1.0000 0.41600  0.12370  0.05170  Biso   1.000  C
  H142     1.0000 0.41190  0.14630  0.03230  Biso   1.000  H
  C214     1.0000 0.40530  0.18400  0.07494  Biso   1.000  C
  C215     1.0000 0.41210  0.14860  0.10310  Biso   1.000  C
  H143     1.0000 0.40540  0.18810  0.11960  Biso   1.000  H
  C216     1.0000 0.42880  0.05490  0.10630  Biso   1.000  C
  H144     1.0000 0.43240  0.03000  0.12550  Biso   1.000  H
  I31      1.0000 0.30479  0.81030  0.19608  Biso   1.000  I
  I32      1.0000 0.16305  0.67193  0.17628  Biso   1.000  I
  I33      1.0000 0.57666  0.28118  0.36681  Biso   1.000  I
  I34      1.0000 0.51521  0.27862  0.45704  Biso   1.000  I
  I35      1.0000 0.98303  0.45231  0.39959  Biso   1.000  I
  I36      1.0000 0.05086  0.17495  0.43352  Biso   1.000  I
  N61      1.0000 0.26100  0.57440  0.22471  Biso   1.000  N
  N62      1.0000 0.23680  0.46380  0.32755  Biso   1.000  N
  N63      1.0000 0.28550  0.43010  0.36895  Biso   1.000  N
  N64      1.0000 0.32270  0.46650  0.32311  Biso   1.000  N
  N65      1.0000 0.11360  0.39500  0.40470  Biso   1.000  N
  N66      1.0000 0.46410  0.40030  0.38944  Biso   1.000  N
  N67      1.0000 0.28760  0.57940  0.15570  Biso   1.000  N
  N68      1.0000 0.36590  0.47300  0.06219  Biso   1.000  N
  N69      1.0000 0.40170  0.32800  0.04434  Biso   1.000  N
  N70      1.0000 0.36490  0.32930  0.09119  Biso   1.000  N
  N71      1.0000 0.43730  0.57430  0.96624  Biso   1.000  N
  N72      1.0000 0.44010  0.99640  0.08380  Biso   1.000  N
  Zn16     1.0000 0.25324  0.65755  0.18780  Biso   1.000  Zn
  Zn17     1.0000 0.52980  0.36176  0.40795  Biso   1.000  Zn
  Zn18     1.0000 0.04954  0.35904  0.42628  Biso   1.000  Zn
  C217     1.0000 0.72250  0.95370  0.75920  Biso   1.000  C
  H145     1.0000 0.69110  0.94890  0.76760  Biso   1.000  H
  C218     1.0000 0.72640  0.98920  0.73122  Biso   1.000  C
  H146     1.0000 0.69840  0.00840  0.72060  Biso   1.000  H
  C219     1.0000 0.77230  0.99610  0.71892  Biso   1.000  C
  C220     1.0000 0.81270  0.97300  0.73540  Biso   1.000  C
  H147     1.0000 0.84450  0.98060  0.72770  Biso   1.000  H
  C221     1.0000 0.80530  0.93820  0.76364  Biso   1.000  C
  H148     1.0000 0.83280  0.92270  0.77520  Biso   1.000  H
  C222     1.0000 0.77810  0.02370  0.68762  Biso   1.000  C
  C223     1.0000 0.74260  0.05910  0.64457  Biso   1.000  C
  C224     1.0000 0.82430  0.05660  0.64855  Biso   1.000  C
  C225     1.0000 0.69800  0.07330  0.62682  Biso   1.000  C
  C226     1.0000 0.65240  0.06050  0.63995  Biso   1.000  C
  H149     1.0000 0.64980  0.04150  0.65980  Biso   1.000  H
  C227     1.0000 0.61160  0.07640  0.62320  Biso   1.000  C
  H150     1.0000 0.58070  0.06650  0.63190  Biso   1.000  H
  C228     1.0000 0.65770  0.11580  0.58267  Biso   1.000  C
  H151     1.0000 0.65950  0.13480  0.56280  Biso   1.000  H
  C229     1.0000 0.70000  0.10020  0.59780  Biso   1.000  C
  H152     1.0000 0.73040  0.10780  0.58840  Biso   1.000  H
  C230     1.0000 0.87260  0.06790  0.63502  Biso   1.000  C
  C231     1.0000 0.87750  0.08290  0.60531  Biso   1.000  C
  H153     1.0000 0.84980  0.08370  0.59300  Biso   1.000  H
  C232     1.0000 0.92360  0.09680  0.59385  Biso   1.000  C
  H154     1.0000 0.92690  0.10470  0.57330  Biso   1.000  H
  C233     1.0000 0.95910  0.08370  0.63911  Biso   1.000  C
  H155     1.0000 0.98730  0.08350  0.65100  Biso   1.000  H
  C234     1.0000 0.91430  0.06730  0.65208  Biso   1.000  C
  H156     1.0000 0.91210  0.05580  0.67250  Biso   1.000  H
  C235     1.0000 0.81020  0.87340  0.86603  Biso   1.000  C
  H157     1.0000 0.81130  0.80420  0.86570  Biso   1.000  H
  C236     1.0000 0.83180  0.92300  0.88889  Biso   1.000  C
  H158     1.0000 0.84760  0.88780  0.90400  Biso   1.000  H
  C237     1.0000 0.83050  0.02290  0.88972  Biso   1.000  C
  C238     1.0000 0.80740  0.07180  0.86750  Biso   1.000  C
  H159     1.0000 0.80560  0.14090  0.86750  Biso   1.000  H
  C239     1.0000 0.78660  0.01830  0.84494  Biso   1.000  C
  H160     1.0000 0.77110  0.05210  0.82940  Biso   1.000  H
  C240     1.0000 0.85460  0.07650  0.91370  Biso   1.000  C
  C241     1.0000 0.88980  0.07760  0.95789  Biso   1.000  C
  C242     1.0000 0.88880  0.21470  0.93045  Biso   1.000  C
  C243     1.0000 0.94970  0.01920  0.02937  Biso   1.000  C
  H161     1.0000 0.96940  0.05090  0.04350  Biso   1.000  H
  C244     1.0000 0.93520  0.07040  0.00550  Biso   1.000  C
  H162     1.0000 0.94450  0.13660  0.00310  Biso   1.000  H
  C245     1.0000 0.90680  0.02480  0.98457  Biso   1.000  C
  C246     1.0000 0.89490  0.92730  0.98838  Biso   1.000  C
  H163     1.0000 0.87600  0.89360  0.97430  Biso   1.000  H
  C247     1.0000 0.91130  0.88070  0.01314  Biso   1.000  C
  H164     1.0000 0.90370  0.81370  0.01570  Biso   1.000  H
  C248     1.0000 0.93280  0.47060  0.94310  Biso   1.000  C
  H165     1.0000 0.93910  0.51230  0.95920  Biso   1.000  H
  C249     1.0000 0.91600  0.37630  0.94830  Biso   1.000  C
  H166     1.0000 0.91190  0.35370  0.96770  Biso   1.000  H
  C250     1.0000 0.90530  0.31600  0.92506  Biso   1.000  C
  C251     1.0000 0.91210  0.35140  0.89690  Biso   1.000  C
  H167     1.0000 0.90540  0.31190  0.88040  Biso   1.000  H
  C252     1.0000 0.92880  0.44510  0.89370  Biso   1.000  C
  H168     1.0000 0.93240  0.47000  0.87450  Biso   1.000  H
  I37      1.0000 0.80479  0.68970  0.80392  Biso   1.000  I
  I38      1.0000 0.66305  0.82807  0.82371  Biso   1.000  I
  I39      1.0000 0.07666  0.21882  0.63319  Biso   1.000  I
  I40      1.0000 0.01521  0.22138  0.54296  Biso   1.000  I
  I41      1.0000 0.48303  0.04769  0.60041  Biso   1.000  I
  I42      1.0000 0.55086  0.32505  0.56648  Biso   1.000  I
  N73      1.0000 0.76100  0.92560  0.77529  Biso   1.000  N
  N74      1.0000 0.73680  0.03620  0.67245  Biso   1.000  N
  N75      1.0000 0.78550  0.06990  0.63105  Biso   1.000  N
  N76      1.0000 0.82270  0.03350  0.67689  Biso   1.000  N
  N77      1.0000 0.61360  0.10500  0.59530  Biso   1.000  N
  N78      1.0000 0.96410  0.09970  0.61056  Biso   1.000  N
  N79      1.0000 0.78760  0.92060  0.84430  Biso   1.000  N
  N80      1.0000 0.86590  0.02700  0.93781  Biso   1.000  N
  N81      1.0000 0.90170  0.17200  0.95566  Biso   1.000  N
  N82      1.0000 0.86490  0.17070  0.90881  Biso   1.000  N
  N83      1.0000 0.93730  0.92570  0.03376  Biso   1.000  N
  N84      1.0000 0.94010  0.50360  0.91620  Biso   1.000  N
  Zn19     1.0000 0.75324  0.84245  0.81220  Biso   1.000  Zn
  Zn20     1.0000 0.02980  0.13824  0.59205  Biso   1.000  Zn
  Zn21     1.0000 0.54954  0.14096  0.57372  Biso   1.000  Zn
  C253     1.0000 0.77750  0.04630  0.25920  Biso   1.000  C
  H169     1.0000 0.80890  0.05110  0.26760  Biso   1.000  H
  C254     1.0000 0.77360  0.01080  0.23122  Biso   1.000  C
  H170     1.0000 0.80160  0.99160  0.22060  Biso   1.000  H
  C255     1.0000 0.72770  0.00390  0.21892  Biso   1.000  C
  C256     1.0000 0.68730  0.02700  0.23540  Biso   1.000  C
  H171     1.0000 0.65550  0.01940  0.22770  Biso   1.000  H
  C257     1.0000 0.69470  0.06180  0.26364  Biso   1.000  C
  H172     1.0000 0.66720  0.07730  0.27520  Biso   1.000  H
  C258     1.0000 0.72190  0.97630  0.18762  Biso   1.000  C
  C259     1.0000 0.75740  0.94090  0.14457  Biso   1.000  C
  C260     1.0000 0.67570  0.94340  0.14855  Biso   1.000  C
  C261     1.0000 0.80200  0.92670  0.12682  Biso   1.000  C
  C262     1.0000 0.84760  0.93950  0.13995  Biso   1.000  C
  H173     1.0000 0.85020  0.95850  0.15980  Biso   1.000  H
  C263     1.0000 0.88840  0.92360  0.12320  Biso   1.000  C
  H174     1.0000 0.91930  0.93350  0.13190  Biso   1.000  H
  C264     1.0000 0.84230  0.88420  0.08267  Biso   1.000  C
  H175     1.0000 0.84050  0.86520  0.06280  Biso   1.000  H
  C265     1.0000 0.80000  0.89980  0.09780  Biso   1.000  C
  H176     1.0000 0.76960  0.89220  0.08840  Biso   1.000  H
  C266     1.0000 0.62740  0.93210  0.13502  Biso   1.000  C
  C267     1.0000 0.62250  0.91710  0.10531  Biso   1.000  C
  H177     1.0000 0.65020  0.91630  0.09300  Biso   1.000  H
  C268     1.0000 0.57640  0.90320  0.09385  Biso   1.000  C
  H178     1.0000 0.57310  0.89530  0.07330  Biso   1.000  H
  C269     1.0000 0.54090  0.91630  0.13911  Biso   1.000  C
  H179     1.0000 0.51270  0.91650  0.15100  Biso   1.000  H
  C270     1.0000 0.58570  0.93270  0.15208  Biso   1.000  C
  H180     1.0000 0.58790  0.94420  0.17250  Biso   1.000  H
  C271     1.0000 0.68980  0.12660  0.36603  Biso   1.000  C
  H181     1.0000 0.68870  0.19580  0.36570  Biso   1.000  H
  C272     1.0000 0.66820  0.07700  0.38889  Biso   1.000  C
  H182     1.0000 0.65240  0.11220  0.40400  Biso   1.000  H
  C273     1.0000 0.66950  0.97710  0.38972  Biso   1.000  C
  C274     1.0000 0.69260  0.92820  0.36750  Biso   1.000  C
  H183     1.0000 0.69440  0.85910  0.36750  Biso   1.000  H
  C275     1.0000 0.71340  0.98170  0.34494  Biso   1.000  C
  H184     1.0000 0.72890  0.94790  0.32940  Biso   1.000  H
  C276     1.0000 0.64540  0.92350  0.41370  Biso   1.000  C
  C277     1.0000 0.61020  0.92240  0.45789  Biso   1.000  C
  C278     1.0000 0.61120  0.78530  0.43045  Biso   1.000  C
  C279     1.0000 0.55030  0.98080  0.52937  Biso   1.000  C
  H185     1.0000 0.53060  0.94910  0.54350  Biso   1.000  H
  C280     1.0000 0.56480  0.92960  0.50550  Biso   1.000  C
  H186     1.0000 0.55550  0.86340  0.50310  Biso   1.000  H
  C281     1.0000 0.59320  0.97520  0.48457  Biso   1.000  C
  C282     1.0000 0.60510  0.07270  0.48838  Biso   1.000  C
  H187     1.0000 0.62400  0.10640  0.47430  Biso   1.000  H
  C283     1.0000 0.58870  0.11930  0.51314  Biso   1.000  C
  H188     1.0000 0.59630  0.18630  0.51570  Biso   1.000  H
  C284     1.0000 0.56720  0.52940  0.44310  Biso   1.000  C
  H189     1.0000 0.56090  0.48770  0.45920  Biso   1.000  H
  C285     1.0000 0.58400  0.62370  0.44830  Biso   1.000  C
  H190     1.0000 0.58810  0.64630  0.46770  Biso   1.000  H
  C286     1.0000 0.59470  0.68400  0.42506  Biso   1.000  C
  C287     1.0000 0.58790  0.64860  0.39690  Biso   1.000  C
  H191     1.0000 0.59460  0.68810  0.38040  Biso   1.000  H
  C288     1.0000 0.57120  0.55490  0.39370  Biso   1.000  C
  H192     1.0000 0.56760  0.53000  0.37450  Biso   1.000  H
  I43      1.0000 0.69521  0.31030  0.30392  Biso   1.000  I
  I44      1.0000 0.83695  0.17193  0.32371  Biso   1.000  I
  I45      1.0000 0.42334  0.78118  0.13319  Biso   1.000  I
  I46      1.0000 0.48479  0.77862  0.04296  Biso   1.000  I
  I47      1.0000 0.01697  0.95231  0.10041  Biso   1.000  I
  I48      1.0000 0.94914  0.67495  0.06648  Biso   1.000  I
  N85      1.0000 0.73900  0.07440  0.27529  Biso   1.000  N
  N86      1.0000 0.76320  0.96380  0.17245  Biso   1.000  N
  N87      1.0000 0.71450  0.93010  0.13105  Biso   1.000  N
  N88      1.0000 0.67730  0.96650  0.17689  Biso   1.000  N
  N89      1.0000 0.88640  0.89500  0.09530  Biso   1.000  N
  N90      1.0000 0.53590  0.90030  0.11056  Biso   1.000  N
  N91      1.0000 0.71240  0.07940  0.34430  Biso   1.000  N
  N92      1.0000 0.63410  0.97300  0.43781  Biso   1.000  N
  N93      1.0000 0.59830  0.82800  0.45566  Biso   1.000  N
  N94      1.0000 0.63510  0.82930  0.40881  Biso   1.000  N
  N95      1.0000 0.56270  0.07430  0.53376  Biso   1.000  N
  N96      1.0000 0.55990  0.49640  0.41620  Biso   1.000  N
  Zn22     1.0000 0.74676  0.15755  0.31220  Biso   1.000  Zn
  Zn23     1.0000 0.47020  0.86176  0.09205  Biso   1.000  Zn
  Zn24     1.0000 0.95046  0.85904  0.07372  Biso   1.000  Zn
