data_image0
_cell_length_a       41.4734
_cell_length_b       41.4734
_cell_length_c       41.4734
_cell_angle_alpha    90
_cell_angle_beta     90
_cell_angle_gamma    90

_symmetry_space_group_name_H-M    "P 1"
_symmetry_int_tables_number       1

loop_
  _symmetry_equiv_pos_as_xyz
  'x, y, z'

loop_
  _atom_site_label
  _atom_site_occupancy
  _atom_site_fract_x
  _atom_site_fract_y
  _atom_site_fract_z
  _atom_site_thermal_displace_type
  _atom_site_B_iso_or_equiv
  _atom_site_type_symbol
  C1       1.0000 0.37155  0.31170  0.45596  Biso   1.000  C
  C2       1.0000 0.38863  0.29513  0.42952  Biso   1.000  C
  C3       1.0000 0.37389  0.26839  0.41504  Biso   1.000  C
  H1       1.0000 0.35430  0.26000  0.42340  Biso   1.000  H
  O1       1.0000 0.38352  0.33710  0.46645  Biso   1.000  O
  O2       1.0000 0.34569  0.29914  0.46662  Biso   1.000  O
  H2       1.0000 0.35130  0.22720  0.37660  Biso   1.000  H
  C4       1.0000 0.87155  0.81170  0.95596  Biso   1.000  C
  C5       1.0000 0.88863  0.79513  0.92952  Biso   1.000  C
  C6       1.0000 0.87389  0.76839  0.91504  Biso   1.000  C
  H3       1.0000 0.85430  0.76000  0.92340  Biso   1.000  H
  O3       1.0000 0.88352  0.83710  0.96645  Biso   1.000  O
  O4       1.0000 0.84569  0.79914  0.96662  Biso   1.000  O
  H4       1.0000 0.85130  0.72720  0.87660  Biso   1.000  H
  C7       1.0000 0.62845  0.68830  0.45596  Biso   1.000  C
  C8       1.0000 0.61137  0.70487  0.42952  Biso   1.000  C
  C9       1.0000 0.62611  0.73161  0.41504  Biso   1.000  C
  H5       1.0000 0.64570  0.74000  0.42340  Biso   1.000  H
  O5       1.0000 0.61648  0.66290  0.46645  Biso   1.000  O
  O6       1.0000 0.65431  0.70086  0.46662  Biso   1.000  O
  H6       1.0000 0.64870  0.77280  0.37660  Biso   1.000  H
  C10      1.0000 0.12845  0.18830  0.95596  Biso   1.000  C
  C11      1.0000 0.11137  0.20487  0.92952  Biso   1.000  C
  C12      1.0000 0.12611  0.23161  0.91504  Biso   1.000  C
  H7       1.0000 0.14570  0.24000  0.92340  Biso   1.000  H
  O7       1.0000 0.11648  0.16290  0.96645  Biso   1.000  O
  O8       1.0000 0.15431  0.20086  0.96662  Biso   1.000  O
  H8       1.0000 0.14870  0.27280  0.87660  Biso   1.000  H
  C13      1.0000 0.62845  0.31170  0.54404  Biso   1.000  C
  C14      1.0000 0.61137  0.29513  0.57048  Biso   1.000  C
  C15      1.0000 0.62611  0.26839  0.58496  Biso   1.000  C
  H9       1.0000 0.64570  0.26000  0.57660  Biso   1.000  H
  O9       1.0000 0.61648  0.33710  0.53355  Biso   1.000  O
  O10      1.0000 0.65431  0.29914  0.53338  Biso   1.000  O
  H10      1.0000 0.64870  0.22720  0.62340  Biso   1.000  H
  C16      1.0000 0.12845  0.81170  0.04404  Biso   1.000  C
  C17      1.0000 0.11137  0.79513  0.07048  Biso   1.000  C
  C18      1.0000 0.12611  0.76839  0.08496  Biso   1.000  C
  H11      1.0000 0.14570  0.76000  0.07660  Biso   1.000  H
  O11      1.0000 0.11648  0.83710  0.03355  Biso   1.000  O
  O12      1.0000 0.15431  0.79914  0.03338  Biso   1.000  O
  H12      1.0000 0.14870  0.72720  0.12340  Biso   1.000  H
  C19      1.0000 0.37155  0.68830  0.54404  Biso   1.000  C
  C20      1.0000 0.38863  0.70487  0.57048  Biso   1.000  C
  C21      1.0000 0.37389  0.73161  0.58496  Biso   1.000  C
  H13      1.0000 0.35430  0.74000  0.57660  Biso   1.000  H
  O13      1.0000 0.38352  0.66290  0.53355  Biso   1.000  O
  O14      1.0000 0.34569  0.70086  0.53338  Biso   1.000  O
  H14      1.0000 0.35130  0.77280  0.62340  Biso   1.000  H
  C22      1.0000 0.87155  0.18830  0.04404  Biso   1.000  C
  C23      1.0000 0.88863  0.20487  0.07048  Biso   1.000  C
  C24      1.0000 0.87389  0.23161  0.08496  Biso   1.000  C
  H15      1.0000 0.85430  0.24000  0.07660  Biso   1.000  H
  O15      1.0000 0.88352  0.16290  0.03355  Biso   1.000  O
  O16      1.0000 0.84569  0.20086  0.03338  Biso   1.000  O
  H16      1.0000 0.85130  0.27280  0.12340  Biso   1.000  H
  C25      1.0000 0.45596  0.37155  0.31170  Biso   1.000  C
  C26      1.0000 0.42952  0.38863  0.29513  Biso   1.000  C
  C27      1.0000 0.41504  0.37389  0.26839  Biso   1.000  C
  H17      1.0000 0.42340  0.35430  0.26000  Biso   1.000  H
  O17      1.0000 0.46645  0.38352  0.33710  Biso   1.000  O
  O18      1.0000 0.46662  0.34569  0.29914  Biso   1.000  O
  H18      1.0000 0.37660  0.35130  0.22720  Biso   1.000  H
  C28      1.0000 0.95596  0.87155  0.81170  Biso   1.000  C
  C29      1.0000 0.92952  0.88863  0.79513  Biso   1.000  C
  C30      1.0000 0.91504  0.87389  0.76839  Biso   1.000  C
  H19      1.0000 0.92340  0.85430  0.76000  Biso   1.000  H
  O19      1.0000 0.96645  0.88352  0.83710  Biso   1.000  O
  O20      1.0000 0.96662  0.84569  0.79914  Biso   1.000  O
  H20      1.0000 0.87660  0.85130  0.72720  Biso   1.000  H
  C31      1.0000 0.45596  0.62845  0.68830  Biso   1.000  C
  C32      1.0000 0.42952  0.61137  0.70487  Biso   1.000  C
  C33      1.0000 0.41504  0.62611  0.73161  Biso   1.000  C
  H21      1.0000 0.42340  0.64570  0.74000  Biso   1.000  H
  O21      1.0000 0.46645  0.61648  0.66290  Biso   1.000  O
  O22      1.0000 0.46662  0.65431  0.70086  Biso   1.000  O
  H22      1.0000 0.37660  0.64870  0.77280  Biso   1.000  H
  C34      1.0000 0.95596  0.12845  0.18830  Biso   1.000  C
  C35      1.0000 0.92952  0.11137  0.20487  Biso   1.000  C
  C36      1.0000 0.91504  0.12611  0.23161  Biso   1.000  C
  H23      1.0000 0.92340  0.14570  0.24000  Biso   1.000  H
  O23      1.0000 0.96645  0.11648  0.16290  Biso   1.000  O
  O24      1.0000 0.96662  0.15431  0.20086  Biso   1.000  O
  H24      1.0000 0.87660  0.14870  0.27280  Biso   1.000  H
  C37      1.0000 0.54404  0.62845  0.31170  Biso   1.000  C
  C38      1.0000 0.57048  0.61137  0.29513  Biso   1.000  C
  C39      1.0000 0.58496  0.62611  0.26839  Biso   1.000  C
  H25      1.0000 0.57660  0.64570  0.26000  Biso   1.000  H
  O25      1.0000 0.53355  0.61648  0.33710  Biso   1.000  O
  O26      1.0000 0.53338  0.65431  0.29914  Biso   1.000  O
  H26      1.0000 0.62340  0.64870  0.22720  Biso   1.000  H
  C40      1.0000 0.04404  0.12845  0.81170  Biso   1.000  C
  C41      1.0000 0.07048  0.11137  0.79513  Biso   1.000  C
  C42      1.0000 0.08496  0.12611  0.76839  Biso   1.000  C
  H27      1.0000 0.07660  0.14570  0.76000  Biso   1.000  H
  O27      1.0000 0.03355  0.11648  0.83710  Biso   1.000  O
  O28      1.0000 0.03338  0.15431  0.79914  Biso   1.000  O
  H28      1.0000 0.12340  0.14870  0.72720  Biso   1.000  H
  C43      1.0000 0.54404  0.37155  0.68830  Biso   1.000  C
  C44      1.0000 0.57048  0.38863  0.70487  Biso   1.000  C
  C45      1.0000 0.58496  0.37389  0.73161  Biso   1.000  C
  H29      1.0000 0.57660  0.35430  0.74000  Biso   1.000  H
  O29      1.0000 0.53355  0.38352  0.66290  Biso   1.000  O
  O30      1.0000 0.53338  0.34569  0.70086  Biso   1.000  O
  H30      1.0000 0.62340  0.35130  0.77280  Biso   1.000  H
  C46      1.0000 0.04404  0.87155  0.18830  Biso   1.000  C
  C47      1.0000 0.07048  0.88863  0.20487  Biso   1.000  C
  C48      1.0000 0.08496  0.87389  0.23161  Biso   1.000  C
  H31      1.0000 0.07660  0.85430  0.24000  Biso   1.000  H
  O31      1.0000 0.03355  0.88352  0.16290  Biso   1.000  O
  O32      1.0000 0.03338  0.84569  0.20086  Biso   1.000  O
  H32      1.0000 0.12340  0.85130  0.27280  Biso   1.000  H
  C49      1.0000 0.31170  0.45596  0.37155  Biso   1.000  C
  C50      1.0000 0.29513  0.42952  0.38863  Biso   1.000  C
  C51      1.0000 0.26839  0.41504  0.37389  Biso   1.000  C
  H33      1.0000 0.26000  0.42340  0.35430  Biso   1.000  H
  O33      1.0000 0.33710  0.46645  0.38352  Biso   1.000  O
  O34      1.0000 0.29914  0.46662  0.34569  Biso   1.000  O
  H34      1.0000 0.22720  0.37660  0.35130  Biso   1.000  H
  C52      1.0000 0.81170  0.95596  0.87155  Biso   1.000  C
  C53      1.0000 0.79513  0.92952  0.88863  Biso   1.000  C
  C54      1.0000 0.76839  0.91504  0.87389  Biso   1.000  C
  H35      1.0000 0.76000  0.92340  0.85430  Biso   1.000  H
  O35      1.0000 0.83710  0.96645  0.88352  Biso   1.000  O
  O36      1.0000 0.79914  0.96662  0.84569  Biso   1.000  O
  H36      1.0000 0.72720  0.87660  0.85130  Biso   1.000  H
  C55      1.0000 0.68830  0.45596  0.62845  Biso   1.000  C
  C56      1.0000 0.70487  0.42952  0.61137  Biso   1.000  C
  C57      1.0000 0.73161  0.41504  0.62611  Biso   1.000  C
  H37      1.0000 0.74000  0.42340  0.64570  Biso   1.000  H
  O37      1.0000 0.66290  0.46645  0.61648  Biso   1.000  O
  O38      1.0000 0.70086  0.46662  0.65431  Biso   1.000  O
  H38      1.0000 0.77280  0.37660  0.64870  Biso   1.000  H
  C58      1.0000 0.18830  0.95596  0.12845  Biso   1.000  C
  C59      1.0000 0.20487  0.92952  0.11137  Biso   1.000  C
  C60      1.0000 0.23161  0.91504  0.12611  Biso   1.000  C
  H39      1.0000 0.24000  0.92340  0.14570  Biso   1.000  H
  O39      1.0000 0.16290  0.96645  0.11648  Biso   1.000  O
  O40      1.0000 0.20086  0.96662  0.15431  Biso   1.000  O
  H40      1.0000 0.27280  0.87660  0.14870  Biso   1.000  H
  C61      1.0000 0.31170  0.54404  0.62845  Biso   1.000  C
  C62      1.0000 0.29513  0.57048  0.61137  Biso   1.000  C
  C63      1.0000 0.26839  0.58496  0.62611  Biso   1.000  C
  H41      1.0000 0.26000  0.57660  0.64570  Biso   1.000  H
  O41      1.0000 0.33710  0.53355  0.61648  Biso   1.000  O
  O42      1.0000 0.29914  0.53338  0.65431  Biso   1.000  O
  H42      1.0000 0.22720  0.62340  0.64870  Biso   1.000  H
  C64      1.0000 0.81170  0.04404  0.12845  Biso   1.000  C
  C65      1.0000 0.79513  0.07048  0.11137  Biso   1.000  C
  C66      1.0000 0.76839  0.08496  0.12611  Biso   1.000  C
  H43      1.0000 0.76000  0.07660  0.14570  Biso   1.000  H
  O43      1.0000 0.83710  0.03355  0.11648  Biso   1.000  O
  O44      1.0000 0.79914  0.03338  0.15431  Biso   1.000  O
  H44      1.0000 0.72720  0.12340  0.14870  Biso   1.000  H
  C67      1.0000 0.68830  0.54404  0.37155  Biso   1.000  C
  C68      1.0000 0.70487  0.57048  0.38863  Biso   1.000  C
  C69      1.0000 0.73161  0.58496  0.37389  Biso   1.000  C
  H45      1.0000 0.74000  0.57660  0.35430  Biso   1.000  H
  O45      1.0000 0.66290  0.53355  0.38352  Biso   1.000  O
  O46      1.0000 0.70086  0.53338  0.34569  Biso   1.000  O
  H46      1.0000 0.77280  0.62340  0.35130  Biso   1.000  H
  C70      1.0000 0.18830  0.04404  0.87155  Biso   1.000  C
  C71      1.0000 0.20487  0.07048  0.88863  Biso   1.000  C
  C72      1.0000 0.23161  0.08496  0.87389  Biso   1.000  C
  H47      1.0000 0.24000  0.07660  0.85430  Biso   1.000  H
  O47      1.0000 0.16290  0.03355  0.88352  Biso   1.000  O
  O48      1.0000 0.20086  0.03338  0.84569  Biso   1.000  O
  H48      1.0000 0.27280  0.12340  0.85130  Biso   1.000  H
  C73      1.0000 0.31170  0.37155  0.54404  Biso   1.000  C
  C74      1.0000 0.29513  0.38863  0.57048  Biso   1.000  C
  C75      1.0000 0.26839  0.37389  0.58496  Biso   1.000  C
  H49      1.0000 0.26000  0.35430  0.57660  Biso   1.000  H
  O49      1.0000 0.33710  0.38352  0.53355  Biso   1.000  O
  O50      1.0000 0.29914  0.34569  0.53338  Biso   1.000  O
  H50      1.0000 0.22720  0.35130  0.62340  Biso   1.000  H
  C76      1.0000 0.81170  0.87155  0.04404  Biso   1.000  C
  C77      1.0000 0.79513  0.88863  0.07048  Biso   1.000  C
  C78      1.0000 0.76839  0.87389  0.08496  Biso   1.000  C
  H51      1.0000 0.76000  0.85430  0.07660  Biso   1.000  H
  O51      1.0000 0.83710  0.88352  0.03355  Biso   1.000  O
  O52      1.0000 0.79914  0.84569  0.03338  Biso   1.000  O
  H52      1.0000 0.72720  0.85130  0.12340  Biso   1.000  H
  C79      1.0000 0.68830  0.62845  0.54404  Biso   1.000  C
  C80      1.0000 0.70487  0.61137  0.57048  Biso   1.000  C
  C81      1.0000 0.73161  0.62611  0.58496  Biso   1.000  C
  H53      1.0000 0.74000  0.64570  0.57660  Biso   1.000  H
  O53      1.0000 0.66290  0.61648  0.53355  Biso   1.000  O
  O54      1.0000 0.70086  0.65431  0.53338  Biso   1.000  O
  H54      1.0000 0.77280  0.64870  0.62340  Biso   1.000  H
  C82      1.0000 0.18830  0.12845  0.04404  Biso   1.000  C
  C83      1.0000 0.20487  0.11137  0.07048  Biso   1.000  C
  C84      1.0000 0.23161  0.12611  0.08496  Biso   1.000  C
  H55      1.0000 0.24000  0.14570  0.07660  Biso   1.000  H
  O55      1.0000 0.16290  0.11648  0.03355  Biso   1.000  O
  O56      1.0000 0.20086  0.15431  0.03338  Biso   1.000  O
  H56      1.0000 0.27280  0.14870  0.12340  Biso   1.000  H
  C85      1.0000 0.31170  0.62845  0.45596  Biso   1.000  C
  C86      1.0000 0.29513  0.61137  0.42952  Biso   1.000  C
  C87      1.0000 0.26839  0.62611  0.41504  Biso   1.000  C
  H57      1.0000 0.26000  0.64570  0.42340  Biso   1.000  H
  O57      1.0000 0.33710  0.61648  0.46645  Biso   1.000  O
  O58      1.0000 0.29914  0.65431  0.46662  Biso   1.000  O
  H58      1.0000 0.22720  0.64870  0.37660  Biso   1.000  H
  C88      1.0000 0.81170  0.12845  0.95596  Biso   1.000  C
  C89      1.0000 0.79513  0.11137  0.92952  Biso   1.000  C
  C90      1.0000 0.76839  0.12611  0.91504  Biso   1.000  C
  H59      1.0000 0.76000  0.14570  0.92340  Biso   1.000  H
  O59      1.0000 0.83710  0.11648  0.96645  Biso   1.000  O
  O60      1.0000 0.79914  0.15431  0.96662  Biso   1.000  O
  H60      1.0000 0.72720  0.14870  0.87660  Biso   1.000  H
  C91      1.0000 0.68830  0.37155  0.45596  Biso   1.000  C
  C92      1.0000 0.70487  0.38863  0.42952  Biso   1.000  C
  C93      1.0000 0.73161  0.37389  0.41504  Biso   1.000  C
  H61      1.0000 0.74000  0.35430  0.42340  Biso   1.000  H
  O61      1.0000 0.66290  0.38352  0.46645  Biso   1.000  O
  O62      1.0000 0.70086  0.34569  0.46662  Biso   1.000  O
  H62      1.0000 0.77280  0.35130  0.37660  Biso   1.000  H
  C94      1.0000 0.18830  0.87155  0.95596  Biso   1.000  C
  C95      1.0000 0.20487  0.88863  0.92952  Biso   1.000  C
  C96      1.0000 0.23161  0.87389  0.91504  Biso   1.000  C
  H63      1.0000 0.24000  0.85430  0.92340  Biso   1.000  H
  O63      1.0000 0.16290  0.88352  0.96645  Biso   1.000  O
  O64      1.0000 0.20086  0.84569  0.96662  Biso   1.000  O
  H64      1.0000 0.27280  0.85130  0.87660  Biso   1.000  H
  C97      1.0000 0.37155  0.45596  0.68830  Biso   1.000  C
  C98      1.0000 0.38863  0.42952  0.70487  Biso   1.000  C
  C99      1.0000 0.37389  0.41504  0.73161  Biso   1.000  C
  H65      1.0000 0.35430  0.42340  0.74000  Biso   1.000  H
  O65      1.0000 0.38352  0.46645  0.66290  Biso   1.000  O
  O66      1.0000 0.34569  0.46662  0.70086  Biso   1.000  O
  H66      1.0000 0.35130  0.37660  0.77280  Biso   1.000  H
  C100     1.0000 0.87155  0.95596  0.18830  Biso   1.000  C
  C101     1.0000 0.88863  0.92952  0.20487  Biso   1.000  C
  C102     1.0000 0.87389  0.91504  0.23161  Biso   1.000  C
  H67      1.0000 0.85430  0.92340  0.24000  Biso   1.000  H
  O67      1.0000 0.88352  0.96645  0.16290  Biso   1.000  O
  O68      1.0000 0.84569  0.96662  0.20086  Biso   1.000  O
  H68      1.0000 0.85130  0.87660  0.27280  Biso   1.000  H
  C103     1.0000 0.62845  0.45596  0.31170  Biso   1.000  C
  C104     1.0000 0.61137  0.42952  0.29513  Biso   1.000  C
  C105     1.0000 0.62611  0.41504  0.26839  Biso   1.000  C
  H69      1.0000 0.64570  0.42340  0.26000  Biso   1.000  H
  O69      1.0000 0.61648  0.46645  0.33710  Biso   1.000  O
  O70      1.0000 0.65431  0.46662  0.29914  Biso   1.000  O
  H70      1.0000 0.64870  0.37660  0.22720  Biso   1.000  H
  C106     1.0000 0.12845  0.95596  0.81170  Biso   1.000  C
  C107     1.0000 0.11137  0.92952  0.79513  Biso   1.000  C
  C108     1.0000 0.12611  0.91504  0.76839  Biso   1.000  C
  H71      1.0000 0.14570  0.92340  0.76000  Biso   1.000  H
  O71      1.0000 0.11648  0.96645  0.83710  Biso   1.000  O
  O72      1.0000 0.15431  0.96662  0.79914  Biso   1.000  O
  H72      1.0000 0.14870  0.87660  0.72720  Biso   1.000  H
  C109     1.0000 0.62845  0.54404  0.68830  Biso   1.000  C
  C110     1.0000 0.61137  0.57048  0.70487  Biso   1.000  C
  C111     1.0000 0.62611  0.58496  0.73161  Biso   1.000  C
  H73      1.0000 0.64570  0.57660  0.74000  Biso   1.000  H
  O73      1.0000 0.61648  0.53355  0.66290  Biso   1.000  O
  O74      1.0000 0.65431  0.53338  0.70086  Biso   1.000  O
  H74      1.0000 0.64870  0.62340  0.77280  Biso   1.000  H
  C112     1.0000 0.12845  0.04404  0.18830  Biso   1.000  C
  C113     1.0000 0.11137  0.07048  0.20487  Biso   1.000  C
  C114     1.0000 0.12611  0.08496  0.23161  Biso   1.000  C
  H75      1.0000 0.14570  0.07660  0.24000  Biso   1.000  H
  O75      1.0000 0.11648  0.03355  0.16290  Biso   1.000  O
  O76      1.0000 0.15431  0.03338  0.20086  Biso   1.000  O
  H76      1.0000 0.14870  0.12340  0.27280  Biso   1.000  H
  C115     1.0000 0.37155  0.54404  0.31170  Biso   1.000  C
  C116     1.0000 0.38863  0.57048  0.29513  Biso   1.000  C
  C117     1.0000 0.37389  0.58496  0.26839  Biso   1.000  C
  H77      1.0000 0.35430  0.57660  0.26000  Biso   1.000  H
  O77      1.0000 0.38352  0.53355  0.33710  Biso   1.000  O
  O78      1.0000 0.34569  0.53338  0.29914  Biso   1.000  O
  H78      1.0000 0.35130  0.62340  0.22720  Biso   1.000  H
  C118     1.0000 0.87155  0.04404  0.81170  Biso   1.000  C
  C119     1.0000 0.88863  0.07048  0.79513  Biso   1.000  C
  C120     1.0000 0.87389  0.08496  0.76839  Biso   1.000  C
  H79      1.0000 0.85430  0.07660  0.76000  Biso   1.000  H
  O79      1.0000 0.88352  0.03355  0.83710  Biso   1.000  O
  O80      1.0000 0.84569  0.03338  0.79914  Biso   1.000  O
  H80      1.0000 0.85130  0.12340  0.72720  Biso   1.000  H
  C121     1.0000 0.45596  0.31170  0.62845  Biso   1.000  C
  C122     1.0000 0.42952  0.29513  0.61137  Biso   1.000  C
  C123     1.0000 0.41504  0.26839  0.62611  Biso   1.000  C
  H81      1.0000 0.42340  0.26000  0.64570  Biso   1.000  H
  O81      1.0000 0.46645  0.33710  0.61648  Biso   1.000  O
  O82      1.0000 0.46662  0.29914  0.65431  Biso   1.000  O
  H82      1.0000 0.37660  0.22720  0.64870  Biso   1.000  H
  C124     1.0000 0.95596  0.81170  0.12845  Biso   1.000  C
  C125     1.0000 0.92952  0.79513  0.11137  Biso   1.000  C
  C126     1.0000 0.91504  0.76839  0.12611  Biso   1.000  C
  H83      1.0000 0.92340  0.76000  0.14570  Biso   1.000  H
  O83      1.0000 0.96645  0.83710  0.11648  Biso   1.000  O
  O84      1.0000 0.96662  0.79914  0.15431  Biso   1.000  O
  H84      1.0000 0.87660  0.72720  0.14870  Biso   1.000  H
  C127     1.0000 0.45596  0.68830  0.37155  Biso   1.000  C
  C128     1.0000 0.42952  0.70487  0.38863  Biso   1.000  C
  C129     1.0000 0.41504  0.73161  0.37389  Biso   1.000  C
  H85      1.0000 0.42340  0.74000  0.35430  Biso   1.000  H
  O85      1.0000 0.46645  0.66290  0.38352  Biso   1.000  O
  O86      1.0000 0.46662  0.70086  0.34569  Biso   1.000  O
  H86      1.0000 0.37660  0.77280  0.35130  Biso   1.000  H
  C130     1.0000 0.95596  0.18830  0.87155  Biso   1.000  C
  C131     1.0000 0.92952  0.20487  0.88863  Biso   1.000  C
  C132     1.0000 0.91504  0.23161  0.87389  Biso   1.000  C
  H87      1.0000 0.92340  0.24000  0.85430  Biso   1.000  H
  O87      1.0000 0.96645  0.16290  0.88352  Biso   1.000  O
  O88      1.0000 0.96662  0.20086  0.84569  Biso   1.000  O
  H88      1.0000 0.87660  0.27280  0.85130  Biso   1.000  H
  C133     1.0000 0.54404  0.31170  0.37155  Biso   1.000  C
  C134     1.0000 0.57048  0.29513  0.38863  Biso   1.000  C
  C135     1.0000 0.58496  0.26839  0.37389  Biso   1.000  C
  H89      1.0000 0.57660  0.26000  0.35430  Biso   1.000  H
  O89      1.0000 0.53355  0.33710  0.38352  Biso   1.000  O
  O90      1.0000 0.53338  0.29914  0.34569  Biso   1.000  O
  H90      1.0000 0.62340  0.22720  0.35130  Biso   1.000  H
  C136     1.0000 0.04404  0.81170  0.87155  Biso   1.000  C
  C137     1.0000 0.07048  0.79513  0.88863  Biso   1.000  C
  C138     1.0000 0.08496  0.76839  0.87389  Biso   1.000  C
  H91      1.0000 0.07660  0.76000  0.85430  Biso   1.000  H
  O91      1.0000 0.03355  0.83710  0.88352  Biso   1.000  O
  O92      1.0000 0.03338  0.79914  0.84569  Biso   1.000  O
  H92      1.0000 0.12340  0.72720  0.85130  Biso   1.000  H
  C139     1.0000 0.54404  0.68830  0.62845  Biso   1.000  C
  C140     1.0000 0.57048  0.70487  0.61137  Biso   1.000  C
  C141     1.0000 0.58496  0.73161  0.62611  Biso   1.000  C
  H93      1.0000 0.57660  0.74000  0.64570  Biso   1.000  H
  O93      1.0000 0.53355  0.66290  0.61648  Biso   1.000  O
  O94      1.0000 0.53338  0.70086  0.65431  Biso   1.000  O
  H94      1.0000 0.62340  0.77280  0.64870  Biso   1.000  H
  C142     1.0000 0.04404  0.18830  0.12845  Biso   1.000  C
  C143     1.0000 0.07048  0.20487  0.11137  Biso   1.000  C
  C144     1.0000 0.08496  0.23161  0.12611  Biso   1.000  C
  H95      1.0000 0.07660  0.24000  0.14570  Biso   1.000  H
  O95      1.0000 0.03355  0.16290  0.11648  Biso   1.000  O
  O96      1.0000 0.03338  0.20086  0.15431  Biso   1.000  O
  H96      1.0000 0.12340  0.27280  0.14870  Biso   1.000  H
  C145     1.0000 0.62845  0.68830  0.54404  Biso   1.000  C
  C146     1.0000 0.61137  0.70487  0.57048  Biso   1.000  C
  C147     1.0000 0.62611  0.73161  0.58496  Biso   1.000  C
  H97      1.0000 0.64570  0.74000  0.57660  Biso   1.000  H
  O97      1.0000 0.61648  0.66290  0.53355  Biso   1.000  O
  O98      1.0000 0.65431  0.70086  0.53338  Biso   1.000  O
  H98      1.0000 0.64870  0.77280  0.62340  Biso   1.000  H
  C148     1.0000 0.12845  0.18830  0.04404  Biso   1.000  C
  C149     1.0000 0.11137  0.20487  0.07048  Biso   1.000  C
  C150     1.0000 0.12611  0.23161  0.08496  Biso   1.000  C
  H99      1.0000 0.14570  0.24000  0.07660  Biso   1.000  H
  O99      1.0000 0.11648  0.16290  0.03355  Biso   1.000  O
  O100     1.0000 0.15431  0.20086  0.03338  Biso   1.000  O
  H100     1.0000 0.14870  0.27280  0.12340  Biso   1.000  H
  C151     1.0000 0.37155  0.31170  0.54404  Biso   1.000  C
  C152     1.0000 0.38863  0.29513  0.57048  Biso   1.000  C
  C153     1.0000 0.37389  0.26839  0.58496  Biso   1.000  C
  H101     1.0000 0.35430  0.26000  0.57660  Biso   1.000  H
  O101     1.0000 0.38352  0.33710  0.53355  Biso   1.000  O
  O102     1.0000 0.34569  0.29914  0.53338  Biso   1.000  O
  H102     1.0000 0.35130  0.22720  0.62340  Biso   1.000  H
  C154     1.0000 0.87155  0.81170  0.04404  Biso   1.000  C
  C155     1.0000 0.88863  0.79513  0.07048  Biso   1.000  C
  C156     1.0000 0.87389  0.76839  0.08496  Biso   1.000  C
  H103     1.0000 0.85430  0.76000  0.07660  Biso   1.000  H
  O103     1.0000 0.88352  0.83710  0.03355  Biso   1.000  O
  O104     1.0000 0.84569  0.79914  0.03338  Biso   1.000  O
  H104     1.0000 0.85130  0.72720  0.12340  Biso   1.000  H
  C157     1.0000 0.37155  0.68830  0.45596  Biso   1.000  C
  C158     1.0000 0.38863  0.70487  0.42952  Biso   1.000  C
  C159     1.0000 0.37389  0.73161  0.41504  Biso   1.000  C
  H105     1.0000 0.35430  0.74000  0.42340  Biso   1.000  H
  O105     1.0000 0.38352  0.66290  0.46645  Biso   1.000  O
  O106     1.0000 0.34569  0.70086  0.46662  Biso   1.000  O
  H106     1.0000 0.35130  0.77280  0.37660  Biso   1.000  H
  C160     1.0000 0.87155  0.18830  0.95596  Biso   1.000  C
  C161     1.0000 0.88863  0.20487  0.92952  Biso   1.000  C
  C162     1.0000 0.87389  0.23161  0.91504  Biso   1.000  C
  H107     1.0000 0.85430  0.24000  0.92340  Biso   1.000  H
  O107     1.0000 0.88352  0.16290  0.96645  Biso   1.000  O
  O108     1.0000 0.84569  0.20086  0.96662  Biso   1.000  O
  H108     1.0000 0.85130  0.27280  0.87660  Biso   1.000  H
  C163     1.0000 0.62845  0.31170  0.45596  Biso   1.000  C
  C164     1.0000 0.61137  0.29513  0.42952  Biso   1.000  C
  C165     1.0000 0.62611  0.26839  0.41504  Biso   1.000  C
  H109     1.0000 0.64570  0.26000  0.42340  Biso   1.000  H
  O109     1.0000 0.61648  0.33710  0.46645  Biso   1.000  O
  O110     1.0000 0.65431  0.29914  0.46662  Biso   1.000  O
  H110     1.0000 0.64870  0.22720  0.37660  Biso   1.000  H
  C166     1.0000 0.12845  0.81170  0.95596  Biso   1.000  C
  C167     1.0000 0.11137  0.79513  0.92952  Biso   1.000  C
  C168     1.0000 0.12611  0.76839  0.91504  Biso   1.000  C
  H111     1.0000 0.14570  0.76000  0.92340  Biso   1.000  H
  O111     1.0000 0.11648  0.83710  0.96645  Biso   1.000  O
  O112     1.0000 0.15431  0.79914  0.96662  Biso   1.000  O
  H112     1.0000 0.14870  0.72720  0.87660  Biso   1.000  H
  C169     1.0000 0.54404  0.62845  0.68830  Biso   1.000  C
  C170     1.0000 0.57048  0.61137  0.70487  Biso   1.000  C
  C171     1.0000 0.58496  0.62611  0.73161  Biso   1.000  C
  H113     1.0000 0.57660  0.64570  0.74000  Biso   1.000  H
  O113     1.0000 0.53355  0.61648  0.66290  Biso   1.000  O
  O114     1.0000 0.53338  0.65431  0.70086  Biso   1.000  O
  H114     1.0000 0.62340  0.64870  0.77280  Biso   1.000  H
  C172     1.0000 0.04404  0.12845  0.18830  Biso   1.000  C
  C173     1.0000 0.07048  0.11137  0.20487  Biso   1.000  C
  C174     1.0000 0.08496  0.12611  0.23161  Biso   1.000  C
  H115     1.0000 0.07660  0.14570  0.24000  Biso   1.000  H
  O115     1.0000 0.03355  0.11648  0.16290  Biso   1.000  O
  O116     1.0000 0.03338  0.15431  0.20086  Biso   1.000  O
  H116     1.0000 0.12340  0.14870  0.27280  Biso   1.000  H
  C175     1.0000 0.54404  0.37155  0.31170  Biso   1.000  C
  C176     1.0000 0.57048  0.38863  0.29513  Biso   1.000  C
  C177     1.0000 0.58496  0.37389  0.26839  Biso   1.000  C
  H117     1.0000 0.57660  0.35430  0.26000  Biso   1.000  H
  O117     1.0000 0.53355  0.38352  0.33710  Biso   1.000  O
  O118     1.0000 0.53338  0.34569  0.29914  Biso   1.000  O
  H118     1.0000 0.62340  0.35130  0.22720  Biso   1.000  H
  C178     1.0000 0.04404  0.87155  0.81170  Biso   1.000  C
  C179     1.0000 0.07048  0.88863  0.79513  Biso   1.000  C
  C180     1.0000 0.08496  0.87389  0.76839  Biso   1.000  C
  H119     1.0000 0.07660  0.85430  0.76000  Biso   1.000  H
  O119     1.0000 0.03355  0.88352  0.83710  Biso   1.000  O
  O120     1.0000 0.03338  0.84569  0.79914  Biso   1.000  O
  H120     1.0000 0.12340  0.85130  0.72720  Biso   1.000  H
  C181     1.0000 0.45596  0.37155  0.68830  Biso   1.000  C
  C182     1.0000 0.42952  0.38863  0.70487  Biso   1.000  C
  C183     1.0000 0.41504  0.37389  0.73161  Biso   1.000  C
  H121     1.0000 0.42340  0.35430  0.74000  Biso   1.000  H
  O121     1.0000 0.46645  0.38352  0.66290  Biso   1.000  O
  O122     1.0000 0.46662  0.34569  0.70086  Biso   1.000  O
  H122     1.0000 0.37660  0.35130  0.77280  Biso   1.000  H
  C184     1.0000 0.95596  0.87155  0.18830  Biso   1.000  C
  C185     1.0000 0.92952  0.88863  0.20487  Biso   1.000  C
  C186     1.0000 0.91504  0.87389  0.23161  Biso   1.000  C
  H123     1.0000 0.92340  0.85430  0.24000  Biso   1.000  H
  O123     1.0000 0.96645  0.88352  0.16290  Biso   1.000  O
  O124     1.0000 0.96662  0.84569  0.20086  Biso   1.000  O
  H124     1.0000 0.87660  0.85130  0.27280  Biso   1.000  H
  C187     1.0000 0.45596  0.62845  0.31170  Biso   1.000  C
  C188     1.0000 0.42952  0.61137  0.29513  Biso   1.000  C
  C189     1.0000 0.41504  0.62611  0.26839  Biso   1.000  C
  H125     1.0000 0.42340  0.64570  0.26000  Biso   1.000  H
  O125     1.0000 0.46645  0.61648  0.33710  Biso   1.000  O
  O126     1.0000 0.46662  0.65431  0.29914  Biso   1.000  O
  H126     1.0000 0.37660  0.64870  0.22720  Biso   1.000  H
  C190     1.0000 0.95596  0.12845  0.81170  Biso   1.000  C
  C191     1.0000 0.92952  0.11137  0.79513  Biso   1.000  C
  C192     1.0000 0.91504  0.12611  0.76839  Biso   1.000  C
  H127     1.0000 0.92340  0.14570  0.76000  Biso   1.000  H
  O127     1.0000 0.96645  0.11648  0.83710  Biso   1.000  O
  O128     1.0000 0.96662  0.15431  0.79914  Biso   1.000  O
  H128     1.0000 0.87660  0.14870  0.72720  Biso   1.000  H
  C193     1.0000 0.68830  0.54404  0.62845  Biso   1.000  C
  C194     1.0000 0.70487  0.57048  0.61137  Biso   1.000  C
  C195     1.0000 0.73161  0.58496  0.62611  Biso   1.000  C
  H129     1.0000 0.74000  0.57660  0.64570  Biso   1.000  H
  O129     1.0000 0.66290  0.53355  0.61648  Biso   1.000  O
  O130     1.0000 0.70086  0.53338  0.65431  Biso   1.000  O
  H130     1.0000 0.77280  0.62340  0.64870  Biso   1.000  H
  C196     1.0000 0.18830  0.04404  0.12845  Biso   1.000  C
  C197     1.0000 0.20487  0.07048  0.11137  Biso   1.000  C
  C198     1.0000 0.23161  0.08496  0.12611  Biso   1.000  C
  H131     1.0000 0.24000  0.07660  0.14570  Biso   1.000  H
  O131     1.0000 0.16290  0.03355  0.11648  Biso   1.000  O
  O132     1.0000 0.20086  0.03338  0.15431  Biso   1.000  O
  H132     1.0000 0.27280  0.12340  0.14870  Biso   1.000  H
  C199     1.0000 0.31170  0.54404  0.37155  Biso   1.000  C
  C200     1.0000 0.29513  0.57048  0.38863  Biso   1.000  C
  C201     1.0000 0.26839  0.58496  0.37389  Biso   1.000  C
  H133     1.0000 0.26000  0.57660  0.35430  Biso   1.000  H
  O133     1.0000 0.33710  0.53355  0.38352  Biso   1.000  O
  O134     1.0000 0.29914  0.53338  0.34569  Biso   1.000  O
  H134     1.0000 0.22720  0.62340  0.35130  Biso   1.000  H
  C202     1.0000 0.81170  0.04404  0.87155  Biso   1.000  C
  C203     1.0000 0.79513  0.07048  0.88863  Biso   1.000  C
  C204     1.0000 0.76839  0.08496  0.87389  Biso   1.000  C
  H135     1.0000 0.76000  0.07660  0.85430  Biso   1.000  H
  O135     1.0000 0.83710  0.03355  0.88352  Biso   1.000  O
  O136     1.0000 0.79914  0.03338  0.84569  Biso   1.000  O
  H136     1.0000 0.72720  0.12340  0.85130  Biso   1.000  H
  C205     1.0000 0.68830  0.45596  0.37155  Biso   1.000  C
  C206     1.0000 0.70487  0.42952  0.38863  Biso   1.000  C
  C207     1.0000 0.73161  0.41504  0.37389  Biso   1.000  C
  H137     1.0000 0.74000  0.42340  0.35430  Biso   1.000  H
  O137     1.0000 0.66290  0.46645  0.38352  Biso   1.000  O
  O138     1.0000 0.70086  0.46662  0.34569  Biso   1.000  O
  H138     1.0000 0.77280  0.37660  0.35130  Biso   1.000  H
  C208     1.0000 0.18830  0.95596  0.87155  Biso   1.000  C
  C209     1.0000 0.20487  0.92952  0.88863  Biso   1.000  C
  C210     1.0000 0.23161  0.91504  0.87389  Biso   1.000  C
  H139     1.0000 0.24000  0.92340  0.85430  Biso   1.000  H
  O139     1.0000 0.16290  0.96645  0.88352  Biso   1.000  O
  O140     1.0000 0.20086  0.96662  0.84569  Biso   1.000  O
  H140     1.0000 0.27280  0.87660  0.85130  Biso   1.000  H
  C211     1.0000 0.31170  0.45596  0.62845  Biso   1.000  C
  C212     1.0000 0.29513  0.42952  0.61137  Biso   1.000  C
  C213     1.0000 0.26839  0.41504  0.62611  Biso   1.000  C
  H141     1.0000 0.26000  0.42340  0.64570  Biso   1.000  H
  O141     1.0000 0.33710  0.46645  0.61648  Biso   1.000  O
  O142     1.0000 0.29914  0.46662  0.65431  Biso   1.000  O
  H142     1.0000 0.22720  0.37660  0.64870  Biso   1.000  H
  C214     1.0000 0.81170  0.95596  0.12845  Biso   1.000  C
  C215     1.0000 0.79513  0.92952  0.11137  Biso   1.000  C
  C216     1.0000 0.76839  0.91504  0.12611  Biso   1.000  C
  H143     1.0000 0.76000  0.92340  0.14570  Biso   1.000  H
  O143     1.0000 0.83710  0.96645  0.11648  Biso   1.000  O
  O144     1.0000 0.79914  0.96662  0.15431  Biso   1.000  O
  H144     1.0000 0.72720  0.87660  0.14870  Biso   1.000  H
  C217     1.0000 0.68830  0.62845  0.45596  Biso   1.000  C
  C218     1.0000 0.70487  0.61137  0.42952  Biso   1.000  C
  C219     1.0000 0.73161  0.62611  0.41504  Biso   1.000  C
  H145     1.0000 0.74000  0.64570  0.42340  Biso   1.000  H
  O145     1.0000 0.66290  0.61648  0.46645  Biso   1.000  O
  O146     1.0000 0.70086  0.65431  0.46662  Biso   1.000  O
  H146     1.0000 0.77280  0.64870  0.37660  Biso   1.000  H
  C220     1.0000 0.18830  0.12845  0.95596  Biso   1.000  C
  C221     1.0000 0.20487  0.11137  0.92952  Biso   1.000  C
  C222     1.0000 0.23161  0.12611  0.91504  Biso   1.000  C
  H147     1.0000 0.24000  0.14570  0.92340  Biso   1.000  H
  O147     1.0000 0.16290  0.11648  0.96645  Biso   1.000  O
  O148     1.0000 0.20086  0.15431  0.96662  Biso   1.000  O
  H148     1.0000 0.27280  0.14870  0.87660  Biso   1.000  H
  C223     1.0000 0.31170  0.37155  0.45596  Biso   1.000  C
  C224     1.0000 0.29513  0.38863  0.42952  Biso   1.000  C
  C225     1.0000 0.26839  0.37389  0.41504  Biso   1.000  C
  H149     1.0000 0.26000  0.35430  0.42340  Biso   1.000  H
  O149     1.0000 0.33710  0.38352  0.46645  Biso   1.000  O
  O150     1.0000 0.29914  0.34569  0.46662  Biso   1.000  O
  H150     1.0000 0.22720  0.35130  0.37660  Biso   1.000  H
  C226     1.0000 0.81170  0.87155  0.95596  Biso   1.000  C
  C227     1.0000 0.79513  0.88863  0.92952  Biso   1.000  C
  C228     1.0000 0.76839  0.87389  0.91504  Biso   1.000  C
  H151     1.0000 0.76000  0.85430  0.92340  Biso   1.000  H
  O151     1.0000 0.83710  0.88352  0.96645  Biso   1.000  O
  O152     1.0000 0.79914  0.84569  0.96662  Biso   1.000  O
  H152     1.0000 0.72720  0.85130  0.87660  Biso   1.000  H
  C229     1.0000 0.68830  0.37155  0.54404  Biso   1.000  C
  C230     1.0000 0.70487  0.38863  0.57048  Biso   1.000  C
  C231     1.0000 0.73161  0.37389  0.58496  Biso   1.000  C
  H153     1.0000 0.74000  0.35430  0.57660  Biso   1.000  H
  O153     1.0000 0.66290  0.38352  0.53355  Biso   1.000  O
  O154     1.0000 0.70086  0.34569  0.53338  Biso   1.000  O
  H154     1.0000 0.77280  0.35130  0.62340  Biso   1.000  H
  C232     1.0000 0.18830  0.87155  0.04404  Biso   1.000  C
  C233     1.0000 0.20487  0.88863  0.07048  Biso   1.000  C
  C234     1.0000 0.23161  0.87389  0.08496  Biso   1.000  C
  H155     1.0000 0.24000  0.85430  0.07660  Biso   1.000  H
  O155     1.0000 0.16290  0.88352  0.03355  Biso   1.000  O
  O156     1.0000 0.20086  0.84569  0.03338  Biso   1.000  O
  H156     1.0000 0.27280  0.85130  0.12340  Biso   1.000  H
  C235     1.0000 0.31170  0.62845  0.54404  Biso   1.000  C
  C236     1.0000 0.29513  0.61137  0.57048  Biso   1.000  C
  C237     1.0000 0.26839  0.62611  0.58496  Biso   1.000  C
  H157     1.0000 0.26000  0.64570  0.57660  Biso   1.000  H
  O157     1.0000 0.33710  0.61648  0.53355  Biso   1.000  O
  O158     1.0000 0.29914  0.65431  0.53338  Biso   1.000  O
  H158     1.0000 0.22720  0.64870  0.62340  Biso   1.000  H
  C238     1.0000 0.81170  0.12845  0.04404  Biso   1.000  C
  C239     1.0000 0.79513  0.11137  0.07048  Biso   1.000  C
  C240     1.0000 0.76839  0.12611  0.08496  Biso   1.000  C
  H159     1.0000 0.76000  0.14570  0.07660  Biso   1.000  H
  O159     1.0000 0.83710  0.11648  0.03355  Biso   1.000  O
  O160     1.0000 0.79914  0.15431  0.03338  Biso   1.000  O
  H160     1.0000 0.72720  0.14870  0.12340  Biso   1.000  H
  C241     1.0000 0.62845  0.54404  0.31170  Biso   1.000  C
  C242     1.0000 0.61137  0.57048  0.29513  Biso   1.000  C
  C243     1.0000 0.62611  0.58496  0.26839  Biso   1.000  C
  H161     1.0000 0.64570  0.57660  0.26000  Biso   1.000  H
  O161     1.0000 0.61648  0.53355  0.33710  Biso   1.000  O
  O162     1.0000 0.65431  0.53338  0.29914  Biso   1.000  O
  H162     1.0000 0.64870  0.62340  0.22720  Biso   1.000  H
  C244     1.0000 0.12845  0.04404  0.81170  Biso   1.000  C
  C245     1.0000 0.11137  0.07048  0.79513  Biso   1.000  C
  C246     1.0000 0.12611  0.08496  0.76839  Biso   1.000  C
  H163     1.0000 0.14570  0.07660  0.76000  Biso   1.000  H
  O163     1.0000 0.11648  0.03355  0.83710  Biso   1.000  O
  O164     1.0000 0.15431  0.03338  0.79914  Biso   1.000  O
  H164     1.0000 0.14870  0.12340  0.72720  Biso   1.000  H
  C247     1.0000 0.37155  0.54404  0.68830  Biso   1.000  C
  C248     1.0000 0.38863  0.57048  0.70487  Biso   1.000  C
  C249     1.0000 0.37389  0.58496  0.73161  Biso   1.000  C
  H165     1.0000 0.35430  0.57660  0.74000  Biso   1.000  H
  O165     1.0000 0.38352  0.53355  0.66290  Biso   1.000  O
  O166     1.0000 0.34569  0.53338  0.70086  Biso   1.000  O
  H166     1.0000 0.35130  0.62340  0.77280  Biso   1.000  H
  C250     1.0000 0.87155  0.04404  0.18830  Biso   1.000  C
  C251     1.0000 0.88863  0.07048  0.20487  Biso   1.000  C
  C252     1.0000 0.87389  0.08496  0.23161  Biso   1.000  C
  H167     1.0000 0.85430  0.07660  0.24000  Biso   1.000  H
  O167     1.0000 0.88352  0.03355  0.16290  Biso   1.000  O
  O168     1.0000 0.84569  0.03338  0.20086  Biso   1.000  O
  H168     1.0000 0.85130  0.12340  0.27280  Biso   1.000  H
  C253     1.0000 0.37155  0.45596  0.31170  Biso   1.000  C
  C254     1.0000 0.38863  0.42952  0.29513  Biso   1.000  C
  C255     1.0000 0.37389  0.41504  0.26839  Biso   1.000  C
  H169     1.0000 0.35430  0.42340  0.26000  Biso   1.000  H
  O169     1.0000 0.38352  0.46645  0.33710  Biso   1.000  O
  O170     1.0000 0.34569  0.46662  0.29914  Biso   1.000  O
  H170     1.0000 0.35130  0.37660  0.22720  Biso   1.000  H
  C256     1.0000 0.87155  0.95596  0.81170  Biso   1.000  C
  C257     1.0000 0.88863  0.92952  0.79513  Biso   1.000  C
  C258     1.0000 0.87389  0.91504  0.76839  Biso   1.000  C
  H171     1.0000 0.85430  0.92340  0.76000  Biso   1.000  H
  O171     1.0000 0.88352  0.96645  0.83710  Biso   1.000  O
  O172     1.0000 0.84569  0.96662  0.79914  Biso   1.000  O
  H172     1.0000 0.85130  0.87660  0.72720  Biso   1.000  H
  C259     1.0000 0.62845  0.45596  0.68830  Biso   1.000  C
  C260     1.0000 0.61137  0.42952  0.70487  Biso   1.000  C
  C261     1.0000 0.62611  0.41504  0.73161  Biso   1.000  C
  H173     1.0000 0.64570  0.42340  0.74000  Biso   1.000  H
  O173     1.0000 0.61648  0.46645  0.66290  Biso   1.000  O
  O174     1.0000 0.65431  0.46662  0.70086  Biso   1.000  O
  H174     1.0000 0.64870  0.37660  0.77280  Biso   1.000  H
  C262     1.0000 0.12845  0.95596  0.18830  Biso   1.000  C
  C263     1.0000 0.11137  0.92952  0.20487  Biso   1.000  C
  C264     1.0000 0.12611  0.91504  0.23161  Biso   1.000  C
  H175     1.0000 0.14570  0.92340  0.24000  Biso   1.000  H
  O175     1.0000 0.11648  0.96645  0.16290  Biso   1.000  O
  O176     1.0000 0.15431  0.96662  0.20086  Biso   1.000  O
  H176     1.0000 0.14870  0.87660  0.27280  Biso   1.000  H
  C265     1.0000 0.54404  0.68830  0.37155  Biso   1.000  C
  C266     1.0000 0.57048  0.70487  0.38863  Biso   1.000  C
  C267     1.0000 0.58496  0.73161  0.37389  Biso   1.000  C
  H177     1.0000 0.57660  0.74000  0.35430  Biso   1.000  H
  O177     1.0000 0.53355  0.66290  0.38352  Biso   1.000  O
  O178     1.0000 0.53338  0.70086  0.34569  Biso   1.000  O
  H178     1.0000 0.62340  0.77280  0.35130  Biso   1.000  H
  C268     1.0000 0.04404  0.18830  0.87155  Biso   1.000  C
  C269     1.0000 0.07048  0.20487  0.88863  Biso   1.000  C
  C270     1.0000 0.08496  0.23161  0.87389  Biso   1.000  C
  H179     1.0000 0.07660  0.24000  0.85430  Biso   1.000  H
  O179     1.0000 0.03355  0.16290  0.88352  Biso   1.000  O
  O180     1.0000 0.03338  0.20086  0.84569  Biso   1.000  O
  H180     1.0000 0.12340  0.27280  0.85130  Biso   1.000  H
  C271     1.0000 0.54404  0.31170  0.62845  Biso   1.000  C
  C272     1.0000 0.57048  0.29513  0.61137  Biso   1.000  C
  C273     1.0000 0.58496  0.26839  0.62611  Biso   1.000  C
  H181     1.0000 0.57660  0.26000  0.64570  Biso   1.000  H
  O181     1.0000 0.53355  0.33710  0.61648  Biso   1.000  O
  O182     1.0000 0.53338  0.29914  0.65431  Biso   1.000  O
  H182     1.0000 0.62340  0.22720  0.64870  Biso   1.000  H
  C274     1.0000 0.04404  0.81170  0.12845  Biso   1.000  C
  C275     1.0000 0.07048  0.79513  0.11137  Biso   1.000  C
  C276     1.0000 0.08496  0.76839  0.12611  Biso   1.000  C
  H183     1.0000 0.07660  0.76000  0.14570  Biso   1.000  H
  O183     1.0000 0.03355  0.83710  0.11648  Biso   1.000  O
  O184     1.0000 0.03338  0.79914  0.15431  Biso   1.000  O
  H184     1.0000 0.12340  0.72720  0.14870  Biso   1.000  H
  C277     1.0000 0.45596  0.68830  0.62845  Biso   1.000  C
  C278     1.0000 0.42952  0.70487  0.61137  Biso   1.000  C
  C279     1.0000 0.41504  0.73161  0.62611  Biso   1.000  C
  H185     1.0000 0.42340  0.74000  0.64570  Biso   1.000  H
  O185     1.0000 0.46645  0.66290  0.61648  Biso   1.000  O
  O186     1.0000 0.46662  0.70086  0.65431  Biso   1.000  O
  H186     1.0000 0.37660  0.77280  0.64870  Biso   1.000  H
  C280     1.0000 0.95596  0.18830  0.12845  Biso   1.000  C
  C281     1.0000 0.92952  0.20487  0.11137  Biso   1.000  C
  C282     1.0000 0.91504  0.23161  0.12611  Biso   1.000  C
  H187     1.0000 0.92340  0.24000  0.14570  Biso   1.000  H
  O187     1.0000 0.96645  0.16290  0.11648  Biso   1.000  O
  O188     1.0000 0.96662  0.20086  0.15431  Biso   1.000  O
  H188     1.0000 0.87660  0.27280  0.14870  Biso   1.000  H
  C283     1.0000 0.45596  0.31170  0.37155  Biso   1.000  C
  C284     1.0000 0.42952  0.29513  0.38863  Biso   1.000  C
  C285     1.0000 0.41504  0.26839  0.37389  Biso   1.000  C
  H189     1.0000 0.42340  0.26000  0.35430  Biso   1.000  H
  O189     1.0000 0.46645  0.33710  0.38352  Biso   1.000  O
  O190     1.0000 0.46662  0.29914  0.34569  Biso   1.000  O
  H190     1.0000 0.37660  0.22720  0.35130  Biso   1.000  H
  C286     1.0000 0.95596  0.81170  0.87155  Biso   1.000  C
  C287     1.0000 0.92952  0.79513  0.88863  Biso   1.000  C
  C288     1.0000 0.91504  0.76839  0.87389  Biso   1.000  C
  H191     1.0000 0.92340  0.76000  0.85430  Biso   1.000  H
  O191     1.0000 0.96645  0.83710  0.88352  Biso   1.000  O
  O192     1.0000 0.96662  0.79914  0.84569  Biso   1.000  O
  H192     1.0000 0.87660  0.72720  0.85130  Biso   1.000  H
  C289     1.0000 0.41618  0.30831  0.41618  Biso   1.000  C
  H193     1.0000 0.42600  0.32650  0.42600  Biso   1.000  H
  C290     1.0000 0.38837  0.25434  0.38837  Biso   1.000  C
  C291     1.0000 0.37982  0.19181  0.37982  Biso   1.000  C
  C292     1.0000 0.33747  0.18117  0.33747  Biso   1.000  C
  H194     1.0000 0.33460  0.20370  0.33460  Biso   1.000  H
  C293     1.0000 0.35907  0.17012  0.35907  Biso   1.000  C
  C294     1.0000 0.36343  0.13684  0.36343  Biso   1.000  C
  H195     1.0000 0.37870  0.12910  0.37870  Biso   1.000  H
  C295     1.0000 0.34511  0.11528  0.34511  Biso   1.000  C
  H196     1.0000 0.34780  0.09270  0.34780  Biso   1.000  H
  C296     1.0000 0.32341  0.12682  0.32341  Biso   1.000  C
  C297     1.0000 0.31918  0.15951  0.31918  Biso   1.000  C
  C298     1.0000 0.29692  0.17151  0.29692  Biso   1.000  C
  H197     1.0000 0.29410  0.19410  0.29410  Biso   1.000  H
  C299     1.0000 0.27866  0.14902  0.27866  Biso   1.000  C
  H198     1.0000 0.26340  0.15660  0.26340  Biso   1.000  H
  C300     1.0000 0.28270  0.11690  0.28270  Biso   1.000  C
  C301     1.0000 0.30492  0.10488  0.30492  Biso   1.000  C
  H199     1.0000 0.30760  0.08230  0.30760  Biso   1.000  H
  C302     1.0000 0.26748  0.05872  0.26748  Biso   1.000  C
  C303     1.0000 0.25342  0.02803  0.25342  Biso   1.000  C
  C304     1.0000 0.22922  0.02846  0.22922  Biso   1.000  C
  H200     1.0000 0.22110  0.04820  0.22110  Biso   1.000  H
  N1       1.0000 0.37313  0.22490  0.37313  Biso   1.000  N
  N2       1.0000 0.26240  0.09198  0.26240  Biso   1.000  N
  H201     1.0000 0.24820  0.09870  0.24820  Biso   1.000  H
  O193     1.0000 0.39849  0.17831  0.39849  Biso   1.000  O
  O194     1.0000 0.28871  0.05266  0.28871  Biso   1.000  O
  C305     1.0000 0.91618  0.80831  0.91618  Biso   1.000  C
  H202     1.0000 0.92600  0.82650  0.92600  Biso   1.000  H
  C306     1.0000 0.88837  0.75434  0.88837  Biso   1.000  C
  C307     1.0000 0.87982  0.69181  0.87982  Biso   1.000  C
  C308     1.0000 0.83747  0.68117  0.83747  Biso   1.000  C
  H203     1.0000 0.83460  0.70370  0.83460  Biso   1.000  H
  C309     1.0000 0.85907  0.67012  0.85907  Biso   1.000  C
  C310     1.0000 0.86343  0.63684  0.86343  Biso   1.000  C
  H204     1.0000 0.87870  0.62910  0.87870  Biso   1.000  H
  C311     1.0000 0.84511  0.61528  0.84511  Biso   1.000  C
  H205     1.0000 0.84780  0.59270  0.84780  Biso   1.000  H
  C312     1.0000 0.82341  0.62682  0.82341  Biso   1.000  C
  C313     1.0000 0.81918  0.65951  0.81918  Biso   1.000  C
  C314     1.0000 0.79692  0.67151  0.79692  Biso   1.000  C
  H206     1.0000 0.79410  0.69410  0.79410  Biso   1.000  H
  C315     1.0000 0.77866  0.64902  0.77866  Biso   1.000  C
  H207     1.0000 0.76340  0.65660  0.76340  Biso   1.000  H
  C316     1.0000 0.78270  0.61690  0.78270  Biso   1.000  C
  C317     1.0000 0.80492  0.60488  0.80492  Biso   1.000  C
  H208     1.0000 0.80760  0.58230  0.80760  Biso   1.000  H
  C318     1.0000 0.76748  0.55872  0.76748  Biso   1.000  C
  C319     1.0000 0.75342  0.52803  0.75342  Biso   1.000  C
  C320     1.0000 0.72922  0.52846  0.72922  Biso   1.000  C
  H209     1.0000 0.72110  0.54820  0.72110  Biso   1.000  H
  N3       1.0000 0.87313  0.72490  0.87313  Biso   1.000  N
  N4       1.0000 0.76240  0.59198  0.76240  Biso   1.000  N
  H210     1.0000 0.74820  0.59870  0.74820  Biso   1.000  H
  O195     1.0000 0.89849  0.67831  0.89849  Biso   1.000  O
  O196     1.0000 0.78871  0.55266  0.78871  Biso   1.000  O
  C321     1.0000 0.58382  0.69169  0.41618  Biso   1.000  C
  H211     1.0000 0.57400  0.67350  0.42600  Biso   1.000  H
  C322     1.0000 0.61163  0.74566  0.38837  Biso   1.000  C
  C323     1.0000 0.62018  0.80819  0.37982  Biso   1.000  C
  C324     1.0000 0.66253  0.81883  0.33747  Biso   1.000  C
  H212     1.0000 0.66540  0.79630  0.33460  Biso   1.000  H
  C325     1.0000 0.64093  0.82988  0.35907  Biso   1.000  C
  C326     1.0000 0.63657  0.86316  0.36343  Biso   1.000  C
  H213     1.0000 0.62130  0.87090  0.37870  Biso   1.000  H
  C327     1.0000 0.65489  0.88472  0.34511  Biso   1.000  C
  H214     1.0000 0.65220  0.90730  0.34780  Biso   1.000  H
  C328     1.0000 0.67659  0.87318  0.32341  Biso   1.000  C
  C329     1.0000 0.68082  0.84049  0.31918  Biso   1.000  C
  C330     1.0000 0.70308  0.82849  0.29692  Biso   1.000  C
  H215     1.0000 0.70590  0.80590  0.29410  Biso   1.000  H
  C331     1.0000 0.72134  0.85098  0.27866  Biso   1.000  C
  H216     1.0000 0.73660  0.84340  0.26340  Biso   1.000  H
  C332     1.0000 0.71730  0.88310  0.28270  Biso   1.000  C
  C333     1.0000 0.69508  0.89512  0.30492  Biso   1.000  C
  H217     1.0000 0.69240  0.91770  0.30760  Biso   1.000  H
  C334     1.0000 0.73252  0.94128  0.26748  Biso   1.000  C
  C335     1.0000 0.74658  0.97197  0.25342  Biso   1.000  C
  C336     1.0000 0.77078  0.97154  0.22922  Biso   1.000  C
  H218     1.0000 0.77890  0.95180  0.22110  Biso   1.000  H
  N5       1.0000 0.62687  0.77510  0.37313  Biso   1.000  N
  N6       1.0000 0.73760  0.90802  0.26240  Biso   1.000  N
  H219     1.0000 0.75180  0.90130  0.24820  Biso   1.000  H
  O197     1.0000 0.60151  0.82169  0.39849  Biso   1.000  O
  O198     1.0000 0.71129  0.94734  0.28871  Biso   1.000  O
  C337     1.0000 0.08382  0.19169  0.91618  Biso   1.000  C
  H220     1.0000 0.07400  0.17350  0.92600  Biso   1.000  H
  C338     1.0000 0.11163  0.24566  0.88837  Biso   1.000  C
  C339     1.0000 0.12018  0.30819  0.87982  Biso   1.000  C
  C340     1.0000 0.16253  0.31883  0.83747  Biso   1.000  C
  H221     1.0000 0.16540  0.29630  0.83460  Biso   1.000  H
  C341     1.0000 0.14093  0.32988  0.85907  Biso   1.000  C
  C342     1.0000 0.13657  0.36316  0.86343  Biso   1.000  C
  H222     1.0000 0.12130  0.37090  0.87870  Biso   1.000  H
  C343     1.0000 0.15489  0.38472  0.84511  Biso   1.000  C
  H223     1.0000 0.15220  0.40730  0.84780  Biso   1.000  H
  C344     1.0000 0.17659  0.37318  0.82341  Biso   1.000  C
  C345     1.0000 0.18082  0.34049  0.81918  Biso   1.000  C
  C346     1.0000 0.20308  0.32849  0.79692  Biso   1.000  C
  H224     1.0000 0.20590  0.30590  0.79410  Biso   1.000  H
  C347     1.0000 0.22134  0.35098  0.77866  Biso   1.000  C
  H225     1.0000 0.23660  0.34340  0.76340  Biso   1.000  H
  C348     1.0000 0.21730  0.38310  0.78270  Biso   1.000  C
  C349     1.0000 0.19508  0.39512  0.80492  Biso   1.000  C
  H226     1.0000 0.19240  0.41770  0.80760  Biso   1.000  H
  C350     1.0000 0.23252  0.44128  0.76748  Biso   1.000  C
  C351     1.0000 0.24658  0.47197  0.75342  Biso   1.000  C
  C352     1.0000 0.27078  0.47154  0.72922  Biso   1.000  C
  H227     1.0000 0.27890  0.45180  0.72110  Biso   1.000  H
  N7       1.0000 0.12687  0.27510  0.87313  Biso   1.000  N
  N8       1.0000 0.23760  0.40802  0.76240  Biso   1.000  N
  H228     1.0000 0.25180  0.40130  0.74820  Biso   1.000  H
  O199     1.0000 0.10151  0.32169  0.89849  Biso   1.000  O
  O200     1.0000 0.21129  0.44734  0.78871  Biso   1.000  O
  C353     1.0000 0.58382  0.30831  0.58382  Biso   1.000  C
  H229     1.0000 0.57400  0.32650  0.57400  Biso   1.000  H
  C354     1.0000 0.61163  0.25434  0.61163  Biso   1.000  C
  C355     1.0000 0.62018  0.19181  0.62018  Biso   1.000  C
  C356     1.0000 0.66253  0.18117  0.66253  Biso   1.000  C
  H230     1.0000 0.66540  0.20370  0.66540  Biso   1.000  H
  C357     1.0000 0.64093  0.17012  0.64093  Biso   1.000  C
  C358     1.0000 0.63657  0.13684  0.63657  Biso   1.000  C
  H231     1.0000 0.62130  0.12910  0.62130  Biso   1.000  H
  C359     1.0000 0.65489  0.11528  0.65489  Biso   1.000  C
  H232     1.0000 0.65220  0.09270  0.65220  Biso   1.000  H
  C360     1.0000 0.67659  0.12682  0.67659  Biso   1.000  C
  C361     1.0000 0.68082  0.15951  0.68082  Biso   1.000  C
  C362     1.0000 0.70308  0.17151  0.70308  Biso   1.000  C
  H233     1.0000 0.70590  0.19410  0.70590  Biso   1.000  H
  C363     1.0000 0.72134  0.14902  0.72134  Biso   1.000  C
  H234     1.0000 0.73660  0.15660  0.73660  Biso   1.000  H
  C364     1.0000 0.71730  0.11690  0.71730  Biso   1.000  C
  C365     1.0000 0.69508  0.10488  0.69508  Biso   1.000  C
  H235     1.0000 0.69240  0.08230  0.69240  Biso   1.000  H
  C366     1.0000 0.73252  0.05872  0.73252  Biso   1.000  C
  C367     1.0000 0.74658  0.02803  0.74658  Biso   1.000  C
  C368     1.0000 0.77078  0.02846  0.77078  Biso   1.000  C
  H236     1.0000 0.77890  0.04820  0.77890  Biso   1.000  H
  N9       1.0000 0.62687  0.22490  0.62687  Biso   1.000  N
  N10      1.0000 0.73760  0.09198  0.73760  Biso   1.000  N
  H237     1.0000 0.75180  0.09870  0.75180  Biso   1.000  H
  O201     1.0000 0.60151  0.17831  0.60151  Biso   1.000  O
  O202     1.0000 0.71129  0.05266  0.71129  Biso   1.000  O
  C369     1.0000 0.08382  0.80831  0.08382  Biso   1.000  C
  H238     1.0000 0.07400  0.82650  0.07400  Biso   1.000  H
  C370     1.0000 0.11163  0.75434  0.11163  Biso   1.000  C
  C371     1.0000 0.12018  0.69181  0.12018  Biso   1.000  C
  C372     1.0000 0.16253  0.68117  0.16253  Biso   1.000  C
  H239     1.0000 0.16540  0.70370  0.16540  Biso   1.000  H
  C373     1.0000 0.14093  0.67012  0.14093  Biso   1.000  C
  C374     1.0000 0.13657  0.63684  0.13657  Biso   1.000  C
  H240     1.0000 0.12130  0.62910  0.12130  Biso   1.000  H
  C375     1.0000 0.15489  0.61528  0.15489  Biso   1.000  C
  H241     1.0000 0.15220  0.59270  0.15220  Biso   1.000  H
  C376     1.0000 0.17659  0.62682  0.17659  Biso   1.000  C
  C377     1.0000 0.18082  0.65951  0.18082  Biso   1.000  C
  C378     1.0000 0.20308  0.67151  0.20308  Biso   1.000  C
  H242     1.0000 0.20590  0.69410  0.20590  Biso   1.000  H
  C379     1.0000 0.22134  0.64902  0.22134  Biso   1.000  C
  H243     1.0000 0.23660  0.65660  0.23660  Biso   1.000  H
  C380     1.0000 0.21730  0.61690  0.21730  Biso   1.000  C
  C381     1.0000 0.19508  0.60488  0.19508  Biso   1.000  C
  H244     1.0000 0.19240  0.58230  0.19240  Biso   1.000  H
  C382     1.0000 0.23252  0.55872  0.23252  Biso   1.000  C
  C383     1.0000 0.24658  0.52803  0.24658  Biso   1.000  C
  C384     1.0000 0.27078  0.52846  0.27078  Biso   1.000  C
  H245     1.0000 0.27890  0.54820  0.27890  Biso   1.000  H
  N11      1.0000 0.12687  0.72490  0.12687  Biso   1.000  N
  N12      1.0000 0.23760  0.59198  0.23760  Biso   1.000  N
  H246     1.0000 0.25180  0.59870  0.25180  Biso   1.000  H
  O203     1.0000 0.10151  0.67831  0.10151  Biso   1.000  O
  O204     1.0000 0.21129  0.55266  0.21129  Biso   1.000  O
  C385     1.0000 0.41618  0.69169  0.58382  Biso   1.000  C
  H247     1.0000 0.42600  0.67350  0.57400  Biso   1.000  H
  C386     1.0000 0.38837  0.74566  0.61163  Biso   1.000  C
  C387     1.0000 0.37982  0.80819  0.62018  Biso   1.000  C
  C388     1.0000 0.33747  0.81883  0.66253  Biso   1.000  C
  H248     1.0000 0.33460  0.79630  0.66540  Biso   1.000  H
  C389     1.0000 0.35907  0.82988  0.64093  Biso   1.000  C
  C390     1.0000 0.36343  0.86316  0.63657  Biso   1.000  C
  H249     1.0000 0.37870  0.87090  0.62130  Biso   1.000  H
  C391     1.0000 0.34511  0.88472  0.65489  Biso   1.000  C
  H250     1.0000 0.34780  0.90730  0.65220  Biso   1.000  H
  C392     1.0000 0.32341  0.87318  0.67659  Biso   1.000  C
  C393     1.0000 0.31918  0.84049  0.68082  Biso   1.000  C
  C394     1.0000 0.29692  0.82849  0.70308  Biso   1.000  C
  H251     1.0000 0.29410  0.80590  0.70590  Biso   1.000  H
  C395     1.0000 0.27866  0.85098  0.72134  Biso   1.000  C
  H252     1.0000 0.26340  0.84340  0.73660  Biso   1.000  H
  C396     1.0000 0.28270  0.88310  0.71730  Biso   1.000  C
  C397     1.0000 0.30492  0.89512  0.69508  Biso   1.000  C
  H253     1.0000 0.30760  0.91770  0.69240  Biso   1.000  H
  C398     1.0000 0.26748  0.94128  0.73252  Biso   1.000  C
  C399     1.0000 0.25342  0.97197  0.74658  Biso   1.000  C
  C400     1.0000 0.22922  0.97154  0.77078  Biso   1.000  C
  H254     1.0000 0.22110  0.95180  0.77890  Biso   1.000  H
  N13      1.0000 0.37313  0.77510  0.62687  Biso   1.000  N
  N14      1.0000 0.26240  0.90802  0.73760  Biso   1.000  N
  H255     1.0000 0.24820  0.90130  0.75180  Biso   1.000  H
  O205     1.0000 0.39849  0.82169  0.60151  Biso   1.000  O
  O206     1.0000 0.28871  0.94734  0.71129  Biso   1.000  O
  C401     1.0000 0.91618  0.19169  0.08382  Biso   1.000  C
  H256     1.0000 0.92600  0.17350  0.07400  Biso   1.000  H
  C402     1.0000 0.88837  0.24566  0.11163  Biso   1.000  C
  C403     1.0000 0.87982  0.30819  0.12018  Biso   1.000  C
  C404     1.0000 0.83747  0.31883  0.16253  Biso   1.000  C
  H257     1.0000 0.83460  0.29630  0.16540  Biso   1.000  H
  C405     1.0000 0.85907  0.32988  0.14093  Biso   1.000  C
  C406     1.0000 0.86343  0.36316  0.13657  Biso   1.000  C
  H258     1.0000 0.87870  0.37090  0.12130  Biso   1.000  H
  C407     1.0000 0.84511  0.38472  0.15489  Biso   1.000  C
  H259     1.0000 0.84780  0.40730  0.15220  Biso   1.000  H
  C408     1.0000 0.82341  0.37318  0.17659  Biso   1.000  C
  C409     1.0000 0.81918  0.34049  0.18082  Biso   1.000  C
  C410     1.0000 0.79692  0.32849  0.20308  Biso   1.000  C
  H260     1.0000 0.79410  0.30590  0.20590  Biso   1.000  H
  C411     1.0000 0.77866  0.35098  0.22134  Biso   1.000  C
  H261     1.0000 0.76340  0.34340  0.23660  Biso   1.000  H
  C412     1.0000 0.78270  0.38310  0.21730  Biso   1.000  C
  C413     1.0000 0.80492  0.39512  0.19508  Biso   1.000  C
  H262     1.0000 0.80760  0.41770  0.19240  Biso   1.000  H
  C414     1.0000 0.76748  0.44128  0.23252  Biso   1.000  C
  C415     1.0000 0.75342  0.47197  0.24658  Biso   1.000  C
  C416     1.0000 0.72922  0.47154  0.27078  Biso   1.000  C
  H263     1.0000 0.72110  0.45180  0.27890  Biso   1.000  H
  N15      1.0000 0.87313  0.27510  0.12687  Biso   1.000  N
  N16      1.0000 0.76240  0.40802  0.23760  Biso   1.000  N
  H264     1.0000 0.74820  0.40130  0.25180  Biso   1.000  H
  O207     1.0000 0.89849  0.32169  0.10151  Biso   1.000  O
  O208     1.0000 0.78871  0.44734  0.21129  Biso   1.000  O
  C417     1.0000 0.41618  0.41618  0.30831  Biso   1.000  C
  H265     1.0000 0.42600  0.42600  0.32650  Biso   1.000  H
  C418     1.0000 0.38837  0.38837  0.25434  Biso   1.000  C
  C419     1.0000 0.37982  0.37982  0.19181  Biso   1.000  C
  C420     1.0000 0.33747  0.33747  0.18117  Biso   1.000  C
  H266     1.0000 0.33460  0.33460  0.20370  Biso   1.000  H
  C421     1.0000 0.35907  0.35907  0.17012  Biso   1.000  C
  C422     1.0000 0.36343  0.36343  0.13684  Biso   1.000  C
  H267     1.0000 0.37870  0.37870  0.12910  Biso   1.000  H
  C423     1.0000 0.34511  0.34511  0.11528  Biso   1.000  C
  H268     1.0000 0.34780  0.34780  0.09270  Biso   1.000  H
  C424     1.0000 0.32341  0.32341  0.12682  Biso   1.000  C
  C425     1.0000 0.31918  0.31918  0.15951  Biso   1.000  C
  C426     1.0000 0.29692  0.29692  0.17151  Biso   1.000  C
  H269     1.0000 0.29410  0.29410  0.19410  Biso   1.000  H
  C427     1.0000 0.27866  0.27866  0.14902  Biso   1.000  C
  H270     1.0000 0.26340  0.26340  0.15660  Biso   1.000  H
  C428     1.0000 0.28270  0.28270  0.11690  Biso   1.000  C
  C429     1.0000 0.30492  0.30492  0.10488  Biso   1.000  C
  H271     1.0000 0.30760  0.30760  0.08230  Biso   1.000  H
  C430     1.0000 0.26748  0.26748  0.05872  Biso   1.000  C
  C431     1.0000 0.25342  0.25342  0.02803  Biso   1.000  C
  C432     1.0000 0.22922  0.22922  0.02846  Biso   1.000  C
  H272     1.0000 0.22110  0.22110  0.04820  Biso   1.000  H
  N17      1.0000 0.37313  0.37313  0.22490  Biso   1.000  N
  N18      1.0000 0.26240  0.26240  0.09198  Biso   1.000  N
  H273     1.0000 0.24820  0.24820  0.09870  Biso   1.000  H
  O209     1.0000 0.39849  0.39849  0.17831  Biso   1.000  O
  O210     1.0000 0.28871  0.28871  0.05266  Biso   1.000  O
  C433     1.0000 0.91618  0.91618  0.80831  Biso   1.000  C
  H274     1.0000 0.92600  0.92600  0.82650  Biso   1.000  H
  C434     1.0000 0.88837  0.88837  0.75434  Biso   1.000  C
  C435     1.0000 0.87982  0.87982  0.69181  Biso   1.000  C
  C436     1.0000 0.83747  0.83747  0.68117  Biso   1.000  C
  H275     1.0000 0.83460  0.83460  0.70370  Biso   1.000  H
  C437     1.0000 0.85907  0.85907  0.67012  Biso   1.000  C
  C438     1.0000 0.86343  0.86343  0.63684  Biso   1.000  C
  H276     1.0000 0.87870  0.87870  0.62910  Biso   1.000  H
  C439     1.0000 0.84511  0.84511  0.61528  Biso   1.000  C
  H277     1.0000 0.84780  0.84780  0.59270  Biso   1.000  H
  C440     1.0000 0.82341  0.82341  0.62682  Biso   1.000  C
  C441     1.0000 0.81918  0.81918  0.65951  Biso   1.000  C
  C442     1.0000 0.79692  0.79692  0.67151  Biso   1.000  C
  H278     1.0000 0.79410  0.79410  0.69410  Biso   1.000  H
  C443     1.0000 0.77866  0.77866  0.64902  Biso   1.000  C
  H279     1.0000 0.76340  0.76340  0.65660  Biso   1.000  H
  C444     1.0000 0.78270  0.78270  0.61690  Biso   1.000  C
  C445     1.0000 0.80492  0.80492  0.60488  Biso   1.000  C
  H280     1.0000 0.80760  0.80760  0.58230  Biso   1.000  H
  C446     1.0000 0.76748  0.76748  0.55872  Biso   1.000  C
  C447     1.0000 0.75342  0.75342  0.52803  Biso   1.000  C
  C448     1.0000 0.72922  0.72922  0.52846  Biso   1.000  C
  H281     1.0000 0.72110  0.72110  0.54820  Biso   1.000  H
  N19      1.0000 0.87313  0.87313  0.72490  Biso   1.000  N
  N20      1.0000 0.76240  0.76240  0.59198  Biso   1.000  N
  H282     1.0000 0.74820  0.74820  0.59870  Biso   1.000  H
  O211     1.0000 0.89849  0.89849  0.67831  Biso   1.000  O
  O212     1.0000 0.78871  0.78871  0.55266  Biso   1.000  O
  C449     1.0000 0.41618  0.58382  0.69169  Biso   1.000  C
  H283     1.0000 0.42600  0.57400  0.67350  Biso   1.000  H
  C450     1.0000 0.38837  0.61163  0.74566  Biso   1.000  C
  C451     1.0000 0.37982  0.62018  0.80819  Biso   1.000  C
  C452     1.0000 0.33747  0.66253  0.81883  Biso   1.000  C
  H284     1.0000 0.33460  0.66540  0.79630  Biso   1.000  H
  C453     1.0000 0.35907  0.64093  0.82988  Biso   1.000  C
  C454     1.0000 0.36343  0.63657  0.86316  Biso   1.000  C
  H285     1.0000 0.37870  0.62130  0.87090  Biso   1.000  H
  C455     1.0000 0.34511  0.65489  0.88472  Biso   1.000  C
  H286     1.0000 0.34780  0.65220  0.90730  Biso   1.000  H
  C456     1.0000 0.32341  0.67659  0.87318  Biso   1.000  C
  C457     1.0000 0.31918  0.68082  0.84049  Biso   1.000  C
  C458     1.0000 0.29692  0.70308  0.82849  Biso   1.000  C
  H287     1.0000 0.29410  0.70590  0.80590  Biso   1.000  H
  C459     1.0000 0.27866  0.72134  0.85098  Biso   1.000  C
  H288     1.0000 0.26340  0.73660  0.84340  Biso   1.000  H
  C460     1.0000 0.28270  0.71730  0.88310  Biso   1.000  C
  C461     1.0000 0.30492  0.69508  0.89512  Biso   1.000  C
  H289     1.0000 0.30760  0.69240  0.91770  Biso   1.000  H
  C462     1.0000 0.26748  0.73252  0.94128  Biso   1.000  C
  C463     1.0000 0.25342  0.74658  0.97197  Biso   1.000  C
  C464     1.0000 0.22922  0.77078  0.97154  Biso   1.000  C
  H290     1.0000 0.22110  0.77890  0.95180  Biso   1.000  H
  N21      1.0000 0.37313  0.62687  0.77510  Biso   1.000  N
  N22      1.0000 0.26240  0.73760  0.90802  Biso   1.000  N
  H291     1.0000 0.24820  0.75180  0.90130  Biso   1.000  H
  O213     1.0000 0.39849  0.60151  0.82169  Biso   1.000  O
  O214     1.0000 0.28871  0.71129  0.94734  Biso   1.000  O
  C465     1.0000 0.91618  0.08382  0.19169  Biso   1.000  C
  H292     1.0000 0.92600  0.07400  0.17350  Biso   1.000  H
  C466     1.0000 0.88837  0.11163  0.24566  Biso   1.000  C
  C467     1.0000 0.87982  0.12018  0.30819  Biso   1.000  C
  C468     1.0000 0.83747  0.16253  0.31883  Biso   1.000  C
  H293     1.0000 0.83460  0.16540  0.29630  Biso   1.000  H
  C469     1.0000 0.85907  0.14093  0.32988  Biso   1.000  C
  C470     1.0000 0.86343  0.13657  0.36316  Biso   1.000  C
  H294     1.0000 0.87870  0.12130  0.37090  Biso   1.000  H
  C471     1.0000 0.84511  0.15489  0.38472  Biso   1.000  C
  H295     1.0000 0.84780  0.15220  0.40730  Biso   1.000  H
  C472     1.0000 0.82341  0.17659  0.37318  Biso   1.000  C
  C473     1.0000 0.81918  0.18082  0.34049  Biso   1.000  C
  C474     1.0000 0.79692  0.20308  0.32849  Biso   1.000  C
  H296     1.0000 0.79410  0.20590  0.30590  Biso   1.000  H
  C475     1.0000 0.77866  0.22134  0.35098  Biso   1.000  C
  H297     1.0000 0.76340  0.23660  0.34340  Biso   1.000  H
  C476     1.0000 0.78270  0.21730  0.38310  Biso   1.000  C
  C477     1.0000 0.80492  0.19508  0.39512  Biso   1.000  C
  H298     1.0000 0.80760  0.19240  0.41770  Biso   1.000  H
  C478     1.0000 0.76748  0.23252  0.44128  Biso   1.000  C
  C479     1.0000 0.75342  0.24658  0.47197  Biso   1.000  C
  C480     1.0000 0.72922  0.27078  0.47154  Biso   1.000  C
  H299     1.0000 0.72110  0.27890  0.45180  Biso   1.000  H
  N23      1.0000 0.87313  0.12687  0.27510  Biso   1.000  N
  N24      1.0000 0.76240  0.23760  0.40802  Biso   1.000  N
  H300     1.0000 0.74820  0.25180  0.40130  Biso   1.000  H
  O215     1.0000 0.89849  0.10151  0.32169  Biso   1.000  O
  O216     1.0000 0.78871  0.21129  0.44734  Biso   1.000  O
  C481     1.0000 0.58382  0.58382  0.30831  Biso   1.000  C
  H301     1.0000 0.57400  0.57400  0.32650  Biso   1.000  H
  C482     1.0000 0.61163  0.61163  0.25434  Biso   1.000  C
  C483     1.0000 0.62018  0.62018  0.19181  Biso   1.000  C
  C484     1.0000 0.66253  0.66253  0.18117  Biso   1.000  C
  H302     1.0000 0.66540  0.66540  0.20370  Biso   1.000  H
  C485     1.0000 0.64093  0.64093  0.17012  Biso   1.000  C
  C486     1.0000 0.63657  0.63657  0.13684  Biso   1.000  C
  H303     1.0000 0.62130  0.62130  0.12910  Biso   1.000  H
  C487     1.0000 0.65489  0.65489  0.11528  Biso   1.000  C
  H304     1.0000 0.65220  0.65220  0.09270  Biso   1.000  H
  C488     1.0000 0.67659  0.67659  0.12682  Biso   1.000  C
  C489     1.0000 0.68082  0.68082  0.15951  Biso   1.000  C
  C490     1.0000 0.70308  0.70308  0.17151  Biso   1.000  C
  H305     1.0000 0.70590  0.70590  0.19410  Biso   1.000  H
  C491     1.0000 0.72134  0.72134  0.14902  Biso   1.000  C
  H306     1.0000 0.73660  0.73660  0.15660  Biso   1.000  H
  C492     1.0000 0.71730  0.71730  0.11690  Biso   1.000  C
  C493     1.0000 0.69508  0.69508  0.10488  Biso   1.000  C
  H307     1.0000 0.69240  0.69240  0.08230  Biso   1.000  H
  C494     1.0000 0.73252  0.73252  0.05872  Biso   1.000  C
  C495     1.0000 0.74658  0.74658  0.02803  Biso   1.000  C
  C496     1.0000 0.77078  0.77078  0.02846  Biso   1.000  C
  H308     1.0000 0.77890  0.77890  0.04820  Biso   1.000  H
  N25      1.0000 0.62687  0.62687  0.22490  Biso   1.000  N
  N26      1.0000 0.73760  0.73760  0.09198  Biso   1.000  N
  H309     1.0000 0.75180  0.75180  0.09870  Biso   1.000  H
  O217     1.0000 0.60151  0.60151  0.17831  Biso   1.000  O
  O218     1.0000 0.71129  0.71129  0.05266  Biso   1.000  O
  C497     1.0000 0.08382  0.08382  0.80831  Biso   1.000  C
  H310     1.0000 0.07400  0.07400  0.82650  Biso   1.000  H
  C498     1.0000 0.11163  0.11163  0.75434  Biso   1.000  C
  C499     1.0000 0.12018  0.12018  0.69181  Biso   1.000  C
  C500     1.0000 0.16253  0.16253  0.68117  Biso   1.000  C
  H311     1.0000 0.16540  0.16540  0.70370  Biso   1.000  H
  C501     1.0000 0.14093  0.14093  0.67012  Biso   1.000  C
  C502     1.0000 0.13657  0.13657  0.63684  Biso   1.000  C
  H312     1.0000 0.12130  0.12130  0.62910  Biso   1.000  H
  C503     1.0000 0.15489  0.15489  0.61528  Biso   1.000  C
  H313     1.0000 0.15220  0.15220  0.59270  Biso   1.000  H
  C504     1.0000 0.17659  0.17659  0.62682  Biso   1.000  C
  C505     1.0000 0.18082  0.18082  0.65951  Biso   1.000  C
  C506     1.0000 0.20308  0.20308  0.67151  Biso   1.000  C
  H314     1.0000 0.20590  0.20590  0.69410  Biso   1.000  H
  C507     1.0000 0.22134  0.22134  0.64902  Biso   1.000  C
  H315     1.0000 0.23660  0.23660  0.65660  Biso   1.000  H
  C508     1.0000 0.21730  0.21730  0.61690  Biso   1.000  C
  C509     1.0000 0.19508  0.19508  0.60488  Biso   1.000  C
  H316     1.0000 0.19240  0.19240  0.58230  Biso   1.000  H
  C510     1.0000 0.23252  0.23252  0.55872  Biso   1.000  C
  C511     1.0000 0.24658  0.24658  0.52803  Biso   1.000  C
  C512     1.0000 0.27078  0.27078  0.52846  Biso   1.000  C
  H317     1.0000 0.27890  0.27890  0.54820  Biso   1.000  H
  N27      1.0000 0.12687  0.12687  0.72490  Biso   1.000  N
  N28      1.0000 0.23760  0.23760  0.59198  Biso   1.000  N
  H318     1.0000 0.25180  0.25180  0.59870  Biso   1.000  H
  O219     1.0000 0.10151  0.10151  0.67831  Biso   1.000  O
  O220     1.0000 0.21129  0.21129  0.55266  Biso   1.000  O
  C513     1.0000 0.58382  0.41618  0.69169  Biso   1.000  C
  H319     1.0000 0.57400  0.42600  0.67350  Biso   1.000  H
  C514     1.0000 0.61163  0.38837  0.74566  Biso   1.000  C
  C515     1.0000 0.62018  0.37982  0.80819  Biso   1.000  C
  C516     1.0000 0.66253  0.33747  0.81883  Biso   1.000  C
  H320     1.0000 0.66540  0.33460  0.79630  Biso   1.000  H
  C517     1.0000 0.64093  0.35907  0.82988  Biso   1.000  C
  C518     1.0000 0.63657  0.36343  0.86316  Biso   1.000  C
  H321     1.0000 0.62130  0.37870  0.87090  Biso   1.000  H
  C519     1.0000 0.65489  0.34511  0.88472  Biso   1.000  C
  H322     1.0000 0.65220  0.34780  0.90730  Biso   1.000  H
  C520     1.0000 0.67659  0.32341  0.87318  Biso   1.000  C
  C521     1.0000 0.68082  0.31918  0.84049  Biso   1.000  C
  C522     1.0000 0.70308  0.29692  0.82849  Biso   1.000  C
  H323     1.0000 0.70590  0.29410  0.80590  Biso   1.000  H
  C523     1.0000 0.72134  0.27866  0.85098  Biso   1.000  C
  H324     1.0000 0.73660  0.26340  0.84340  Biso   1.000  H
  C524     1.0000 0.71730  0.28270  0.88310  Biso   1.000  C
  C525     1.0000 0.69508  0.30492  0.89512  Biso   1.000  C
  H325     1.0000 0.69240  0.30760  0.91770  Biso   1.000  H
  C526     1.0000 0.73252  0.26748  0.94128  Biso   1.000  C
  C527     1.0000 0.74658  0.25342  0.97197  Biso   1.000  C
  C528     1.0000 0.77078  0.22922  0.97154  Biso   1.000  C
  H326     1.0000 0.77890  0.22110  0.95180  Biso   1.000  H
  N29      1.0000 0.62687  0.37313  0.77510  Biso   1.000  N
  N30      1.0000 0.73760  0.26240  0.90802  Biso   1.000  N
  H327     1.0000 0.75180  0.24820  0.90130  Biso   1.000  H
  O221     1.0000 0.60151  0.39849  0.82169  Biso   1.000  O
  O222     1.0000 0.71129  0.28871  0.94734  Biso   1.000  O
  C529     1.0000 0.08382  0.91618  0.19169  Biso   1.000  C
  H328     1.0000 0.07400  0.92600  0.17350  Biso   1.000  H
  C530     1.0000 0.11163  0.88837  0.24566  Biso   1.000  C
  C531     1.0000 0.12018  0.87982  0.30819  Biso   1.000  C
  C532     1.0000 0.16253  0.83747  0.31883  Biso   1.000  C
  H329     1.0000 0.16540  0.83460  0.29630  Biso   1.000  H
  C533     1.0000 0.14093  0.85907  0.32988  Biso   1.000  C
  C534     1.0000 0.13657  0.86343  0.36316  Biso   1.000  C
  H330     1.0000 0.12130  0.87870  0.37090  Biso   1.000  H
  C535     1.0000 0.15489  0.84511  0.38472  Biso   1.000  C
  H331     1.0000 0.15220  0.84780  0.40730  Biso   1.000  H
  C536     1.0000 0.17659  0.82341  0.37318  Biso   1.000  C
  C537     1.0000 0.18082  0.81918  0.34049  Biso   1.000  C
  C538     1.0000 0.20308  0.79692  0.32849  Biso   1.000  C
  H332     1.0000 0.20590  0.79410  0.30590  Biso   1.000  H
  C539     1.0000 0.22134  0.77866  0.35098  Biso   1.000  C
  H333     1.0000 0.23660  0.76340  0.34340  Biso   1.000  H
  C540     1.0000 0.21730  0.78270  0.38310  Biso   1.000  C
  C541     1.0000 0.19508  0.80492  0.39512  Biso   1.000  C
  H334     1.0000 0.19240  0.80760  0.41770  Biso   1.000  H
  C542     1.0000 0.23252  0.76748  0.44128  Biso   1.000  C
  C543     1.0000 0.24658  0.75342  0.47197  Biso   1.000  C
  C544     1.0000 0.27078  0.72922  0.47154  Biso   1.000  C
  H335     1.0000 0.27890  0.72110  0.45180  Biso   1.000  H
  N31      1.0000 0.12687  0.87313  0.27510  Biso   1.000  N
  N32      1.0000 0.23760  0.76240  0.40802  Biso   1.000  N
  H336     1.0000 0.25180  0.74820  0.40130  Biso   1.000  H
  O223     1.0000 0.10151  0.89849  0.32169  Biso   1.000  O
  O224     1.0000 0.21129  0.78871  0.44734  Biso   1.000  O
  C545     1.0000 0.30831  0.41618  0.41618  Biso   1.000  C
  H337     1.0000 0.32650  0.42600  0.42600  Biso   1.000  H
  C546     1.0000 0.25434  0.38837  0.38837  Biso   1.000  C
  C547     1.0000 0.19181  0.37982  0.37982  Biso   1.000  C
  C548     1.0000 0.18117  0.33747  0.33747  Biso   1.000  C
  H338     1.0000 0.20370  0.33460  0.33460  Biso   1.000  H
  C549     1.0000 0.17012  0.35907  0.35907  Biso   1.000  C
  C550     1.0000 0.13684  0.36343  0.36343  Biso   1.000  C
  H339     1.0000 0.12910  0.37870  0.37870  Biso   1.000  H
  C551     1.0000 0.11528  0.34511  0.34511  Biso   1.000  C
  H340     1.0000 0.09270  0.34780  0.34780  Biso   1.000  H
  C552     1.0000 0.12682  0.32341  0.32341  Biso   1.000  C
  C553     1.0000 0.15951  0.31918  0.31918  Biso   1.000  C
  C554     1.0000 0.17151  0.29692  0.29692  Biso   1.000  C
  H341     1.0000 0.19410  0.29410  0.29410  Biso   1.000  H
  C555     1.0000 0.14902  0.27866  0.27866  Biso   1.000  C
  H342     1.0000 0.15660  0.26340  0.26340  Biso   1.000  H
  C556     1.0000 0.11690  0.28270  0.28270  Biso   1.000  C
  C557     1.0000 0.10488  0.30492  0.30492  Biso   1.000  C
  H343     1.0000 0.08230  0.30760  0.30760  Biso   1.000  H
  C558     1.0000 0.05872  0.26748  0.26748  Biso   1.000  C
  C559     1.0000 0.02803  0.25342  0.25342  Biso   1.000  C
  C560     1.0000 0.02846  0.22922  0.22922  Biso   1.000  C
  H344     1.0000 0.04820  0.22110  0.22110  Biso   1.000  H
  N33      1.0000 0.22490  0.37313  0.37313  Biso   1.000  N
  N34      1.0000 0.09198  0.26240  0.26240  Biso   1.000  N
  H345     1.0000 0.09870  0.24820  0.24820  Biso   1.000  H
  O225     1.0000 0.17831  0.39849  0.39849  Biso   1.000  O
  O226     1.0000 0.05266  0.28871  0.28871  Biso   1.000  O
  C561     1.0000 0.80831  0.91618  0.91618  Biso   1.000  C
  H346     1.0000 0.82650  0.92600  0.92600  Biso   1.000  H
  C562     1.0000 0.75434  0.88837  0.88837  Biso   1.000  C
  C563     1.0000 0.69181  0.87982  0.87982  Biso   1.000  C
  C564     1.0000 0.68117  0.83747  0.83747  Biso   1.000  C
  H347     1.0000 0.70370  0.83460  0.83460  Biso   1.000  H
  C565     1.0000 0.67012  0.85907  0.85907  Biso   1.000  C
  C566     1.0000 0.63684  0.86343  0.86343  Biso   1.000  C
  H348     1.0000 0.62910  0.87870  0.87870  Biso   1.000  H
  C567     1.0000 0.61528  0.84511  0.84511  Biso   1.000  C
  H349     1.0000 0.59270  0.84780  0.84780  Biso   1.000  H
  C568     1.0000 0.62682  0.82341  0.82341  Biso   1.000  C
  C569     1.0000 0.65951  0.81918  0.81918  Biso   1.000  C
  C570     1.0000 0.67151  0.79692  0.79692  Biso   1.000  C
  H350     1.0000 0.69410  0.79410  0.79410  Biso   1.000  H
  C571     1.0000 0.64902  0.77866  0.77866  Biso   1.000  C
  H351     1.0000 0.65660  0.76340  0.76340  Biso   1.000  H
  C572     1.0000 0.61690  0.78270  0.78270  Biso   1.000  C
  C573     1.0000 0.60488  0.80492  0.80492  Biso   1.000  C
  H352     1.0000 0.58230  0.80760  0.80760  Biso   1.000  H
  C574     1.0000 0.55872  0.76748  0.76748  Biso   1.000  C
  C575     1.0000 0.52803  0.75342  0.75342  Biso   1.000  C
  C576     1.0000 0.52846  0.72922  0.72922  Biso   1.000  C
  H353     1.0000 0.54820  0.72110  0.72110  Biso   1.000  H
  N35      1.0000 0.72490  0.87313  0.87313  Biso   1.000  N
  N36      1.0000 0.59198  0.76240  0.76240  Biso   1.000  N
  H354     1.0000 0.59870  0.74820  0.74820  Biso   1.000  H
  O227     1.0000 0.67831  0.89849  0.89849  Biso   1.000  O
  O228     1.0000 0.55266  0.78871  0.78871  Biso   1.000  O
  C577     1.0000 0.69169  0.41618  0.58382  Biso   1.000  C
  H355     1.0000 0.67350  0.42600  0.57400  Biso   1.000  H
  C578     1.0000 0.74566  0.38837  0.61163  Biso   1.000  C
  C579     1.0000 0.80819  0.37982  0.62018  Biso   1.000  C
  C580     1.0000 0.81883  0.33747  0.66253  Biso   1.000  C
  H356     1.0000 0.79630  0.33460  0.66540  Biso   1.000  H
  C581     1.0000 0.82988  0.35907  0.64093  Biso   1.000  C
  C582     1.0000 0.86316  0.36343  0.63657  Biso   1.000  C
  H357     1.0000 0.87090  0.37870  0.62130  Biso   1.000  H
  C583     1.0000 0.88472  0.34511  0.65489  Biso   1.000  C
  H358     1.0000 0.90730  0.34780  0.65220  Biso   1.000  H
  C584     1.0000 0.87318  0.32341  0.67659  Biso   1.000  C
  C585     1.0000 0.84049  0.31918  0.68082  Biso   1.000  C
  C586     1.0000 0.82849  0.29692  0.70308  Biso   1.000  C
  H359     1.0000 0.80590  0.29410  0.70590  Biso   1.000  H
  C587     1.0000 0.85098  0.27866  0.72134  Biso   1.000  C
  H360     1.0000 0.84340  0.26340  0.73660  Biso   1.000  H
  C588     1.0000 0.88310  0.28270  0.71730  Biso   1.000  C
  C589     1.0000 0.89512  0.30492  0.69508  Biso   1.000  C
  H361     1.0000 0.91770  0.30760  0.69240  Biso   1.000  H
  C590     1.0000 0.94128  0.26748  0.73252  Biso   1.000  C
  C591     1.0000 0.97197  0.25342  0.74658  Biso   1.000  C
  C592     1.0000 0.97154  0.22922  0.77078  Biso   1.000  C
  H362     1.0000 0.95180  0.22110  0.77890  Biso   1.000  H
  N37      1.0000 0.77510  0.37313  0.62687  Biso   1.000  N
  N38      1.0000 0.90802  0.26240  0.73760  Biso   1.000  N
  H363     1.0000 0.90130  0.24820  0.75180  Biso   1.000  H
  O229     1.0000 0.82169  0.39849  0.60151  Biso   1.000  O
  O230     1.0000 0.94734  0.28871  0.71129  Biso   1.000  O
  C593     1.0000 0.19169  0.91618  0.08382  Biso   1.000  C
  H364     1.0000 0.17350  0.92600  0.07400  Biso   1.000  H
  C594     1.0000 0.24566  0.88837  0.11163  Biso   1.000  C
  C595     1.0000 0.30819  0.87982  0.12018  Biso   1.000  C
  C596     1.0000 0.31883  0.83747  0.16253  Biso   1.000  C
  H365     1.0000 0.29630  0.83460  0.16540  Biso   1.000  H
  C597     1.0000 0.32988  0.85907  0.14093  Biso   1.000  C
  C598     1.0000 0.36316  0.86343  0.13657  Biso   1.000  C
  H366     1.0000 0.37090  0.87870  0.12130  Biso   1.000  H
  C599     1.0000 0.38472  0.84511  0.15489  Biso   1.000  C
  H367     1.0000 0.40730  0.84780  0.15220  Biso   1.000  H
  C600     1.0000 0.37318  0.82341  0.17659  Biso   1.000  C
  C601     1.0000 0.34049  0.81918  0.18082  Biso   1.000  C
  C602     1.0000 0.32849  0.79692  0.20308  Biso   1.000  C
  H368     1.0000 0.30590  0.79410  0.20590  Biso   1.000  H
  C603     1.0000 0.35098  0.77866  0.22134  Biso   1.000  C
  H369     1.0000 0.34340  0.76340  0.23660  Biso   1.000  H
  C604     1.0000 0.38310  0.78270  0.21730  Biso   1.000  C
  C605     1.0000 0.39512  0.80492  0.19508  Biso   1.000  C
  H370     1.0000 0.41770  0.80760  0.19240  Biso   1.000  H
  C606     1.0000 0.44128  0.76748  0.23252  Biso   1.000  C
  C607     1.0000 0.47197  0.75342  0.24658  Biso   1.000  C
  C608     1.0000 0.47154  0.72922  0.27078  Biso   1.000  C
  H371     1.0000 0.45180  0.72110  0.27890  Biso   1.000  H
  N39      1.0000 0.27510  0.87313  0.12687  Biso   1.000  N
  N40      1.0000 0.40802  0.76240  0.23760  Biso   1.000  N
  H372     1.0000 0.40130  0.74820  0.25180  Biso   1.000  H
  O231     1.0000 0.32169  0.89849  0.10151  Biso   1.000  O
  O232     1.0000 0.44734  0.78871  0.21129  Biso   1.000  O
  C609     1.0000 0.30831  0.58382  0.58382  Biso   1.000  C
  H373     1.0000 0.32650  0.57400  0.57400  Biso   1.000  H
  C610     1.0000 0.25434  0.61163  0.61163  Biso   1.000  C
  C611     1.0000 0.19181  0.62018  0.62018  Biso   1.000  C
  C612     1.0000 0.18117  0.66253  0.66253  Biso   1.000  C
  H374     1.0000 0.20370  0.66540  0.66540  Biso   1.000  H
  C613     1.0000 0.17012  0.64093  0.64093  Biso   1.000  C
  C614     1.0000 0.13684  0.63657  0.63657  Biso   1.000  C
  H375     1.0000 0.12910  0.62130  0.62130  Biso   1.000  H
  C615     1.0000 0.11528  0.65489  0.65489  Biso   1.000  C
  H376     1.0000 0.09270  0.65220  0.65220  Biso   1.000  H
  C616     1.0000 0.12682  0.67659  0.67659  Biso   1.000  C
  C617     1.0000 0.15951  0.68082  0.68082  Biso   1.000  C
  C618     1.0000 0.17151  0.70308  0.70308  Biso   1.000  C
  H377     1.0000 0.19410  0.70590  0.70590  Biso   1.000  H
  C619     1.0000 0.14902  0.72134  0.72134  Biso   1.000  C
  H378     1.0000 0.15660  0.73660  0.73660  Biso   1.000  H
  C620     1.0000 0.11690  0.71730  0.71730  Biso   1.000  C
  C621     1.0000 0.10488  0.69508  0.69508  Biso   1.000  C
  H379     1.0000 0.08230  0.69240  0.69240  Biso   1.000  H
  C622     1.0000 0.05872  0.73252  0.73252  Biso   1.000  C
  C623     1.0000 0.02803  0.74658  0.74658  Biso   1.000  C
  C624     1.0000 0.02846  0.77078  0.77078  Biso   1.000  C
  H380     1.0000 0.04820  0.77890  0.77890  Biso   1.000  H
  N41      1.0000 0.22490  0.62687  0.62687  Biso   1.000  N
  N42      1.0000 0.09198  0.73760  0.73760  Biso   1.000  N
  H381     1.0000 0.09870  0.75180  0.75180  Biso   1.000  H
  O233     1.0000 0.17831  0.60151  0.60151  Biso   1.000  O
  O234     1.0000 0.05266  0.71129  0.71129  Biso   1.000  O
  C625     1.0000 0.80831  0.08382  0.08382  Biso   1.000  C
  H382     1.0000 0.82650  0.07400  0.07400  Biso   1.000  H
  C626     1.0000 0.75434  0.11163  0.11163  Biso   1.000  C
  C627     1.0000 0.69181  0.12018  0.12018  Biso   1.000  C
  C628     1.0000 0.68117  0.16253  0.16253  Biso   1.000  C
  H383     1.0000 0.70370  0.16540  0.16540  Biso   1.000  H
  C629     1.0000 0.67012  0.14093  0.14093  Biso   1.000  C
  C630     1.0000 0.63684  0.13657  0.13657  Biso   1.000  C
  H384     1.0000 0.62910  0.12130  0.12130  Biso   1.000  H
  C631     1.0000 0.61528  0.15489  0.15489  Biso   1.000  C
  H385     1.0000 0.59270  0.15220  0.15220  Biso   1.000  H
  C632     1.0000 0.62682  0.17659  0.17659  Biso   1.000  C
  C633     1.0000 0.65951  0.18082  0.18082  Biso   1.000  C
  C634     1.0000 0.67151  0.20308  0.20308  Biso   1.000  C
  H386     1.0000 0.69410  0.20590  0.20590  Biso   1.000  H
  C635     1.0000 0.64902  0.22134  0.22134  Biso   1.000  C
  H387     1.0000 0.65660  0.23660  0.23660  Biso   1.000  H
  C636     1.0000 0.61690  0.21730  0.21730  Biso   1.000  C
  C637     1.0000 0.60488  0.19508  0.19508  Biso   1.000  C
  H388     1.0000 0.58230  0.19240  0.19240  Biso   1.000  H
  C638     1.0000 0.55872  0.23252  0.23252  Biso   1.000  C
  C639     1.0000 0.52803  0.24658  0.24658  Biso   1.000  C
  C640     1.0000 0.52846  0.27078  0.27078  Biso   1.000  C
  H389     1.0000 0.54820  0.27890  0.27890  Biso   1.000  H
  N43      1.0000 0.72490  0.12687  0.12687  Biso   1.000  N
  N44      1.0000 0.59198  0.23760  0.23760  Biso   1.000  N
  H390     1.0000 0.59870  0.25180  0.25180  Biso   1.000  H
  O235     1.0000 0.67831  0.10151  0.10151  Biso   1.000  O
  O236     1.0000 0.55266  0.21129  0.21129  Biso   1.000  O
  C641     1.0000 0.69169  0.58382  0.41618  Biso   1.000  C
  H391     1.0000 0.67350  0.57400  0.42600  Biso   1.000  H
  C642     1.0000 0.74566  0.61163  0.38837  Biso   1.000  C
  C643     1.0000 0.80819  0.62018  0.37982  Biso   1.000  C
  C644     1.0000 0.81883  0.66253  0.33747  Biso   1.000  C
  H392     1.0000 0.79630  0.66540  0.33460  Biso   1.000  H
  C645     1.0000 0.82988  0.64093  0.35907  Biso   1.000  C
  C646     1.0000 0.86316  0.63657  0.36343  Biso   1.000  C
  H393     1.0000 0.87090  0.62130  0.37870  Biso   1.000  H
  C647     1.0000 0.88472  0.65489  0.34511  Biso   1.000  C
  H394     1.0000 0.90730  0.65220  0.34780  Biso   1.000  H
  C648     1.0000 0.87318  0.67659  0.32341  Biso   1.000  C
  C649     1.0000 0.84049  0.68082  0.31918  Biso   1.000  C
  C650     1.0000 0.82849  0.70308  0.29692  Biso   1.000  C
  H395     1.0000 0.80590  0.70590  0.29410  Biso   1.000  H
  C651     1.0000 0.85098  0.72134  0.27866  Biso   1.000  C
  H396     1.0000 0.84340  0.73660  0.26340  Biso   1.000  H
  C652     1.0000 0.88310  0.71730  0.28270  Biso   1.000  C
  C653     1.0000 0.89512  0.69508  0.30492  Biso   1.000  C
  H397     1.0000 0.91770  0.69240  0.30760  Biso   1.000  H
  C654     1.0000 0.94128  0.73252  0.26748  Biso   1.000  C
  C655     1.0000 0.97197  0.74658  0.25342  Biso   1.000  C
  C656     1.0000 0.97154  0.77078  0.22922  Biso   1.000  C
  H398     1.0000 0.95180  0.77890  0.22110  Biso   1.000  H
  N45      1.0000 0.77510  0.62687  0.37313  Biso   1.000  N
  N46      1.0000 0.90802  0.73760  0.26240  Biso   1.000  N
  H399     1.0000 0.90130  0.75180  0.24820  Biso   1.000  H
  O237     1.0000 0.82169  0.60151  0.39849  Biso   1.000  O
  O238     1.0000 0.94734  0.71129  0.28871  Biso   1.000  O
  C657     1.0000 0.19169  0.08382  0.91618  Biso   1.000  C
  H400     1.0000 0.17350  0.07400  0.92600  Biso   1.000  H
  C658     1.0000 0.24566  0.11163  0.88837  Biso   1.000  C
  C659     1.0000 0.30819  0.12018  0.87982  Biso   1.000  C
  C660     1.0000 0.31883  0.16253  0.83747  Biso   1.000  C
  H401     1.0000 0.29630  0.16540  0.83460  Biso   1.000  H
  C661     1.0000 0.32988  0.14093  0.85907  Biso   1.000  C
  C662     1.0000 0.36316  0.13657  0.86343  Biso   1.000  C
  H402     1.0000 0.37090  0.12130  0.87870  Biso   1.000  H
  C663     1.0000 0.38472  0.15489  0.84511  Biso   1.000  C
  H403     1.0000 0.40730  0.15220  0.84780  Biso   1.000  H
  C664     1.0000 0.37318  0.17659  0.82341  Biso   1.000  C
  C665     1.0000 0.34049  0.18082  0.81918  Biso   1.000  C
  C666     1.0000 0.32849  0.20308  0.79692  Biso   1.000  C
  H404     1.0000 0.30590  0.20590  0.79410  Biso   1.000  H
  C667     1.0000 0.35098  0.22134  0.77866  Biso   1.000  C
  H405     1.0000 0.34340  0.23660  0.76340  Biso   1.000  H
  C668     1.0000 0.38310  0.21730  0.78270  Biso   1.000  C
  C669     1.0000 0.39512  0.19508  0.80492  Biso   1.000  C
  H406     1.0000 0.41770  0.19240  0.80760  Biso   1.000  H
  C670     1.0000 0.44128  0.23252  0.76748  Biso   1.000  C
  C671     1.0000 0.47197  0.24658  0.75342  Biso   1.000  C
  C672     1.0000 0.47154  0.27078  0.72922  Biso   1.000  C
  H407     1.0000 0.45180  0.27890  0.72110  Biso   1.000  H
  N47      1.0000 0.27510  0.12687  0.87313  Biso   1.000  N
  N48      1.0000 0.40802  0.23760  0.76240  Biso   1.000  N
  H408     1.0000 0.40130  0.25180  0.74820  Biso   1.000  H
  O239     1.0000 0.32169  0.10151  0.89849  Biso   1.000  O
  O240     1.0000 0.44734  0.21129  0.78871  Biso   1.000  O
  C673     1.0000 0.30831  0.41618  0.58382  Biso   1.000  C
  H409     1.0000 0.32650  0.42600  0.57400  Biso   1.000  H
  C674     1.0000 0.25434  0.38837  0.61163  Biso   1.000  C
  C675     1.0000 0.19181  0.37982  0.62018  Biso   1.000  C
  C676     1.0000 0.18117  0.33747  0.66253  Biso   1.000  C
  H410     1.0000 0.20370  0.33460  0.66540  Biso   1.000  H
  C677     1.0000 0.17012  0.35907  0.64093  Biso   1.000  C
  C678     1.0000 0.13684  0.36343  0.63657  Biso   1.000  C
  H411     1.0000 0.12910  0.37870  0.62130  Biso   1.000  H
  C679     1.0000 0.11528  0.34511  0.65489  Biso   1.000  C
  H412     1.0000 0.09270  0.34780  0.65220  Biso   1.000  H
  C680     1.0000 0.12682  0.32341  0.67659  Biso   1.000  C
  C681     1.0000 0.15951  0.31918  0.68082  Biso   1.000  C
  C682     1.0000 0.17151  0.29692  0.70308  Biso   1.000  C
  H413     1.0000 0.19410  0.29410  0.70590  Biso   1.000  H
  C683     1.0000 0.14902  0.27866  0.72134  Biso   1.000  C
  H414     1.0000 0.15660  0.26340  0.73660  Biso   1.000  H
  C684     1.0000 0.11690  0.28270  0.71730  Biso   1.000  C
  C685     1.0000 0.10488  0.30492  0.69508  Biso   1.000  C
  H415     1.0000 0.08230  0.30760  0.69240  Biso   1.000  H
  C686     1.0000 0.05872  0.26748  0.73252  Biso   1.000  C
  C687     1.0000 0.02803  0.25342  0.74658  Biso   1.000  C
  C688     1.0000 0.02846  0.22922  0.77078  Biso   1.000  C
  H416     1.0000 0.04820  0.22110  0.77890  Biso   1.000  H
  N49      1.0000 0.22490  0.37313  0.62687  Biso   1.000  N
  N50      1.0000 0.09198  0.26240  0.73760  Biso   1.000  N
  H417     1.0000 0.09870  0.24820  0.75180  Biso   1.000  H
  O241     1.0000 0.17831  0.39849  0.60151  Biso   1.000  O
  O242     1.0000 0.05266  0.28871  0.71129  Biso   1.000  O
  C689     1.0000 0.80831  0.91618  0.08382  Biso   1.000  C
  H418     1.0000 0.82650  0.92600  0.07400  Biso   1.000  H
  C690     1.0000 0.75434  0.88837  0.11163  Biso   1.000  C
  C691     1.0000 0.69181  0.87982  0.12018  Biso   1.000  C
  C692     1.0000 0.68117  0.83747  0.16253  Biso   1.000  C
  H419     1.0000 0.70370  0.83460  0.16540  Biso   1.000  H
  C693     1.0000 0.67012  0.85907  0.14093  Biso   1.000  C
  C694     1.0000 0.63684  0.86343  0.13657  Biso   1.000  C
  H420     1.0000 0.62910  0.87870  0.12130  Biso   1.000  H
  C695     1.0000 0.61528  0.84511  0.15489  Biso   1.000  C
  H421     1.0000 0.59270  0.84780  0.15220  Biso   1.000  H
  C696     1.0000 0.62682  0.82341  0.17659  Biso   1.000  C
  C697     1.0000 0.65951  0.81918  0.18082  Biso   1.000  C
  C698     1.0000 0.67151  0.79692  0.20308  Biso   1.000  C
  H422     1.0000 0.69410  0.79410  0.20590  Biso   1.000  H
  C699     1.0000 0.64902  0.77866  0.22134  Biso   1.000  C
  H423     1.0000 0.65660  0.76340  0.23660  Biso   1.000  H
  C700     1.0000 0.61690  0.78270  0.21730  Biso   1.000  C
  C701     1.0000 0.60488  0.80492  0.19508  Biso   1.000  C
  H424     1.0000 0.58230  0.80760  0.19240  Biso   1.000  H
  C702     1.0000 0.55872  0.76748  0.23252  Biso   1.000  C
  C703     1.0000 0.52803  0.75342  0.24658  Biso   1.000  C
  C704     1.0000 0.52846  0.72922  0.27078  Biso   1.000  C
  H425     1.0000 0.54820  0.72110  0.27890  Biso   1.000  H
  N51      1.0000 0.72490  0.87313  0.12687  Biso   1.000  N
  N52      1.0000 0.59198  0.76240  0.23760  Biso   1.000  N
  H426     1.0000 0.59870  0.74820  0.25180  Biso   1.000  H
  O243     1.0000 0.67831  0.89849  0.10151  Biso   1.000  O
  O244     1.0000 0.55266  0.78871  0.21129  Biso   1.000  O
  C705     1.0000 0.69169  0.58382  0.58382  Biso   1.000  C
  H427     1.0000 0.67350  0.57400  0.57400  Biso   1.000  H
  C706     1.0000 0.74566  0.61163  0.61163  Biso   1.000  C
  C707     1.0000 0.80819  0.62018  0.62018  Biso   1.000  C
  C708     1.0000 0.81883  0.66253  0.66253  Biso   1.000  C
  H428     1.0000 0.79630  0.66540  0.66540  Biso   1.000  H
  C709     1.0000 0.82988  0.64093  0.64093  Biso   1.000  C
  C710     1.0000 0.86316  0.63657  0.63657  Biso   1.000  C
  H429     1.0000 0.87090  0.62130  0.62130  Biso   1.000  H
  C711     1.0000 0.88472  0.65489  0.65489  Biso   1.000  C
  H430     1.0000 0.90730  0.65220  0.65220  Biso   1.000  H
  C712     1.0000 0.87318  0.67659  0.67659  Biso   1.000  C
  C713     1.0000 0.84049  0.68082  0.68082  Biso   1.000  C
  C714     1.0000 0.82849  0.70308  0.70308  Biso   1.000  C
  H431     1.0000 0.80590  0.70590  0.70590  Biso   1.000  H
  C715     1.0000 0.85098  0.72134  0.72134  Biso   1.000  C
  H432     1.0000 0.84340  0.73660  0.73660  Biso   1.000  H
  C716     1.0000 0.88310  0.71730  0.71730  Biso   1.000  C
  C717     1.0000 0.89512  0.69508  0.69508  Biso   1.000  C
  H433     1.0000 0.91770  0.69240  0.69240  Biso   1.000  H
  C718     1.0000 0.94128  0.73252  0.73252  Biso   1.000  C
  C719     1.0000 0.97197  0.74658  0.74658  Biso   1.000  C
  C720     1.0000 0.97154  0.77078  0.77078  Biso   1.000  C
  H434     1.0000 0.95180  0.77890  0.77890  Biso   1.000  H
  N53      1.0000 0.77510  0.62687  0.62687  Biso   1.000  N
  N54      1.0000 0.90802  0.73760  0.73760  Biso   1.000  N
  H435     1.0000 0.90130  0.75180  0.75180  Biso   1.000  H
  O245     1.0000 0.82169  0.60151  0.60151  Biso   1.000  O
  O246     1.0000 0.94734  0.71129  0.71129  Biso   1.000  O
  C721     1.0000 0.19169  0.08382  0.08382  Biso   1.000  C
  H436     1.0000 0.17350  0.07400  0.07400  Biso   1.000  H
  C722     1.0000 0.24566  0.11163  0.11163  Biso   1.000  C
  C723     1.0000 0.30819  0.12018  0.12018  Biso   1.000  C
  C724     1.0000 0.31883  0.16253  0.16253  Biso   1.000  C
  H437     1.0000 0.29630  0.16540  0.16540  Biso   1.000  H
  C725     1.0000 0.32988  0.14093  0.14093  Biso   1.000  C
  C726     1.0000 0.36316  0.13657  0.13657  Biso   1.000  C
  H438     1.0000 0.37090  0.12130  0.12130  Biso   1.000  H
  C727     1.0000 0.38472  0.15489  0.15489  Biso   1.000  C
  H439     1.0000 0.40730  0.15220  0.15220  Biso   1.000  H
  C728     1.0000 0.37318  0.17659  0.17659  Biso   1.000  C
  C729     1.0000 0.34049  0.18082  0.18082  Biso   1.000  C
  C730     1.0000 0.32849  0.20308  0.20308  Biso   1.000  C
  H440     1.0000 0.30590  0.20590  0.20590  Biso   1.000  H
  C731     1.0000 0.35098  0.22134  0.22134  Biso   1.000  C
  H441     1.0000 0.34340  0.23660  0.23660  Biso   1.000  H
  C732     1.0000 0.38310  0.21730  0.21730  Biso   1.000  C
  C733     1.0000 0.39512  0.19508  0.19508  Biso   1.000  C
  H442     1.0000 0.41770  0.19240  0.19240  Biso   1.000  H
  C734     1.0000 0.44128  0.23252  0.23252  Biso   1.000  C
  C735     1.0000 0.47197  0.24658  0.24658  Biso   1.000  C
  C736     1.0000 0.47154  0.27078  0.27078  Biso   1.000  C
  H443     1.0000 0.45180  0.27890  0.27890  Biso   1.000  H
  N55      1.0000 0.27510  0.12687  0.12687  Biso   1.000  N
  N56      1.0000 0.40802  0.23760  0.23760  Biso   1.000  N
  H444     1.0000 0.40130  0.25180  0.25180  Biso   1.000  H
  O247     1.0000 0.32169  0.10151  0.10151  Biso   1.000  O
  O248     1.0000 0.44734  0.21129  0.21129  Biso   1.000  O
  C737     1.0000 0.30831  0.58382  0.41618  Biso   1.000  C
  H445     1.0000 0.32650  0.57400  0.42600  Biso   1.000  H
  C738     1.0000 0.25434  0.61163  0.38837  Biso   1.000  C
  C739     1.0000 0.19181  0.62018  0.37982  Biso   1.000  C
  C740     1.0000 0.18117  0.66253  0.33747  Biso   1.000  C
  H446     1.0000 0.20370  0.66540  0.33460  Biso   1.000  H
  C741     1.0000 0.17012  0.64093  0.35907  Biso   1.000  C
  C742     1.0000 0.13684  0.63657  0.36343  Biso   1.000  C
  H447     1.0000 0.12910  0.62130  0.37870  Biso   1.000  H
  C743     1.0000 0.11528  0.65489  0.34511  Biso   1.000  C
  H448     1.0000 0.09270  0.65220  0.34780  Biso   1.000  H
  C744     1.0000 0.12682  0.67659  0.32341  Biso   1.000  C
  C745     1.0000 0.15951  0.68082  0.31918  Biso   1.000  C
  C746     1.0000 0.17151  0.70308  0.29692  Biso   1.000  C
  H449     1.0000 0.19410  0.70590  0.29410  Biso   1.000  H
  C747     1.0000 0.14902  0.72134  0.27866  Biso   1.000  C
  H450     1.0000 0.15660  0.73660  0.26340  Biso   1.000  H
  C748     1.0000 0.11690  0.71730  0.28270  Biso   1.000  C
  C749     1.0000 0.10488  0.69508  0.30492  Biso   1.000  C
  H451     1.0000 0.08230  0.69240  0.30760  Biso   1.000  H
  C750     1.0000 0.05872  0.73252  0.26748  Biso   1.000  C
  C751     1.0000 0.02803  0.74658  0.25342  Biso   1.000  C
  C752     1.0000 0.02846  0.77078  0.22922  Biso   1.000  C
  H452     1.0000 0.04820  0.77890  0.22110  Biso   1.000  H
  N57      1.0000 0.22490  0.62687  0.37313  Biso   1.000  N
  N58      1.0000 0.09198  0.73760  0.26240  Biso   1.000  N
  H453     1.0000 0.09870  0.75180  0.24820  Biso   1.000  H
  O249     1.0000 0.17831  0.60151  0.39849  Biso   1.000  O
  O250     1.0000 0.05266  0.71129  0.28871  Biso   1.000  O
  C753     1.0000 0.80831  0.08382  0.91618  Biso   1.000  C
  H454     1.0000 0.82650  0.07400  0.92600  Biso   1.000  H
  C754     1.0000 0.75434  0.11163  0.88837  Biso   1.000  C
  C755     1.0000 0.69181  0.12018  0.87982  Biso   1.000  C
  C756     1.0000 0.68117  0.16253  0.83747  Biso   1.000  C
  H455     1.0000 0.70370  0.16540  0.83460  Biso   1.000  H
  C757     1.0000 0.67012  0.14093  0.85907  Biso   1.000  C
  C758     1.0000 0.63684  0.13657  0.86343  Biso   1.000  C
  H456     1.0000 0.62910  0.12130  0.87870  Biso   1.000  H
  C759     1.0000 0.61528  0.15489  0.84511  Biso   1.000  C
  H457     1.0000 0.59270  0.15220  0.84780  Biso   1.000  H
  C760     1.0000 0.62682  0.17659  0.82341  Biso   1.000  C
  C761     1.0000 0.65951  0.18082  0.81918  Biso   1.000  C
  C762     1.0000 0.67151  0.20308  0.79692  Biso   1.000  C
  H458     1.0000 0.69410  0.20590  0.79410  Biso   1.000  H
  C763     1.0000 0.64902  0.22134  0.77866  Biso   1.000  C
  H459     1.0000 0.65660  0.23660  0.76340  Biso   1.000  H
  C764     1.0000 0.61690  0.21730  0.78270  Biso   1.000  C
  C765     1.0000 0.60488  0.19508  0.80492  Biso   1.000  C
  H460     1.0000 0.58230  0.19240  0.80760  Biso   1.000  H
  C766     1.0000 0.55872  0.23252  0.76748  Biso   1.000  C
  C767     1.0000 0.52803  0.24658  0.75342  Biso   1.000  C
  C768     1.0000 0.52846  0.27078  0.72922  Biso   1.000  C
  H461     1.0000 0.54820  0.27890  0.72110  Biso   1.000  H
  N59      1.0000 0.72490  0.12687  0.87313  Biso   1.000  N
  N60      1.0000 0.59198  0.23760  0.76240  Biso   1.000  N
  H462     1.0000 0.59870  0.25180  0.74820  Biso   1.000  H
  O251     1.0000 0.67831  0.10151  0.89849  Biso   1.000  O
  O252     1.0000 0.55266  0.21129  0.78871  Biso   1.000  O
  C769     1.0000 0.69169  0.41618  0.41618  Biso   1.000  C
  H463     1.0000 0.67350  0.42600  0.42600  Biso   1.000  H
  C770     1.0000 0.74566  0.38837  0.38837  Biso   1.000  C
  C771     1.0000 0.80819  0.37982  0.37982  Biso   1.000  C
  C772     1.0000 0.81883  0.33747  0.33747  Biso   1.000  C
  H464     1.0000 0.79630  0.33460  0.33460  Biso   1.000  H
  C773     1.0000 0.82988  0.35907  0.35907  Biso   1.000  C
  C774     1.0000 0.86316  0.36343  0.36343  Biso   1.000  C
  H465     1.0000 0.87090  0.37870  0.37870  Biso   1.000  H
  C775     1.0000 0.88472  0.34511  0.34511  Biso   1.000  C
  H466     1.0000 0.90730  0.34780  0.34780  Biso   1.000  H
  C776     1.0000 0.87318  0.32341  0.32341  Biso   1.000  C
  C777     1.0000 0.84049  0.31918  0.31918  Biso   1.000  C
  C778     1.0000 0.82849  0.29692  0.29692  Biso   1.000  C
  H467     1.0000 0.80590  0.29410  0.29410  Biso   1.000  H
  C779     1.0000 0.85098  0.27866  0.27866  Biso   1.000  C
  H468     1.0000 0.84340  0.26340  0.26340  Biso   1.000  H
  C780     1.0000 0.88310  0.28270  0.28270  Biso   1.000  C
  C781     1.0000 0.89512  0.30492  0.30492  Biso   1.000  C
  H469     1.0000 0.91770  0.30760  0.30760  Biso   1.000  H
  C782     1.0000 0.94128  0.26748  0.26748  Biso   1.000  C
  C783     1.0000 0.97197  0.25342  0.25342  Biso   1.000  C
  C784     1.0000 0.97154  0.22922  0.22922  Biso   1.000  C
  H470     1.0000 0.95180  0.22110  0.22110  Biso   1.000  H
  N61      1.0000 0.77510  0.37313  0.37313  Biso   1.000  N
  N62      1.0000 0.90802  0.26240  0.26240  Biso   1.000  N
  H471     1.0000 0.90130  0.24820  0.24820  Biso   1.000  H
  O253     1.0000 0.82169  0.39849  0.39849  Biso   1.000  O
  O254     1.0000 0.94734  0.28871  0.28871  Biso   1.000  O
  C785     1.0000 0.19169  0.91618  0.91618  Biso   1.000  C
  H472     1.0000 0.17350  0.92600  0.92600  Biso   1.000  H
  C786     1.0000 0.24566  0.88837  0.88837  Biso   1.000  C
  C787     1.0000 0.30819  0.87982  0.87982  Biso   1.000  C
  C788     1.0000 0.31883  0.83747  0.83747  Biso   1.000  C
  H473     1.0000 0.29630  0.83460  0.83460  Biso   1.000  H
  C789     1.0000 0.32988  0.85907  0.85907  Biso   1.000  C
  C790     1.0000 0.36316  0.86343  0.86343  Biso   1.000  C
  H474     1.0000 0.37090  0.87870  0.87870  Biso   1.000  H
  C791     1.0000 0.38472  0.84511  0.84511  Biso   1.000  C
  H475     1.0000 0.40730  0.84780  0.84780  Biso   1.000  H
  C792     1.0000 0.37318  0.82341  0.82341  Biso   1.000  C
  C793     1.0000 0.34049  0.81918  0.81918  Biso   1.000  C
  C794     1.0000 0.32849  0.79692  0.79692  Biso   1.000  C
  H476     1.0000 0.30590  0.79410  0.79410  Biso   1.000  H
  C795     1.0000 0.35098  0.77866  0.77866  Biso   1.000  C
  H477     1.0000 0.34340  0.76340  0.76340  Biso   1.000  H
  C796     1.0000 0.38310  0.78270  0.78270  Biso   1.000  C
  C797     1.0000 0.39512  0.80492  0.80492  Biso   1.000  C
  H478     1.0000 0.41770  0.80760  0.80760  Biso   1.000  H
  C798     1.0000 0.44128  0.76748  0.76748  Biso   1.000  C
  C799     1.0000 0.47197  0.75342  0.75342  Biso   1.000  C
  C800     1.0000 0.47154  0.72922  0.72922  Biso   1.000  C
  H479     1.0000 0.45180  0.72110  0.72110  Biso   1.000  H
  N63      1.0000 0.27510  0.87313  0.87313  Biso   1.000  N
  N64      1.0000 0.40802  0.76240  0.76240  Biso   1.000  N
  H480     1.0000 0.40130  0.74820  0.74820  Biso   1.000  H
  O255     1.0000 0.32169  0.89849  0.89849  Biso   1.000  O
  O256     1.0000 0.44734  0.78871  0.78871  Biso   1.000  O
  C801     1.0000 0.41618  0.41618  0.69169  Biso   1.000  C
  H481     1.0000 0.42600  0.42600  0.67350  Biso   1.000  H
  C802     1.0000 0.38837  0.38837  0.74566  Biso   1.000  C
  C803     1.0000 0.37982  0.37982  0.80819  Biso   1.000  C
  C804     1.0000 0.33747  0.33747  0.81883  Biso   1.000  C
  H482     1.0000 0.33460  0.33460  0.79630  Biso   1.000  H
  C805     1.0000 0.35907  0.35907  0.82988  Biso   1.000  C
  C806     1.0000 0.36343  0.36343  0.86316  Biso   1.000  C
  H483     1.0000 0.37870  0.37870  0.87090  Biso   1.000  H
  C807     1.0000 0.34511  0.34511  0.88472  Biso   1.000  C
  H484     1.0000 0.34780  0.34780  0.90730  Biso   1.000  H
  C808     1.0000 0.32341  0.32341  0.87318  Biso   1.000  C
  C809     1.0000 0.31918  0.31918  0.84049  Biso   1.000  C
  C810     1.0000 0.29692  0.29692  0.82849  Biso   1.000  C
  H485     1.0000 0.29410  0.29410  0.80590  Biso   1.000  H
  C811     1.0000 0.27866  0.27866  0.85098  Biso   1.000  C
  H486     1.0000 0.26340  0.26340  0.84340  Biso   1.000  H
  C812     1.0000 0.28270  0.28270  0.88310  Biso   1.000  C
  C813     1.0000 0.30492  0.30492  0.89512  Biso   1.000  C
  H487     1.0000 0.30760  0.30760  0.91770  Biso   1.000  H
  C814     1.0000 0.26748  0.26748  0.94128  Biso   1.000  C
  C815     1.0000 0.25342  0.25342  0.97197  Biso   1.000  C
  C816     1.0000 0.22922  0.22922  0.97154  Biso   1.000  C
  H488     1.0000 0.22110  0.22110  0.95180  Biso   1.000  H
  N65      1.0000 0.37313  0.37313  0.77510  Biso   1.000  N
  N66      1.0000 0.26240  0.26240  0.90802  Biso   1.000  N
  H489     1.0000 0.24820  0.24820  0.90130  Biso   1.000  H
  O257     1.0000 0.39849  0.39849  0.82169  Biso   1.000  O
  O258     1.0000 0.28871  0.28871  0.94734  Biso   1.000  O
  C817     1.0000 0.91618  0.91618  0.19169  Biso   1.000  C
  H490     1.0000 0.92600  0.92600  0.17350  Biso   1.000  H
  C818     1.0000 0.88837  0.88837  0.24566  Biso   1.000  C
  C819     1.0000 0.87982  0.87982  0.30819  Biso   1.000  C
  C820     1.0000 0.83747  0.83747  0.31883  Biso   1.000  C
  H491     1.0000 0.83460  0.83460  0.29630  Biso   1.000  H
  C821     1.0000 0.85907  0.85907  0.32988  Biso   1.000  C
  C822     1.0000 0.86343  0.86343  0.36316  Biso   1.000  C
  H492     1.0000 0.87870  0.87870  0.37090  Biso   1.000  H
  C823     1.0000 0.84511  0.84511  0.38472  Biso   1.000  C
  H493     1.0000 0.84780  0.84780  0.40730  Biso   1.000  H
  C824     1.0000 0.82341  0.82341  0.37318  Biso   1.000  C
  C825     1.0000 0.81918  0.81918  0.34049  Biso   1.000  C
  C826     1.0000 0.79692  0.79692  0.32849  Biso   1.000  C
  H494     1.0000 0.79410  0.79410  0.30590  Biso   1.000  H
  C827     1.0000 0.77866  0.77866  0.35098  Biso   1.000  C
  H495     1.0000 0.76340  0.76340  0.34340  Biso   1.000  H
  C828     1.0000 0.78270  0.78270  0.38310  Biso   1.000  C
  C829     1.0000 0.80492  0.80492  0.39512  Biso   1.000  C
  H496     1.0000 0.80760  0.80760  0.41770  Biso   1.000  H
  C830     1.0000 0.76748  0.76748  0.44128  Biso   1.000  C
  C831     1.0000 0.75342  0.75342  0.47197  Biso   1.000  C
  C832     1.0000 0.72922  0.72922  0.47154  Biso   1.000  C
  H497     1.0000 0.72110  0.72110  0.45180  Biso   1.000  H
  N67      1.0000 0.87313  0.87313  0.27510  Biso   1.000  N
  N68      1.0000 0.76240  0.76240  0.40802  Biso   1.000  N
  H498     1.0000 0.74820  0.74820  0.40130  Biso   1.000  H
  O259     1.0000 0.89849  0.89849  0.32169  Biso   1.000  O
  O260     1.0000 0.78871  0.78871  0.44734  Biso   1.000  O
  C833     1.0000 0.58382  0.41618  0.30831  Biso   1.000  C
  H499     1.0000 0.57400  0.42600  0.32650  Biso   1.000  H
  C834     1.0000 0.61163  0.38837  0.25434  Biso   1.000  C
  C835     1.0000 0.62018  0.37982  0.19181  Biso   1.000  C
  C836     1.0000 0.66253  0.33747  0.18117  Biso   1.000  C
  H500     1.0000 0.66540  0.33460  0.20370  Biso   1.000  H
  C837     1.0000 0.64093  0.35907  0.17012  Biso   1.000  C
  C838     1.0000 0.63657  0.36343  0.13684  Biso   1.000  C
  H501     1.0000 0.62130  0.37870  0.12910  Biso   1.000  H
  C839     1.0000 0.65489  0.34511  0.11528  Biso   1.000  C
  H502     1.0000 0.65220  0.34780  0.09270  Biso   1.000  H
  C840     1.0000 0.67659  0.32341  0.12682  Biso   1.000  C
  C841     1.0000 0.68082  0.31918  0.15951  Biso   1.000  C
  C842     1.0000 0.70308  0.29692  0.17151  Biso   1.000  C
  H503     1.0000 0.70590  0.29410  0.19410  Biso   1.000  H
  C843     1.0000 0.72134  0.27866  0.14902  Biso   1.000  C
  H504     1.0000 0.73660  0.26340  0.15660  Biso   1.000  H
  C844     1.0000 0.71730  0.28270  0.11690  Biso   1.000  C
  C845     1.0000 0.69508  0.30492  0.10488  Biso   1.000  C
  H505     1.0000 0.69240  0.30760  0.08230  Biso   1.000  H
  C846     1.0000 0.73252  0.26748  0.05872  Biso   1.000  C
  C847     1.0000 0.74658  0.25342  0.02803  Biso   1.000  C
  C848     1.0000 0.77078  0.22922  0.02846  Biso   1.000  C
  H506     1.0000 0.77890  0.22110  0.04820  Biso   1.000  H
  N69      1.0000 0.62687  0.37313  0.22490  Biso   1.000  N
  N70      1.0000 0.73760  0.26240  0.09198  Biso   1.000  N
  H507     1.0000 0.75180  0.24820  0.09870  Biso   1.000  H
  O261     1.0000 0.60151  0.39849  0.17831  Biso   1.000  O
  O262     1.0000 0.71129  0.28871  0.05266  Biso   1.000  O
  C849     1.0000 0.08382  0.91618  0.80831  Biso   1.000  C
  H508     1.0000 0.07400  0.92600  0.82650  Biso   1.000  H
  C850     1.0000 0.11163  0.88837  0.75434  Biso   1.000  C
  C851     1.0000 0.12018  0.87982  0.69181  Biso   1.000  C
  C852     1.0000 0.16253  0.83747  0.68117  Biso   1.000  C
  H509     1.0000 0.16540  0.83460  0.70370  Biso   1.000  H
  C853     1.0000 0.14093  0.85907  0.67012  Biso   1.000  C
  C854     1.0000 0.13657  0.86343  0.63684  Biso   1.000  C
  H510     1.0000 0.12130  0.87870  0.62910  Biso   1.000  H
  C855     1.0000 0.15489  0.84511  0.61528  Biso   1.000  C
  H511     1.0000 0.15220  0.84780  0.59270  Biso   1.000  H
  C856     1.0000 0.17659  0.82341  0.62682  Biso   1.000  C
  C857     1.0000 0.18082  0.81918  0.65951  Biso   1.000  C
  C858     1.0000 0.20308  0.79692  0.67151  Biso   1.000  C
  H512     1.0000 0.20590  0.79410  0.69410  Biso   1.000  H
  C859     1.0000 0.22134  0.77866  0.64902  Biso   1.000  C
  H513     1.0000 0.23660  0.76340  0.65660  Biso   1.000  H
  C860     1.0000 0.21730  0.78270  0.61690  Biso   1.000  C
  C861     1.0000 0.19508  0.80492  0.60488  Biso   1.000  C
  H514     1.0000 0.19240  0.80760  0.58230  Biso   1.000  H
  C862     1.0000 0.23252  0.76748  0.55872  Biso   1.000  C
  C863     1.0000 0.24658  0.75342  0.52803  Biso   1.000  C
  C864     1.0000 0.27078  0.72922  0.52846  Biso   1.000  C
  H515     1.0000 0.27890  0.72110  0.54820  Biso   1.000  H
  N71      1.0000 0.12687  0.87313  0.72490  Biso   1.000  N
  N72      1.0000 0.23760  0.76240  0.59198  Biso   1.000  N
  H516     1.0000 0.25180  0.74820  0.59870  Biso   1.000  H
  O263     1.0000 0.10151  0.89849  0.67831  Biso   1.000  O
  O264     1.0000 0.21129  0.78871  0.55266  Biso   1.000  O
  C865     1.0000 0.58382  0.58382  0.69169  Biso   1.000  C
  H517     1.0000 0.57400  0.57400  0.67350  Biso   1.000  H
  C866     1.0000 0.61163  0.61163  0.74566  Biso   1.000  C
  C867     1.0000 0.62018  0.62018  0.80819  Biso   1.000  C
  C868     1.0000 0.66253  0.66253  0.81883  Biso   1.000  C
  H518     1.0000 0.66540  0.66540  0.79630  Biso   1.000  H
  C869     1.0000 0.64093  0.64093  0.82988  Biso   1.000  C
  C870     1.0000 0.63657  0.63657  0.86316  Biso   1.000  C
  H519     1.0000 0.62130  0.62130  0.87090  Biso   1.000  H
  C871     1.0000 0.65489  0.65489  0.88472  Biso   1.000  C
  H520     1.0000 0.65220  0.65220  0.90730  Biso   1.000  H
  C872     1.0000 0.67659  0.67659  0.87318  Biso   1.000  C
  C873     1.0000 0.68082  0.68082  0.84049  Biso   1.000  C
  C874     1.0000 0.70308  0.70308  0.82849  Biso   1.000  C
  H521     1.0000 0.70590  0.70590  0.80590  Biso   1.000  H
  C875     1.0000 0.72134  0.72134  0.85098  Biso   1.000  C
  H522     1.0000 0.73660  0.73660  0.84340  Biso   1.000  H
  C876     1.0000 0.71730  0.71730  0.88310  Biso   1.000  C
  C877     1.0000 0.69508  0.69508  0.89512  Biso   1.000  C
  H523     1.0000 0.69240  0.69240  0.91770  Biso   1.000  H
  C878     1.0000 0.73252  0.73252  0.94128  Biso   1.000  C
  C879     1.0000 0.74658  0.74658  0.97197  Biso   1.000  C
  C880     1.0000 0.77078  0.77078  0.97154  Biso   1.000  C
  H524     1.0000 0.77890  0.77890  0.95180  Biso   1.000  H
  N73      1.0000 0.62687  0.62687  0.77510  Biso   1.000  N
  N74      1.0000 0.73760  0.73760  0.90802  Biso   1.000  N
  H525     1.0000 0.75180  0.75180  0.90130  Biso   1.000  H
  O265     1.0000 0.60151  0.60151  0.82169  Biso   1.000  O
  O266     1.0000 0.71129  0.71129  0.94734  Biso   1.000  O
  C881     1.0000 0.08382  0.08382  0.19169  Biso   1.000  C
  H526     1.0000 0.07400  0.07400  0.17350  Biso   1.000  H
  C882     1.0000 0.11163  0.11163  0.24566  Biso   1.000  C
  C883     1.0000 0.12018  0.12018  0.30819  Biso   1.000  C
  C884     1.0000 0.16253  0.16253  0.31883  Biso   1.000  C
  H527     1.0000 0.16540  0.16540  0.29630  Biso   1.000  H
  C885     1.0000 0.14093  0.14093  0.32988  Biso   1.000  C
  C886     1.0000 0.13657  0.13657  0.36316  Biso   1.000  C
  H528     1.0000 0.12130  0.12130  0.37090  Biso   1.000  H
  C887     1.0000 0.15489  0.15489  0.38472  Biso   1.000  C
  H529     1.0000 0.15220  0.15220  0.40730  Biso   1.000  H
  C888     1.0000 0.17659  0.17659  0.37318  Biso   1.000  C
  C889     1.0000 0.18082  0.18082  0.34049  Biso   1.000  C
  C890     1.0000 0.20308  0.20308  0.32849  Biso   1.000  C
  H530     1.0000 0.20590  0.20590  0.30590  Biso   1.000  H
  C891     1.0000 0.22134  0.22134  0.35098  Biso   1.000  C
  H531     1.0000 0.23660  0.23660  0.34340  Biso   1.000  H
  C892     1.0000 0.21730  0.21730  0.38310  Biso   1.000  C
  C893     1.0000 0.19508  0.19508  0.39512  Biso   1.000  C
  H532     1.0000 0.19240  0.19240  0.41770  Biso   1.000  H
  C894     1.0000 0.23252  0.23252  0.44128  Biso   1.000  C
  C895     1.0000 0.24658  0.24658  0.47197  Biso   1.000  C
  C896     1.0000 0.27078  0.27078  0.47154  Biso   1.000  C
  H533     1.0000 0.27890  0.27890  0.45180  Biso   1.000  H
  N75      1.0000 0.12687  0.12687  0.27510  Biso   1.000  N
  N76      1.0000 0.23760  0.23760  0.40802  Biso   1.000  N
  H534     1.0000 0.25180  0.25180  0.40130  Biso   1.000  H
  O267     1.0000 0.10151  0.10151  0.32169  Biso   1.000  O
  O268     1.0000 0.21129  0.21129  0.44734  Biso   1.000  O
  C897     1.0000 0.41618  0.58382  0.30831  Biso   1.000  C
  H535     1.0000 0.42600  0.57400  0.32650  Biso   1.000  H
  C898     1.0000 0.38837  0.61163  0.25434  Biso   1.000  C
  C899     1.0000 0.37982  0.62018  0.19181  Biso   1.000  C
  C900     1.0000 0.33747  0.66253  0.18117  Biso   1.000  C
  H536     1.0000 0.33460  0.66540  0.20370  Biso   1.000  H
  C901     1.0000 0.35907  0.64093  0.17012  Biso   1.000  C
  C902     1.0000 0.36343  0.63657  0.13684  Biso   1.000  C
  H537     1.0000 0.37870  0.62130  0.12910  Biso   1.000  H
  C903     1.0000 0.34511  0.65489  0.11528  Biso   1.000  C
  H538     1.0000 0.34780  0.65220  0.09270  Biso   1.000  H
  C904     1.0000 0.32341  0.67659  0.12682  Biso   1.000  C
  C905     1.0000 0.31918  0.68082  0.15951  Biso   1.000  C
  C906     1.0000 0.29692  0.70308  0.17151  Biso   1.000  C
  H539     1.0000 0.29410  0.70590  0.19410  Biso   1.000  H
  C907     1.0000 0.27866  0.72134  0.14902  Biso   1.000  C
  H540     1.0000 0.26340  0.73660  0.15660  Biso   1.000  H
  C908     1.0000 0.28270  0.71730  0.11690  Biso   1.000  C
  C909     1.0000 0.30492  0.69508  0.10488  Biso   1.000  C
  H541     1.0000 0.30760  0.69240  0.08230  Biso   1.000  H
  C910     1.0000 0.26748  0.73252  0.05872  Biso   1.000  C
  C911     1.0000 0.25342  0.74658  0.02803  Biso   1.000  C
  C912     1.0000 0.22922  0.77078  0.02846  Biso   1.000  C
  H542     1.0000 0.22110  0.77890  0.04820  Biso   1.000  H
  N77      1.0000 0.37313  0.62687  0.22490  Biso   1.000  N
  N78      1.0000 0.26240  0.73760  0.09198  Biso   1.000  N
  H543     1.0000 0.24820  0.75180  0.09870  Biso   1.000  H
  O269     1.0000 0.39849  0.60151  0.17831  Biso   1.000  O
  O270     1.0000 0.28871  0.71129  0.05266  Biso   1.000  O
  C913     1.0000 0.91618  0.08382  0.80831  Biso   1.000  C
  H544     1.0000 0.92600  0.07400  0.82650  Biso   1.000  H
  C914     1.0000 0.88837  0.11163  0.75434  Biso   1.000  C
  C915     1.0000 0.87982  0.12018  0.69181  Biso   1.000  C
  C916     1.0000 0.83747  0.16253  0.68117  Biso   1.000  C
  H545     1.0000 0.83460  0.16540  0.70370  Biso   1.000  H
  C917     1.0000 0.85907  0.14093  0.67012  Biso   1.000  C
  C918     1.0000 0.86343  0.13657  0.63684  Biso   1.000  C
  H546     1.0000 0.87870  0.12130  0.62910  Biso   1.000  H
  C919     1.0000 0.84511  0.15489  0.61528  Biso   1.000  C
  H547     1.0000 0.84780  0.15220  0.59270  Biso   1.000  H
  C920     1.0000 0.82341  0.17659  0.62682  Biso   1.000  C
  C921     1.0000 0.81918  0.18082  0.65951  Biso   1.000  C
  C922     1.0000 0.79692  0.20308  0.67151  Biso   1.000  C
  H548     1.0000 0.79410  0.20590  0.69410  Biso   1.000  H
  C923     1.0000 0.77866  0.22134  0.64902  Biso   1.000  C
  H549     1.0000 0.76340  0.23660  0.65660  Biso   1.000  H
  C924     1.0000 0.78270  0.21730  0.61690  Biso   1.000  C
  C925     1.0000 0.80492  0.19508  0.60488  Biso   1.000  C
  H550     1.0000 0.80760  0.19240  0.58230  Biso   1.000  H
  C926     1.0000 0.76748  0.23252  0.55872  Biso   1.000  C
  C927     1.0000 0.75342  0.24658  0.52803  Biso   1.000  C
  C928     1.0000 0.72922  0.27078  0.52846  Biso   1.000  C
  H551     1.0000 0.72110  0.27890  0.54820  Biso   1.000  H
  N79      1.0000 0.87313  0.12687  0.72490  Biso   1.000  N
  N80      1.0000 0.76240  0.23760  0.59198  Biso   1.000  N
  H552     1.0000 0.74820  0.25180  0.59870  Biso   1.000  H
  O271     1.0000 0.89849  0.10151  0.67831  Biso   1.000  O
  O272     1.0000 0.78871  0.21129  0.55266  Biso   1.000  O
  C929     1.0000 0.41618  0.30831  0.58382  Biso   1.000  C
  H553     1.0000 0.42600  0.32650  0.57400  Biso   1.000  H
  C930     1.0000 0.38837  0.25434  0.61163  Biso   1.000  C
  C931     1.0000 0.37982  0.19181  0.62018  Biso   1.000  C
  C932     1.0000 0.33747  0.18117  0.66253  Biso   1.000  C
  H554     1.0000 0.33460  0.20370  0.66540  Biso   1.000  H
  C933     1.0000 0.35907  0.17012  0.64093  Biso   1.000  C
  C934     1.0000 0.36343  0.13684  0.63657  Biso   1.000  C
  H555     1.0000 0.37870  0.12910  0.62130  Biso   1.000  H
  C935     1.0000 0.34511  0.11528  0.65489  Biso   1.000  C
  H556     1.0000 0.34780  0.09270  0.65220  Biso   1.000  H
  C936     1.0000 0.32341  0.12682  0.67659  Biso   1.000  C
  C937     1.0000 0.31918  0.15951  0.68082  Biso   1.000  C
  C938     1.0000 0.29692  0.17151  0.70308  Biso   1.000  C
  H557     1.0000 0.29410  0.19410  0.70590  Biso   1.000  H
  C939     1.0000 0.27866  0.14902  0.72134  Biso   1.000  C
  H558     1.0000 0.26340  0.15660  0.73660  Biso   1.000  H
  C940     1.0000 0.28270  0.11690  0.71730  Biso   1.000  C
  C941     1.0000 0.30492  0.10488  0.69508  Biso   1.000  C
  H559     1.0000 0.30760  0.08230  0.69240  Biso   1.000  H
  C942     1.0000 0.26748  0.05872  0.73252  Biso   1.000  C
  C943     1.0000 0.25342  0.02803  0.74658  Biso   1.000  C
  C944     1.0000 0.22922  0.02846  0.77078  Biso   1.000  C
  H560     1.0000 0.22110  0.04820  0.77890  Biso   1.000  H
  N81      1.0000 0.37313  0.22490  0.62687  Biso   1.000  N
  N82      1.0000 0.26240  0.09198  0.73760  Biso   1.000  N
  H561     1.0000 0.24820  0.09870  0.75180  Biso   1.000  H
  O273     1.0000 0.39849  0.17831  0.60151  Biso   1.000  O
  O274     1.0000 0.28871  0.05266  0.71129  Biso   1.000  O
  C945     1.0000 0.91618  0.80831  0.08382  Biso   1.000  C
  H562     1.0000 0.92600  0.82650  0.07400  Biso   1.000  H
  C946     1.0000 0.88837  0.75434  0.11163  Biso   1.000  C
  C947     1.0000 0.87982  0.69181  0.12018  Biso   1.000  C
  C948     1.0000 0.83747  0.68117  0.16253  Biso   1.000  C
  H563     1.0000 0.83460  0.70370  0.16540  Biso   1.000  H
  C949     1.0000 0.85907  0.67012  0.14093  Biso   1.000  C
  C950     1.0000 0.86343  0.63684  0.13657  Biso   1.000  C
  H564     1.0000 0.87870  0.62910  0.12130  Biso   1.000  H
  C951     1.0000 0.84511  0.61528  0.15489  Biso   1.000  C
  H565     1.0000 0.84780  0.59270  0.15220  Biso   1.000  H
  C952     1.0000 0.82341  0.62682  0.17659  Biso   1.000  C
  C953     1.0000 0.81918  0.65951  0.18082  Biso   1.000  C
  C954     1.0000 0.79692  0.67151  0.20308  Biso   1.000  C
  H566     1.0000 0.79410  0.69410  0.20590  Biso   1.000  H
  C955     1.0000 0.77866  0.64902  0.22134  Biso   1.000  C
  H567     1.0000 0.76340  0.65660  0.23660  Biso   1.000  H
  C956     1.0000 0.78270  0.61690  0.21730  Biso   1.000  C
  C957     1.0000 0.80492  0.60488  0.19508  Biso   1.000  C
  H568     1.0000 0.80760  0.58230  0.19240  Biso   1.000  H
  C958     1.0000 0.76748  0.55872  0.23252  Biso   1.000  C
  C959     1.0000 0.75342  0.52803  0.24658  Biso   1.000  C
  C960     1.0000 0.72922  0.52846  0.27078  Biso   1.000  C
  H569     1.0000 0.72110  0.54820  0.27890  Biso   1.000  H
  N83      1.0000 0.87313  0.72490  0.12687  Biso   1.000  N
  N84      1.0000 0.76240  0.59198  0.23760  Biso   1.000  N
  H570     1.0000 0.74820  0.59870  0.25180  Biso   1.000  H
  O275     1.0000 0.89849  0.67831  0.10151  Biso   1.000  O
  O276     1.0000 0.78871  0.55266  0.21129  Biso   1.000  O
  C961     1.0000 0.41618  0.69169  0.41618  Biso   1.000  C
  H571     1.0000 0.42600  0.67350  0.42600  Biso   1.000  H
  C962     1.0000 0.38837  0.74566  0.38837  Biso   1.000  C
  C963     1.0000 0.37982  0.80819  0.37982  Biso   1.000  C
  C964     1.0000 0.33747  0.81883  0.33747  Biso   1.000  C
  H572     1.0000 0.33460  0.79630  0.33460  Biso   1.000  H
  C965     1.0000 0.35907  0.82988  0.35907  Biso   1.000  C
  C966     1.0000 0.36343  0.86316  0.36343  Biso   1.000  C
  H573     1.0000 0.37870  0.87090  0.37870  Biso   1.000  H
  C967     1.0000 0.34511  0.88472  0.34511  Biso   1.000  C
  H574     1.0000 0.34780  0.90730  0.34780  Biso   1.000  H
  C968     1.0000 0.32341  0.87318  0.32341  Biso   1.000  C
  C969     1.0000 0.31918  0.84049  0.31918  Biso   1.000  C
  C970     1.0000 0.29692  0.82849  0.29692  Biso   1.000  C
  H575     1.0000 0.29410  0.80590  0.29410  Biso   1.000  H
  C971     1.0000 0.27866  0.85098  0.27866  Biso   1.000  C
  H576     1.0000 0.26340  0.84340  0.26340  Biso   1.000  H
  C972     1.0000 0.28270  0.88310  0.28270  Biso   1.000  C
  C973     1.0000 0.30492  0.89512  0.30492  Biso   1.000  C
  H577     1.0000 0.30760  0.91770  0.30760  Biso   1.000  H
  C974     1.0000 0.26748  0.94128  0.26748  Biso   1.000  C
  C975     1.0000 0.25342  0.97197  0.25342  Biso   1.000  C
  C976     1.0000 0.22922  0.97154  0.22922  Biso   1.000  C
  H578     1.0000 0.22110  0.95180  0.22110  Biso   1.000  H
  N85      1.0000 0.37313  0.77510  0.37313  Biso   1.000  N
  N86      1.0000 0.26240  0.90802  0.26240  Biso   1.000  N
  H579     1.0000 0.24820  0.90130  0.24820  Biso   1.000  H
  O277     1.0000 0.39849  0.82169  0.39849  Biso   1.000  O
  O278     1.0000 0.28871  0.94734  0.28871  Biso   1.000  O
  C977     1.0000 0.91618  0.19169  0.91618  Biso   1.000  C
  H580     1.0000 0.92600  0.17350  0.92600  Biso   1.000  H
  C978     1.0000 0.88837  0.24566  0.88837  Biso   1.000  C
  C979     1.0000 0.87982  0.30819  0.87982  Biso   1.000  C
  C980     1.0000 0.83747  0.31883  0.83747  Biso   1.000  C
  H581     1.0000 0.83460  0.29630  0.83460  Biso   1.000  H
  C981     1.0000 0.85907  0.32988  0.85907  Biso   1.000  C
  C982     1.0000 0.86343  0.36316  0.86343  Biso   1.000  C
  H582     1.0000 0.87870  0.37090  0.87870  Biso   1.000  H
  C983     1.0000 0.84511  0.38472  0.84511  Biso   1.000  C
  H583     1.0000 0.84780  0.40730  0.84780  Biso   1.000  H
  C984     1.0000 0.82341  0.37318  0.82341  Biso   1.000  C
  C985     1.0000 0.81918  0.34049  0.81918  Biso   1.000  C
  C986     1.0000 0.79692  0.32849  0.79692  Biso   1.000  C
  H584     1.0000 0.79410  0.30590  0.79410  Biso   1.000  H
  C987     1.0000 0.77866  0.35098  0.77866  Biso   1.000  C
  H585     1.0000 0.76340  0.34340  0.76340  Biso   1.000  H
  C988     1.0000 0.78270  0.38310  0.78270  Biso   1.000  C
  C989     1.0000 0.80492  0.39512  0.80492  Biso   1.000  C
  H586     1.0000 0.80760  0.41770  0.80760  Biso   1.000  H
  C990     1.0000 0.76748  0.44128  0.76748  Biso   1.000  C
  C991     1.0000 0.75342  0.47197  0.75342  Biso   1.000  C
  C992     1.0000 0.72922  0.47154  0.72922  Biso   1.000  C
  H587     1.0000 0.72110  0.45180  0.72110  Biso   1.000  H
  N87      1.0000 0.87313  0.27510  0.87313  Biso   1.000  N
  N88      1.0000 0.76240  0.40802  0.76240  Biso   1.000  N
  H588     1.0000 0.74820  0.40130  0.74820  Biso   1.000  H
  O279     1.0000 0.89849  0.32169  0.89849  Biso   1.000  O
  O280     1.0000 0.78871  0.44734  0.78871  Biso   1.000  O
  C993     1.0000 0.58382  0.30831  0.41618  Biso   1.000  C
  H589     1.0000 0.57400  0.32650  0.42600  Biso   1.000  H
  C994     1.0000 0.61163  0.25434  0.38837  Biso   1.000  C
  C995     1.0000 0.62018  0.19181  0.37982  Biso   1.000  C
  C996     1.0000 0.66253  0.18117  0.33747  Biso   1.000  C
  H590     1.0000 0.66540  0.20370  0.33460  Biso   1.000  H
  C997     1.0000 0.64093  0.17012  0.35907  Biso   1.000  C
  C998     1.0000 0.63657  0.13684  0.36343  Biso   1.000  C
  H591     1.0000 0.62130  0.12910  0.37870  Biso   1.000  H
  C999     1.0000 0.65489  0.11528  0.34511  Biso   1.000  C
  H592     1.0000 0.65220  0.09270  0.34780  Biso   1.000  H
  C1000    1.0000 0.67659  0.12682  0.32341  Biso   1.000  C
  C1001    1.0000 0.68082  0.15951  0.31918  Biso   1.000  C
  C1002    1.0000 0.70308  0.17151  0.29692  Biso   1.000  C
  H593     1.0000 0.70590  0.19410  0.29410  Biso   1.000  H
  C1003    1.0000 0.72134  0.14902  0.27866  Biso   1.000  C
  H594     1.0000 0.73660  0.15660  0.26340  Biso   1.000  H
  C1004    1.0000 0.71730  0.11690  0.28270  Biso   1.000  C
  C1005    1.0000 0.69508  0.10488  0.30492  Biso   1.000  C
  H595     1.0000 0.69240  0.08230  0.30760  Biso   1.000  H
  C1006    1.0000 0.73252  0.05872  0.26748  Biso   1.000  C
  C1007    1.0000 0.74658  0.02803  0.25342  Biso   1.000  C
  C1008    1.0000 0.77078  0.02846  0.22922  Biso   1.000  C
  H596     1.0000 0.77890  0.04820  0.22110  Biso   1.000  H
  N89      1.0000 0.62687  0.22490  0.37313  Biso   1.000  N
  N90      1.0000 0.73760  0.09198  0.26240  Biso   1.000  N
  H597     1.0000 0.75180  0.09870  0.24820  Biso   1.000  H
  O281     1.0000 0.60151  0.17831  0.39849  Biso   1.000  O
  O282     1.0000 0.71129  0.05266  0.28871  Biso   1.000  O
  C1009    1.0000 0.08382  0.80831  0.91618  Biso   1.000  C
  H598     1.0000 0.07400  0.82650  0.92600  Biso   1.000  H
  C1010    1.0000 0.11163  0.75434  0.88837  Biso   1.000  C
  C1011    1.0000 0.12018  0.69181  0.87982  Biso   1.000  C
  C1012    1.0000 0.16253  0.68117  0.83747  Biso   1.000  C
  H599     1.0000 0.16540  0.70370  0.83460  Biso   1.000  H
  C1013    1.0000 0.14093  0.67012  0.85907  Biso   1.000  C
  C1014    1.0000 0.13657  0.63684  0.86343  Biso   1.000  C
  H600     1.0000 0.12130  0.62910  0.87870  Biso   1.000  H
  C1015    1.0000 0.15489  0.61528  0.84511  Biso   1.000  C
  H601     1.0000 0.15220  0.59270  0.84780  Biso   1.000  H
  C1016    1.0000 0.17659  0.62682  0.82341  Biso   1.000  C
  C1017    1.0000 0.18082  0.65951  0.81918  Biso   1.000  C
  C1018    1.0000 0.20308  0.67151  0.79692  Biso   1.000  C
  H602     1.0000 0.20590  0.69410  0.79410  Biso   1.000  H
  C1019    1.0000 0.22134  0.64902  0.77866  Biso   1.000  C
  H603     1.0000 0.23660  0.65660  0.76340  Biso   1.000  H
  C1020    1.0000 0.21730  0.61690  0.78270  Biso   1.000  C
  C1021    1.0000 0.19508  0.60488  0.80492  Biso   1.000  C
  H604     1.0000 0.19240  0.58230  0.80760  Biso   1.000  H
  C1022    1.0000 0.23252  0.55872  0.76748  Biso   1.000  C
  C1023    1.0000 0.24658  0.52803  0.75342  Biso   1.000  C
  C1024    1.0000 0.27078  0.52846  0.72922  Biso   1.000  C
  H605     1.0000 0.27890  0.54820  0.72110  Biso   1.000  H
  N91      1.0000 0.12687  0.72490  0.87313  Biso   1.000  N
  N92      1.0000 0.23760  0.59198  0.76240  Biso   1.000  N
  H606     1.0000 0.25180  0.59870  0.74820  Biso   1.000  H
  O283     1.0000 0.10151  0.67831  0.89849  Biso   1.000  O
  O284     1.0000 0.21129  0.55266  0.78871  Biso   1.000  O
  C1025    1.0000 0.58382  0.69169  0.58382  Biso   1.000  C
  H607     1.0000 0.57400  0.67350  0.57400  Biso   1.000  H
  C1026    1.0000 0.61163  0.74566  0.61163  Biso   1.000  C
  C1027    1.0000 0.62018  0.80819  0.62018  Biso   1.000  C
  C1028    1.0000 0.66253  0.81883  0.66253  Biso   1.000  C
  H608     1.0000 0.66540  0.79630  0.66540  Biso   1.000  H
  C1029    1.0000 0.64093  0.82988  0.64093  Biso   1.000  C
  C1030    1.0000 0.63657  0.86316  0.63657  Biso   1.000  C
  H609     1.0000 0.62130  0.87090  0.62130  Biso   1.000  H
  C1031    1.0000 0.65489  0.88472  0.65489  Biso   1.000  C
  H610     1.0000 0.65220  0.90730  0.65220  Biso   1.000  H
  C1032    1.0000 0.67659  0.87318  0.67659  Biso   1.000  C
  C1033    1.0000 0.68082  0.84049  0.68082  Biso   1.000  C
  C1034    1.0000 0.70308  0.82849  0.70308  Biso   1.000  C
  H611     1.0000 0.70590  0.80590  0.70590  Biso   1.000  H
  C1035    1.0000 0.72134  0.85098  0.72134  Biso   1.000  C
  H612     1.0000 0.73660  0.84340  0.73660  Biso   1.000  H
  C1036    1.0000 0.71730  0.88310  0.71730  Biso   1.000  C
  C1037    1.0000 0.69508  0.89512  0.69508  Biso   1.000  C
  H613     1.0000 0.69240  0.91770  0.69240  Biso   1.000  H
  C1038    1.0000 0.73252  0.94128  0.73252  Biso   1.000  C
  C1039    1.0000 0.74658  0.97197  0.74658  Biso   1.000  C
  C1040    1.0000 0.77078  0.97154  0.77078  Biso   1.000  C
  H614     1.0000 0.77890  0.95180  0.77890  Biso   1.000  H
  N93      1.0000 0.62687  0.77510  0.62687  Biso   1.000  N
  N94      1.0000 0.73760  0.90802  0.73760  Biso   1.000  N
  H615     1.0000 0.75180  0.90130  0.75180  Biso   1.000  H
  O285     1.0000 0.60151  0.82169  0.60151  Biso   1.000  O
  O286     1.0000 0.71129  0.94734  0.71129  Biso   1.000  O
  C1041    1.0000 0.08382  0.19169  0.08382  Biso   1.000  C
  H616     1.0000 0.07400  0.17350  0.07400  Biso   1.000  H
  C1042    1.0000 0.11163  0.24566  0.11163  Biso   1.000  C
  C1043    1.0000 0.12018  0.30819  0.12018  Biso   1.000  C
  C1044    1.0000 0.16253  0.31883  0.16253  Biso   1.000  C
  H617     1.0000 0.16540  0.29630  0.16540  Biso   1.000  H
  C1045    1.0000 0.14093  0.32988  0.14093  Biso   1.000  C
  C1046    1.0000 0.13657  0.36316  0.13657  Biso   1.000  C
  H618     1.0000 0.12130  0.37090  0.12130  Biso   1.000  H
  C1047    1.0000 0.15489  0.38472  0.15489  Biso   1.000  C
  H619     1.0000 0.15220  0.40730  0.15220  Biso   1.000  H
  C1048    1.0000 0.17659  0.37318  0.17659  Biso   1.000  C
  C1049    1.0000 0.18082  0.34049  0.18082  Biso   1.000  C
  C1050    1.0000 0.20308  0.32849  0.20308  Biso   1.000  C
  H620     1.0000 0.20590  0.30590  0.20590  Biso   1.000  H
  C1051    1.0000 0.22134  0.35098  0.22134  Biso   1.000  C
  H621     1.0000 0.23660  0.34340  0.23660  Biso   1.000  H
  C1052    1.0000 0.21730  0.38310  0.21730  Biso   1.000  C
  C1053    1.0000 0.19508  0.39512  0.19508  Biso   1.000  C
  H622     1.0000 0.19240  0.41770  0.19240  Biso   1.000  H
  C1054    1.0000 0.23252  0.44128  0.23252  Biso   1.000  C
  C1055    1.0000 0.24658  0.47197  0.24658  Biso   1.000  C
  C1056    1.0000 0.27078  0.47154  0.27078  Biso   1.000  C
  H623     1.0000 0.27890  0.45180  0.27890  Biso   1.000  H
  N95      1.0000 0.12687  0.27510  0.12687  Biso   1.000  N
  N96      1.0000 0.23760  0.40802  0.23760  Biso   1.000  N
  H624     1.0000 0.25180  0.40130  0.25180  Biso   1.000  H
  O287     1.0000 0.10151  0.32169  0.10151  Biso   1.000  O
  O288     1.0000 0.21129  0.44734  0.21129  Biso   1.000  O
  C1057    1.0000 0.26520  0.00000  0.26520  Biso   1.000  C
  H625     1.0000 0.28140  0.00000  0.28140  Biso   1.000  H
  Cu1      1.0000 0.18119  0.00000  0.18119  Biso   1.000  Cu
  N97      1.0000 0.21817  0.00000  0.21817  Biso   1.000  N
  C1058    1.0000 0.76520  0.50000  0.76520  Biso   1.000  C
  H626     1.0000 0.78140  0.50000  0.78140  Biso   1.000  H
  Cu2      1.0000 0.68119  0.50000  0.68119  Biso   1.000  Cu
  N98      1.0000 0.71817  0.50000  0.71817  Biso   1.000  N
  C1059    1.0000 0.73480  0.00000  0.26520  Biso   1.000  C
  H627     1.0000 0.71860  0.00000  0.28140  Biso   1.000  H
  Cu3      1.0000 0.81881  0.00000  0.18119  Biso   1.000  Cu
  N99      1.0000 0.78183  0.00000  0.21817  Biso   1.000  N
  C1060    1.0000 0.23480  0.50000  0.76520  Biso   1.000  C
  H628     1.0000 0.21860  0.50000  0.78140  Biso   1.000  H
  Cu4      1.0000 0.31881  0.50000  0.68119  Biso   1.000  Cu
  N100     1.0000 0.28183  0.50000  0.71817  Biso   1.000  N
  C1061    1.0000 0.73480  0.00000  0.73480  Biso   1.000  C
  H629     1.0000 0.71860  0.00000  0.71860  Biso   1.000  H
  Cu5      1.0000 0.81881  0.00000  0.81881  Biso   1.000  Cu
  N101     1.0000 0.78183  0.00000  0.78183  Biso   1.000  N
  C1062    1.0000 0.23480  0.50000  0.23480  Biso   1.000  C
  H630     1.0000 0.21860  0.50000  0.21860  Biso   1.000  H
  Cu6      1.0000 0.31881  0.50000  0.31881  Biso   1.000  Cu
  N102     1.0000 0.28183  0.50000  0.28183  Biso   1.000  N
  C1063    1.0000 0.26520  0.00000  0.73480  Biso   1.000  C
  H631     1.0000 0.28140  0.00000  0.71860  Biso   1.000  H
  Cu7      1.0000 0.18119  0.00000  0.81881  Biso   1.000  Cu
  N103     1.0000 0.21817  0.00000  0.78183  Biso   1.000  N
  C1064    1.0000 0.76520  0.50000  0.23480  Biso   1.000  C
  H632     1.0000 0.78140  0.50000  0.21860  Biso   1.000  H
  Cu8      1.0000 0.68119  0.50000  0.31881  Biso   1.000  Cu
  N104     1.0000 0.71817  0.50000  0.28183  Biso   1.000  N
  C1065    1.0000 0.26520  0.26520  0.00000  Biso   1.000  C
  H633     1.0000 0.28140  0.28140  0.00000  Biso   1.000  H
  Cu9      1.0000 0.18119  0.18119  0.00000  Biso   1.000  Cu
  N105     1.0000 0.21817  0.21817  0.00000  Biso   1.000  N
  C1066    1.0000 0.76520  0.76520  0.50000  Biso   1.000  C
  H634     1.0000 0.78140  0.78140  0.50000  Biso   1.000  H
  Cu10     1.0000 0.68119  0.68119  0.50000  Biso   1.000  Cu
  N106     1.0000 0.71817  0.71817  0.50000  Biso   1.000  N
  C1067    1.0000 0.26520  0.73480  0.00000  Biso   1.000  C
  H635     1.0000 0.28140  0.71860  0.00000  Biso   1.000  H
  Cu11     1.0000 0.18119  0.81881  0.00000  Biso   1.000  Cu
  N107     1.0000 0.21817  0.78183  0.00000  Biso   1.000  N
  C1068    1.0000 0.76520  0.23480  0.50000  Biso   1.000  C
  H636     1.0000 0.78140  0.21860  0.50000  Biso   1.000  H
  Cu12     1.0000 0.68119  0.31881  0.50000  Biso   1.000  Cu
  N108     1.0000 0.71817  0.28183  0.50000  Biso   1.000  N
  C1069    1.0000 0.73480  0.73480  0.00000  Biso   1.000  C
  H637     1.0000 0.71860  0.71860  0.00000  Biso   1.000  H
  Cu13     1.0000 0.81881  0.81881  0.00000  Biso   1.000  Cu
  N109     1.0000 0.78183  0.78183  0.00000  Biso   1.000  N
  C1070    1.0000 0.23480  0.23480  0.50000  Biso   1.000  C
  H638     1.0000 0.21860  0.21860  0.50000  Biso   1.000  H
  Cu14     1.0000 0.31881  0.31881  0.50000  Biso   1.000  Cu
  N110     1.0000 0.28183  0.28183  0.50000  Biso   1.000  N
  C1071    1.0000 0.73480  0.26520  0.00000  Biso   1.000  C
  H639     1.0000 0.71860  0.28140  0.00000  Biso   1.000  H
  Cu15     1.0000 0.81881  0.18119  0.00000  Biso   1.000  Cu
  N111     1.0000 0.78183  0.21817  0.00000  Biso   1.000  N
  C1072    1.0000 0.23480  0.76520  0.50000  Biso   1.000  C
  H640     1.0000 0.21860  0.78140  0.50000  Biso   1.000  H
  Cu16     1.0000 0.31881  0.68119  0.50000  Biso   1.000  Cu
  N112     1.0000 0.28183  0.71817  0.50000  Biso   1.000  N
  C1073    1.0000 0.00000  0.26520  0.26520  Biso   1.000  C
  H641     1.0000 0.00000  0.28140  0.28140  Biso   1.000  H
  Cu17     1.0000 0.00000  0.18119  0.18119  Biso   1.000  Cu
  N113     1.0000 0.00000  0.21817  0.21817  Biso   1.000  N
  C1074    1.0000 0.50000  0.76520  0.76520  Biso   1.000  C
  H642     1.0000 0.50000  0.78140  0.78140  Biso   1.000  H
  Cu18     1.0000 0.50000  0.68119  0.68119  Biso   1.000  Cu
  N114     1.0000 0.50000  0.71817  0.71817  Biso   1.000  N
  C1075    1.0000 0.00000  0.26520  0.73480  Biso   1.000  C
  H643     1.0000 0.00000  0.28140  0.71860  Biso   1.000  H
  Cu19     1.0000 0.00000  0.18119  0.81881  Biso   1.000  Cu
  N115     1.0000 0.00000  0.21817  0.78183  Biso   1.000  N
  C1076    1.0000 0.50000  0.76520  0.23480  Biso   1.000  C
  H644     1.0000 0.50000  0.78140  0.21860  Biso   1.000  H
  Cu20     1.0000 0.50000  0.68119  0.31881  Biso   1.000  Cu
  N116     1.0000 0.50000  0.71817  0.28183  Biso   1.000  N
  C1077    1.0000 0.00000  0.73480  0.73480  Biso   1.000  C
  H645     1.0000 0.00000  0.71860  0.71860  Biso   1.000  H
  Cu21     1.0000 0.00000  0.81881  0.81881  Biso   1.000  Cu
  N117     1.0000 0.00000  0.78183  0.78183  Biso   1.000  N
  C1078    1.0000 0.50000  0.23480  0.23480  Biso   1.000  C
  H646     1.0000 0.50000  0.21860  0.21860  Biso   1.000  H
  Cu22     1.0000 0.50000  0.31881  0.31881  Biso   1.000  Cu
  N118     1.0000 0.50000  0.28183  0.28183  Biso   1.000  N
  C1079    1.0000 0.00000  0.73480  0.26520  Biso   1.000  C
  H647     1.0000 0.00000  0.71860  0.28140  Biso   1.000  H
  Cu23     1.0000 0.00000  0.81881  0.18119  Biso   1.000  Cu
  N119     1.0000 0.00000  0.78183  0.21817  Biso   1.000  N
  C1080    1.0000 0.50000  0.23480  0.76520  Biso   1.000  C
  H648     1.0000 0.50000  0.21860  0.78140  Biso   1.000  H
  Cu24     1.0000 0.50000  0.31881  0.68119  Biso   1.000  Cu
  N120     1.0000 0.50000  0.28183  0.71817  Biso   1.000  N
  Cu25     1.0000 0.36384  0.36384  0.50000  Biso   1.000  Cu
  Cu26     1.0000 0.86384  0.86384  0.00000  Biso   1.000  Cu
  Cu27     1.0000 0.63616  0.63616  0.50000  Biso   1.000  Cu
  Cu28     1.0000 0.13616  0.13616  0.00000  Biso   1.000  Cu
  Cu29     1.0000 0.63616  0.36384  0.50000  Biso   1.000  Cu
  Cu30     1.0000 0.13616  0.86384  0.00000  Biso   1.000  Cu
  Cu31     1.0000 0.36384  0.63616  0.50000  Biso   1.000  Cu
  Cu32     1.0000 0.86384  0.13616  0.00000  Biso   1.000  Cu
  Cu33     1.0000 0.50000  0.36384  0.36384  Biso   1.000  Cu
  Cu34     1.0000 0.00000  0.86384  0.86384  Biso   1.000  Cu
  Cu35     1.0000 0.50000  0.63616  0.63616  Biso   1.000  Cu
  Cu36     1.0000 0.00000  0.13616  0.13616  Biso   1.000  Cu
  Cu37     1.0000 0.50000  0.63616  0.36384  Biso   1.000  Cu
  Cu38     1.0000 0.00000  0.13616  0.86384  Biso   1.000  Cu
  Cu39     1.0000 0.50000  0.36384  0.63616  Biso   1.000  Cu
  Cu40     1.0000 0.00000  0.86384  0.13616  Biso   1.000  Cu
  Cu41     1.0000 0.36384  0.50000  0.36384  Biso   1.000  Cu
  Cu42     1.0000 0.86384  0.00000  0.86384  Biso   1.000  Cu
  Cu43     1.0000 0.63616  0.50000  0.63616  Biso   1.000  Cu
  Cu44     1.0000 0.13616  0.00000  0.13616  Biso   1.000  Cu
  Cu45     1.0000 0.36384  0.50000  0.63616  Biso   1.000  Cu
  Cu46     1.0000 0.86384  0.00000  0.13616  Biso   1.000  Cu
  Cu47     1.0000 0.63616  0.50000  0.36384  Biso   1.000  Cu
  Cu48     1.0000 0.13616  0.00000  0.86384  Biso   1.000  Cu
