data_image0
_cell_length_a       29.044
_cell_length_b       29.044
_cell_length_c       29.044
_cell_angle_alpha    90
_cell_angle_beta     90
_cell_angle_gamma    90

_symmetry_space_group_name_H-M    "P 1"
_symmetry_int_tables_number       1

loop_
  _symmetry_equiv_pos_as_xyz
  'x, y, z'

loop_
  _atom_site_label
  _atom_site_occupancy
  _atom_site_fract_x
  _atom_site_fract_y
  _atom_site_fract_z
  _atom_site_thermal_displace_type
  _atom_site_B_iso_or_equiv
  _atom_site_type_symbol
  O1       1.0000 0.32029  0.41370  0.03783  Biso   1.000  O
  C1       1.0000 0.18940  0.36920  0.02370  Biso   1.000  C
  H1       1.0000 0.16460  0.36110  0.04230  Biso   1.000  H
  N1       1.0000 0.23212  0.38329  0.03901  Biso   1.000  N
  C2       1.0000 0.31960  0.35320  0.17040  Biso   1.000  C
  C3       1.0000 0.30770  0.37490  0.20950  Biso   1.000  C
  H2       1.0000 0.28520  0.39770  0.20960  Biso   1.000  H
  C4       1.0000 0.32910  0.36290  0.24720  Biso   1.000  C
  H3       1.0000 0.32140  0.37730  0.27480  Biso   1.000  H
  N2       1.0000 0.30193  0.35762  0.12689  Biso   1.000  N
  O2       1.0000 0.13900  0.23700  0.03730  Biso   1.000  O
  C5       1.0000 0.15100  0.24570  0.02410  Biso   1.000  C
  N3       1.0000 0.32450  0.46230  0.29440  Biso   1.000  N
  O3       1.0000 0.82029  0.91370  0.53783  Biso   1.000  O
  C6       1.0000 0.68940  0.86920  0.52370  Biso   1.000  C
  H4       1.0000 0.66460  0.86110  0.54230  Biso   1.000  H
  N4       1.0000 0.73212  0.88329  0.53901  Biso   1.000  N
  C7       1.0000 0.81960  0.85320  0.67040  Biso   1.000  C
  C8       1.0000 0.80770  0.87490  0.70950  Biso   1.000  C
  H5       1.0000 0.78520  0.89770  0.70960  Biso   1.000  H
  C9       1.0000 0.82910  0.86290  0.74720  Biso   1.000  C
  H6       1.0000 0.82140  0.87730  0.77480  Biso   1.000  H
  N5       1.0000 0.80193  0.85762  0.62689  Biso   1.000  N
  O4       1.0000 0.63900  0.73700  0.53730  Biso   1.000  O
  C10      1.0000 0.65100  0.74570  0.52410  Biso   1.000  C
  N6       1.0000 0.82450  0.96230  0.79440  Biso   1.000  N
  O5       1.0000 0.67971  0.58630  0.03783  Biso   1.000  O
  C11      1.0000 0.81060  0.63080  0.02370  Biso   1.000  C
  H7       1.0000 0.83540  0.63890  0.04230  Biso   1.000  H
  N7       1.0000 0.76788  0.61671  0.03901  Biso   1.000  N
  C12      1.0000 0.68040  0.64680  0.17040  Biso   1.000  C
  C13      1.0000 0.69230  0.62510  0.20950  Biso   1.000  C
  H8       1.0000 0.71480  0.60230  0.20960  Biso   1.000  H
  C14      1.0000 0.67090  0.63710  0.24720  Biso   1.000  C
  H9       1.0000 0.67860  0.62270  0.27480  Biso   1.000  H
  N8       1.0000 0.69807  0.64238  0.12689  Biso   1.000  N
  O6       1.0000 0.86100  0.76300  0.03730  Biso   1.000  O
  C15      1.0000 0.84900  0.75430  0.02410  Biso   1.000  C
  N9       1.0000 0.67550  0.53770  0.29440  Biso   1.000  N
  O7       1.0000 0.17971  0.08630  0.53783  Biso   1.000  O
  C16      1.0000 0.31060  0.13080  0.52370  Biso   1.000  C
  H10      1.0000 0.33540  0.13890  0.54230  Biso   1.000  H
  N10      1.0000 0.26788  0.11671  0.53901  Biso   1.000  N
  C17      1.0000 0.18040  0.14680  0.67040  Biso   1.000  C
  C18      1.0000 0.19230  0.12510  0.70950  Biso   1.000  C
  H11      1.0000 0.21480  0.10230  0.70960  Biso   1.000  H
  C19      1.0000 0.17090  0.13710  0.74720  Biso   1.000  C
  H12      1.0000 0.17860  0.12270  0.77480  Biso   1.000  H
  N11      1.0000 0.19807  0.14238  0.62689  Biso   1.000  N
  O8       1.0000 0.36100  0.26300  0.53730  Biso   1.000  O
  C20      1.0000 0.34900  0.25430  0.52410  Biso   1.000  C
  N12      1.0000 0.17550  0.03770  0.79440  Biso   1.000  N
  O9       1.0000 0.67971  0.41370  0.96217  Biso   1.000  O
  C21      1.0000 0.81060  0.36920  0.97630  Biso   1.000  C
  H13      1.0000 0.83540  0.36110  0.95770  Biso   1.000  H
  N13      1.0000 0.76788  0.38329  0.96099  Biso   1.000  N
  C22      1.0000 0.68040  0.35320  0.82960  Biso   1.000  C
  C23      1.0000 0.69230  0.37490  0.79050  Biso   1.000  C
  H14      1.0000 0.71480  0.39770  0.79040  Biso   1.000  H
  C24      1.0000 0.67090  0.36290  0.75280  Biso   1.000  C
  H15      1.0000 0.67860  0.37730  0.72520  Biso   1.000  H
  N14      1.0000 0.69807  0.35762  0.87311  Biso   1.000  N
  O10      1.0000 0.86100  0.23700  0.96270  Biso   1.000  O
  C25      1.0000 0.84900  0.24570  0.97590  Biso   1.000  C
  N15      1.0000 0.67550  0.46230  0.70560  Biso   1.000  N
  O11      1.0000 0.17971  0.91370  0.46217  Biso   1.000  O
  C26      1.0000 0.31060  0.86920  0.47630  Biso   1.000  C
  H16      1.0000 0.33540  0.86110  0.45770  Biso   1.000  H
  N16      1.0000 0.26788  0.88329  0.46099  Biso   1.000  N
  C27      1.0000 0.18040  0.85320  0.32960  Biso   1.000  C
  C28      1.0000 0.19230  0.87490  0.29050  Biso   1.000  C
  H17      1.0000 0.21480  0.89770  0.29040  Biso   1.000  H
  C29      1.0000 0.17090  0.86290  0.25280  Biso   1.000  C
  H18      1.0000 0.17860  0.87730  0.22520  Biso   1.000  H
  N17      1.0000 0.19807  0.85762  0.37311  Biso   1.000  N
  O12      1.0000 0.36100  0.73700  0.46270  Biso   1.000  O
  C30      1.0000 0.34900  0.74570  0.47590  Biso   1.000  C
  N18      1.0000 0.17550  0.96230  0.20560  Biso   1.000  N
  O13      1.0000 0.32029  0.58630  0.96217  Biso   1.000  O
  C31      1.0000 0.18940  0.63080  0.97630  Biso   1.000  C
  H19      1.0000 0.16460  0.63890  0.95770  Biso   1.000  H
  N19      1.0000 0.23212  0.61671  0.96099  Biso   1.000  N
  C32      1.0000 0.31960  0.64680  0.82960  Biso   1.000  C
  C33      1.0000 0.30770  0.62510  0.79050  Biso   1.000  C
  H20      1.0000 0.28520  0.60230  0.79040  Biso   1.000  H
  C34      1.0000 0.32910  0.63710  0.75280  Biso   1.000  C
  H21      1.0000 0.32140  0.62270  0.72520  Biso   1.000  H
  N20      1.0000 0.30193  0.64238  0.87311  Biso   1.000  N
  O14      1.0000 0.13900  0.76300  0.96270  Biso   1.000  O
  C35      1.0000 0.15100  0.75430  0.97590  Biso   1.000  C
  N21      1.0000 0.32450  0.53770  0.70560  Biso   1.000  N
  O15      1.0000 0.82029  0.08630  0.46217  Biso   1.000  O
  C36      1.0000 0.68940  0.13080  0.47630  Biso   1.000  C
  H22      1.0000 0.66460  0.13890  0.45770  Biso   1.000  H
  N22      1.0000 0.73212  0.11671  0.46099  Biso   1.000  N
  C37      1.0000 0.81960  0.14680  0.32960  Biso   1.000  C
  C38      1.0000 0.80770  0.12510  0.29050  Biso   1.000  C
  H23      1.0000 0.78520  0.10230  0.29040  Biso   1.000  H
  C39      1.0000 0.82910  0.13710  0.25280  Biso   1.000  C
  H24      1.0000 0.82140  0.12270  0.22520  Biso   1.000  H
  N23      1.0000 0.80193  0.14238  0.37311  Biso   1.000  N
  O16      1.0000 0.63900  0.26300  0.46270  Biso   1.000  O
  C40      1.0000 0.65100  0.25430  0.47590  Biso   1.000  C
  N24      1.0000 0.82450  0.03770  0.20560  Biso   1.000  N
  O17      1.0000 0.03783  0.32029  0.41370  Biso   1.000  O
  C41      1.0000 0.02370  0.18940  0.36920  Biso   1.000  C
  H25      1.0000 0.04230  0.16460  0.36110  Biso   1.000  H
  N25      1.0000 0.03901  0.23212  0.38329  Biso   1.000  N
  C42      1.0000 0.17040  0.31960  0.35320  Biso   1.000  C
  C43      1.0000 0.20950  0.30770  0.37490  Biso   1.000  C
  H26      1.0000 0.20960  0.28520  0.39770  Biso   1.000  H
  C44      1.0000 0.24720  0.32910  0.36290  Biso   1.000  C
  H27      1.0000 0.27480  0.32140  0.37730  Biso   1.000  H
  N26      1.0000 0.12689  0.30193  0.35762  Biso   1.000  N
  O18      1.0000 0.03730  0.13900  0.23700  Biso   1.000  O
  C45      1.0000 0.02410  0.15100  0.24570  Biso   1.000  C
  N27      1.0000 0.29440  0.32450  0.46230  Biso   1.000  N
  O19      1.0000 0.53783  0.82029  0.91370  Biso   1.000  O
  C46      1.0000 0.52370  0.68940  0.86920  Biso   1.000  C
  H28      1.0000 0.54230  0.66460  0.86110  Biso   1.000  H
  N28      1.0000 0.53901  0.73212  0.88329  Biso   1.000  N
  C47      1.0000 0.67040  0.81960  0.85320  Biso   1.000  C
  C48      1.0000 0.70950  0.80770  0.87490  Biso   1.000  C
  H29      1.0000 0.70960  0.78520  0.89770  Biso   1.000  H
  C49      1.0000 0.74720  0.82910  0.86290  Biso   1.000  C
  H30      1.0000 0.77480  0.82140  0.87730  Biso   1.000  H
  N29      1.0000 0.62689  0.80193  0.85762  Biso   1.000  N
  O20      1.0000 0.53730  0.63900  0.73700  Biso   1.000  O
  C50      1.0000 0.52410  0.65100  0.74570  Biso   1.000  C
  N30      1.0000 0.79440  0.82450  0.96230  Biso   1.000  N
  O21      1.0000 0.03783  0.67971  0.58630  Biso   1.000  O
  C51      1.0000 0.02370  0.81060  0.63080  Biso   1.000  C
  H31      1.0000 0.04230  0.83540  0.63890  Biso   1.000  H
  N31      1.0000 0.03901  0.76788  0.61671  Biso   1.000  N
  C52      1.0000 0.17040  0.68040  0.64680  Biso   1.000  C
  C53      1.0000 0.20950  0.69230  0.62510  Biso   1.000  C
  H32      1.0000 0.20960  0.71480  0.60230  Biso   1.000  H
  C54      1.0000 0.24720  0.67090  0.63710  Biso   1.000  C
  H33      1.0000 0.27480  0.67860  0.62270  Biso   1.000  H
  N32      1.0000 0.12689  0.69807  0.64238  Biso   1.000  N
  O22      1.0000 0.03730  0.86100  0.76300  Biso   1.000  O
  C55      1.0000 0.02410  0.84900  0.75430  Biso   1.000  C
  N33      1.0000 0.29440  0.67550  0.53770  Biso   1.000  N
  O23      1.0000 0.53783  0.17971  0.08630  Biso   1.000  O
  C56      1.0000 0.52370  0.31060  0.13080  Biso   1.000  C
  H34      1.0000 0.54230  0.33540  0.13890  Biso   1.000  H
  N34      1.0000 0.53901  0.26788  0.11671  Biso   1.000  N
  C57      1.0000 0.67040  0.18040  0.14680  Biso   1.000  C
  C58      1.0000 0.70950  0.19230  0.12510  Biso   1.000  C
  H35      1.0000 0.70960  0.21480  0.10230  Biso   1.000  H
  C59      1.0000 0.74720  0.17090  0.13710  Biso   1.000  C
  H36      1.0000 0.77480  0.17860  0.12270  Biso   1.000  H
  N35      1.0000 0.62689  0.19807  0.14238  Biso   1.000  N
  O24      1.0000 0.53730  0.36100  0.26300  Biso   1.000  O
  C60      1.0000 0.52410  0.34900  0.25430  Biso   1.000  C
  N36      1.0000 0.79440  0.17550  0.03770  Biso   1.000  N
  O25      1.0000 0.96217  0.67971  0.41370  Biso   1.000  O
  C61      1.0000 0.97630  0.81060  0.36920  Biso   1.000  C
  H37      1.0000 0.95770  0.83540  0.36110  Biso   1.000  H
  N37      1.0000 0.96099  0.76788  0.38329  Biso   1.000  N
  C62      1.0000 0.82960  0.68040  0.35320  Biso   1.000  C
  C63      1.0000 0.79050  0.69230  0.37490  Biso   1.000  C
  H38      1.0000 0.79040  0.71480  0.39770  Biso   1.000  H
  C64      1.0000 0.75280  0.67090  0.36290  Biso   1.000  C
  H39      1.0000 0.72520  0.67860  0.37730  Biso   1.000  H
  N38      1.0000 0.87311  0.69807  0.35762  Biso   1.000  N
  O26      1.0000 0.96270  0.86100  0.23700  Biso   1.000  O
  C65      1.0000 0.97590  0.84900  0.24570  Biso   1.000  C
  N39      1.0000 0.70560  0.67550  0.46230  Biso   1.000  N
  O27      1.0000 0.46217  0.17971  0.91370  Biso   1.000  O
  C66      1.0000 0.47630  0.31060  0.86920  Biso   1.000  C
  H40      1.0000 0.45770  0.33540  0.86110  Biso   1.000  H
  N40      1.0000 0.46099  0.26788  0.88329  Biso   1.000  N
  C67      1.0000 0.32960  0.18040  0.85320  Biso   1.000  C
  C68      1.0000 0.29050  0.19230  0.87490  Biso   1.000  C
  H41      1.0000 0.29040  0.21480  0.89770  Biso   1.000  H
  C69      1.0000 0.25280  0.17090  0.86290  Biso   1.000  C
  H42      1.0000 0.22520  0.17860  0.87730  Biso   1.000  H
  N41      1.0000 0.37311  0.19807  0.85762  Biso   1.000  N
  O28      1.0000 0.46270  0.36100  0.73700  Biso   1.000  O
  C70      1.0000 0.47590  0.34900  0.74570  Biso   1.000  C
  N42      1.0000 0.20560  0.17550  0.96230  Biso   1.000  N
  O29      1.0000 0.96217  0.32029  0.58630  Biso   1.000  O
  C71      1.0000 0.97630  0.18940  0.63080  Biso   1.000  C
  H43      1.0000 0.95770  0.16460  0.63890  Biso   1.000  H
  N43      1.0000 0.96099  0.23212  0.61671  Biso   1.000  N
  C72      1.0000 0.82960  0.31960  0.64680  Biso   1.000  C
  C73      1.0000 0.79050  0.30770  0.62510  Biso   1.000  C
  H44      1.0000 0.79040  0.28520  0.60230  Biso   1.000  H
  C74      1.0000 0.75280  0.32910  0.63710  Biso   1.000  C
  H45      1.0000 0.72520  0.32140  0.62270  Biso   1.000  H
  N44      1.0000 0.87311  0.30193  0.64238  Biso   1.000  N
  O30      1.0000 0.96270  0.13900  0.76300  Biso   1.000  O
  C75      1.0000 0.97590  0.15100  0.75430  Biso   1.000  C
  N45      1.0000 0.70560  0.32450  0.53770  Biso   1.000  N
  O31      1.0000 0.46217  0.82029  0.08630  Biso   1.000  O
  C76      1.0000 0.47630  0.68940  0.13080  Biso   1.000  C
  H46      1.0000 0.45770  0.66460  0.13890  Biso   1.000  H
  N46      1.0000 0.46099  0.73212  0.11671  Biso   1.000  N
  C77      1.0000 0.32960  0.81960  0.14680  Biso   1.000  C
  C78      1.0000 0.29050  0.80770  0.12510  Biso   1.000  C
  H47      1.0000 0.29040  0.78520  0.10230  Biso   1.000  H
  C79      1.0000 0.25280  0.82910  0.13710  Biso   1.000  C
  H48      1.0000 0.22520  0.82140  0.12270  Biso   1.000  H
  N47      1.0000 0.37311  0.80193  0.14238  Biso   1.000  N
  O32      1.0000 0.46270  0.63900  0.26300  Biso   1.000  O
  C80      1.0000 0.47590  0.65100  0.25430  Biso   1.000  C
  N48      1.0000 0.20560  0.82450  0.03770  Biso   1.000  N
  O33      1.0000 0.41370  0.03783  0.32029  Biso   1.000  O
  C81      1.0000 0.36920  0.02370  0.18940  Biso   1.000  C
  H49      1.0000 0.36110  0.04230  0.16460  Biso   1.000  H
  N49      1.0000 0.38329  0.03901  0.23212  Biso   1.000  N
  C82      1.0000 0.35320  0.17040  0.31960  Biso   1.000  C
  C83      1.0000 0.37490  0.20950  0.30770  Biso   1.000  C
  H50      1.0000 0.39770  0.20960  0.28520  Biso   1.000  H
  C84      1.0000 0.36290  0.24720  0.32910  Biso   1.000  C
  H51      1.0000 0.37730  0.27480  0.32140  Biso   1.000  H
  N50      1.0000 0.35762  0.12689  0.30193  Biso   1.000  N
  O34      1.0000 0.23700  0.03730  0.13900  Biso   1.000  O
  C85      1.0000 0.24570  0.02410  0.15100  Biso   1.000  C
  N51      1.0000 0.46230  0.29440  0.32450  Biso   1.000  N
  O35      1.0000 0.91370  0.53783  0.82029  Biso   1.000  O
  C86      1.0000 0.86920  0.52370  0.68940  Biso   1.000  C
  H52      1.0000 0.86110  0.54230  0.66460  Biso   1.000  H
  N52      1.0000 0.88329  0.53901  0.73212  Biso   1.000  N
  C87      1.0000 0.85320  0.67040  0.81960  Biso   1.000  C
  C88      1.0000 0.87490  0.70950  0.80770  Biso   1.000  C
  H53      1.0000 0.89770  0.70960  0.78520  Biso   1.000  H
  C89      1.0000 0.86290  0.74720  0.82910  Biso   1.000  C
  H54      1.0000 0.87730  0.77480  0.82140  Biso   1.000  H
  N53      1.0000 0.85762  0.62689  0.80193  Biso   1.000  N
  O36      1.0000 0.73700  0.53730  0.63900  Biso   1.000  O
  C90      1.0000 0.74570  0.52410  0.65100  Biso   1.000  C
  N54      1.0000 0.96230  0.79440  0.82450  Biso   1.000  N
  O37      1.0000 0.58630  0.03783  0.67971  Biso   1.000  O
  C91      1.0000 0.63080  0.02370  0.81060  Biso   1.000  C
  H55      1.0000 0.63890  0.04230  0.83540  Biso   1.000  H
  N55      1.0000 0.61671  0.03901  0.76788  Biso   1.000  N
  C92      1.0000 0.64680  0.17040  0.68040  Biso   1.000  C
  C93      1.0000 0.62510  0.20950  0.69230  Biso   1.000  C
  H56      1.0000 0.60230  0.20960  0.71480  Biso   1.000  H
  C94      1.0000 0.63710  0.24720  0.67090  Biso   1.000  C
  H57      1.0000 0.62270  0.27480  0.67860  Biso   1.000  H
  N56      1.0000 0.64238  0.12689  0.69807  Biso   1.000  N
  O38      1.0000 0.76300  0.03730  0.86100  Biso   1.000  O
  C95      1.0000 0.75430  0.02410  0.84900  Biso   1.000  C
  N57      1.0000 0.53770  0.29440  0.67550  Biso   1.000  N
  O39      1.0000 0.08630  0.53783  0.17971  Biso   1.000  O
  C96      1.0000 0.13080  0.52370  0.31060  Biso   1.000  C
  H58      1.0000 0.13890  0.54230  0.33540  Biso   1.000  H
  N58      1.0000 0.11671  0.53901  0.26788  Biso   1.000  N
  C97      1.0000 0.14680  0.67040  0.18040  Biso   1.000  C
  C98      1.0000 0.12510  0.70950  0.19230  Biso   1.000  C
  H59      1.0000 0.10230  0.70960  0.21480  Biso   1.000  H
  C99      1.0000 0.13710  0.74720  0.17090  Biso   1.000  C
  H60      1.0000 0.12270  0.77480  0.17860  Biso   1.000  H
  N59      1.0000 0.14238  0.62689  0.19807  Biso   1.000  N
  O40      1.0000 0.26300  0.53730  0.36100  Biso   1.000  O
  C100     1.0000 0.25430  0.52410  0.34900  Biso   1.000  C
  N60      1.0000 0.03770  0.79440  0.17550  Biso   1.000  N
  O41      1.0000 0.41370  0.96217  0.67971  Biso   1.000  O
  C101     1.0000 0.36920  0.97630  0.81060  Biso   1.000  C
  H61      1.0000 0.36110  0.95770  0.83540  Biso   1.000  H
  N61      1.0000 0.38329  0.96099  0.76788  Biso   1.000  N
  C102     1.0000 0.35320  0.82960  0.68040  Biso   1.000  C
  C103     1.0000 0.37490  0.79050  0.69230  Biso   1.000  C
  H62      1.0000 0.39770  0.79040  0.71480  Biso   1.000  H
  C104     1.0000 0.36290  0.75280  0.67090  Biso   1.000  C
  H63      1.0000 0.37730  0.72520  0.67860  Biso   1.000  H
  N62      1.0000 0.35762  0.87311  0.69807  Biso   1.000  N
  O42      1.0000 0.23700  0.96270  0.86100  Biso   1.000  O
  C105     1.0000 0.24570  0.97590  0.84900  Biso   1.000  C
  N63      1.0000 0.46230  0.70560  0.67550  Biso   1.000  N
  O43      1.0000 0.91370  0.46217  0.17971  Biso   1.000  O
  C106     1.0000 0.86920  0.47630  0.31060  Biso   1.000  C
  H64      1.0000 0.86110  0.45770  0.33540  Biso   1.000  H
  N64      1.0000 0.88329  0.46099  0.26788  Biso   1.000  N
  C107     1.0000 0.85320  0.32960  0.18040  Biso   1.000  C
  C108     1.0000 0.87490  0.29050  0.19230  Biso   1.000  C
  H65      1.0000 0.89770  0.29040  0.21480  Biso   1.000  H
  C109     1.0000 0.86290  0.25280  0.17090  Biso   1.000  C
  H66      1.0000 0.87730  0.22520  0.17860  Biso   1.000  H
  N65      1.0000 0.85762  0.37311  0.19807  Biso   1.000  N
  O44      1.0000 0.73700  0.46270  0.36100  Biso   1.000  O
  C110     1.0000 0.74570  0.47590  0.34900  Biso   1.000  C
  N66      1.0000 0.96230  0.20560  0.17550  Biso   1.000  N
  O45      1.0000 0.58630  0.96217  0.32029  Biso   1.000  O
  C111     1.0000 0.63080  0.97630  0.18940  Biso   1.000  C
  H67      1.0000 0.63890  0.95770  0.16460  Biso   1.000  H
  N67      1.0000 0.61671  0.96099  0.23212  Biso   1.000  N
  C112     1.0000 0.64680  0.82960  0.31960  Biso   1.000  C
  C113     1.0000 0.62510  0.79050  0.30770  Biso   1.000  C
  H68      1.0000 0.60230  0.79040  0.28520  Biso   1.000  H
  C114     1.0000 0.63710  0.75280  0.32910  Biso   1.000  C
  H69      1.0000 0.62270  0.72520  0.32140  Biso   1.000  H
  N68      1.0000 0.64238  0.87311  0.30193  Biso   1.000  N
  O46      1.0000 0.76300  0.96270  0.13900  Biso   1.000  O
  C115     1.0000 0.75430  0.97590  0.15100  Biso   1.000  C
  N69      1.0000 0.53770  0.70560  0.32450  Biso   1.000  N
  O47      1.0000 0.08630  0.46217  0.82029  Biso   1.000  O
  C116     1.0000 0.13080  0.47630  0.68940  Biso   1.000  C
  H70      1.0000 0.13890  0.45770  0.66460  Biso   1.000  H
  N70      1.0000 0.11671  0.46099  0.73212  Biso   1.000  N
  C117     1.0000 0.14680  0.32960  0.81960  Biso   1.000  C
  C118     1.0000 0.12510  0.29050  0.80770  Biso   1.000  C
  H71      1.0000 0.10230  0.29040  0.78520  Biso   1.000  H
  C119     1.0000 0.13710  0.25280  0.82910  Biso   1.000  C
  H72      1.0000 0.12270  0.22520  0.82140  Biso   1.000  H
  N71      1.0000 0.14238  0.37311  0.80193  Biso   1.000  N
  O48      1.0000 0.26300  0.46270  0.63900  Biso   1.000  O
  C120     1.0000 0.25430  0.47590  0.65100  Biso   1.000  C
  N72      1.0000 0.03770  0.20560  0.82450  Biso   1.000  N
  O49      1.0000 0.41370  0.32029  0.96217  Biso   1.000  O
  C121     1.0000 0.36920  0.18940  0.97630  Biso   1.000  C
  H73      1.0000 0.36110  0.16460  0.95770  Biso   1.000  H
  N73      1.0000 0.38329  0.23212  0.96099  Biso   1.000  N
  C122     1.0000 0.35320  0.31960  0.82960  Biso   1.000  C
  C123     1.0000 0.37490  0.30770  0.79050  Biso   1.000  C
  H74      1.0000 0.39770  0.28520  0.79040  Biso   1.000  H
  C124     1.0000 0.36290  0.32910  0.75280  Biso   1.000  C
  H75      1.0000 0.37730  0.32140  0.72520  Biso   1.000  H
  N74      1.0000 0.35762  0.30193  0.87311  Biso   1.000  N
  O50      1.0000 0.23700  0.13900  0.96270  Biso   1.000  O
  C125     1.0000 0.24570  0.15100  0.97590  Biso   1.000  C
  N75      1.0000 0.46230  0.32450  0.70560  Biso   1.000  N
  O51      1.0000 0.91370  0.82029  0.46217  Biso   1.000  O
  C126     1.0000 0.86920  0.68940  0.47630  Biso   1.000  C
  H76      1.0000 0.86110  0.66460  0.45770  Biso   1.000  H
  N76      1.0000 0.88329  0.73212  0.46099  Biso   1.000  N
  C127     1.0000 0.85320  0.81960  0.32960  Biso   1.000  C
  C128     1.0000 0.87490  0.80770  0.29050  Biso   1.000  C
  H77      1.0000 0.89770  0.78520  0.29040  Biso   1.000  H
  C129     1.0000 0.86290  0.82910  0.25280  Biso   1.000  C
  H78      1.0000 0.87730  0.82140  0.22520  Biso   1.000  H
  N77      1.0000 0.85762  0.80193  0.37311  Biso   1.000  N
  O52      1.0000 0.73700  0.63900  0.46270  Biso   1.000  O
  C130     1.0000 0.74570  0.65100  0.47590  Biso   1.000  C
  N78      1.0000 0.96230  0.82450  0.20560  Biso   1.000  N
  O53      1.0000 0.58630  0.67971  0.96217  Biso   1.000  O
  C131     1.0000 0.63080  0.81060  0.97630  Biso   1.000  C
  H79      1.0000 0.63890  0.83540  0.95770  Biso   1.000  H
  N79      1.0000 0.61671  0.76788  0.96099  Biso   1.000  N
  C132     1.0000 0.64680  0.68040  0.82960  Biso   1.000  C
  C133     1.0000 0.62510  0.69230  0.79050  Biso   1.000  C
  H80      1.0000 0.60230  0.71480  0.79040  Biso   1.000  H
  C134     1.0000 0.63710  0.67090  0.75280  Biso   1.000  C
  H81      1.0000 0.62270  0.67860  0.72520  Biso   1.000  H
  N80      1.0000 0.64238  0.69807  0.87311  Biso   1.000  N
  O54      1.0000 0.76300  0.86100  0.96270  Biso   1.000  O
  C135     1.0000 0.75430  0.84900  0.97590  Biso   1.000  C
  N81      1.0000 0.53770  0.67550  0.70560  Biso   1.000  N
  O55      1.0000 0.08630  0.17971  0.46217  Biso   1.000  O
  C136     1.0000 0.13080  0.31060  0.47630  Biso   1.000  C
  H82      1.0000 0.13890  0.33540  0.45770  Biso   1.000  H
  N82      1.0000 0.11671  0.26788  0.46099  Biso   1.000  N
  C137     1.0000 0.14680  0.18040  0.32960  Biso   1.000  C
  C138     1.0000 0.12510  0.19230  0.29050  Biso   1.000  C
  H83      1.0000 0.10230  0.21480  0.29040  Biso   1.000  H
  C139     1.0000 0.13710  0.17090  0.25280  Biso   1.000  C
  H84      1.0000 0.12270  0.17860  0.22520  Biso   1.000  H
  N83      1.0000 0.14238  0.19807  0.37311  Biso   1.000  N
  O56      1.0000 0.26300  0.36100  0.46270  Biso   1.000  O
  C140     1.0000 0.25430  0.34900  0.47590  Biso   1.000  C
  N84      1.0000 0.03770  0.17550  0.20560  Biso   1.000  N
  O57      1.0000 0.41370  0.67971  0.03783  Biso   1.000  O
  C141     1.0000 0.36920  0.81060  0.02370  Biso   1.000  C
  H85      1.0000 0.36110  0.83540  0.04230  Biso   1.000  H
  N85      1.0000 0.38329  0.76788  0.03901  Biso   1.000  N
  C142     1.0000 0.35320  0.68040  0.17040  Biso   1.000  C
  C143     1.0000 0.37490  0.69230  0.20950  Biso   1.000  C
  H86      1.0000 0.39770  0.71480  0.20960  Biso   1.000  H
  C144     1.0000 0.36290  0.67090  0.24720  Biso   1.000  C
  H87      1.0000 0.37730  0.67860  0.27480  Biso   1.000  H
  N86      1.0000 0.35762  0.69807  0.12689  Biso   1.000  N
  O58      1.0000 0.23700  0.86100  0.03730  Biso   1.000  O
  C145     1.0000 0.24570  0.84900  0.02410  Biso   1.000  C
  N87      1.0000 0.46230  0.67550  0.29440  Biso   1.000  N
  O59      1.0000 0.91370  0.17971  0.53783  Biso   1.000  O
  C146     1.0000 0.86920  0.31060  0.52370  Biso   1.000  C
  H88      1.0000 0.86110  0.33540  0.54230  Biso   1.000  H
  N88      1.0000 0.88329  0.26788  0.53901  Biso   1.000  N
  C147     1.0000 0.85320  0.18040  0.67040  Biso   1.000  C
  C148     1.0000 0.87490  0.19230  0.70950  Biso   1.000  C
  H89      1.0000 0.89770  0.21480  0.70960  Biso   1.000  H
  C149     1.0000 0.86290  0.17090  0.74720  Biso   1.000  C
  H90      1.0000 0.87730  0.17860  0.77480  Biso   1.000  H
  N89      1.0000 0.85762  0.19807  0.62689  Biso   1.000  N
  O60      1.0000 0.73700  0.36100  0.53730  Biso   1.000  O
  C150     1.0000 0.74570  0.34900  0.52410  Biso   1.000  C
  N90      1.0000 0.96230  0.17550  0.79440  Biso   1.000  N
  O61      1.0000 0.58630  0.32029  0.03783  Biso   1.000  O
  C151     1.0000 0.63080  0.18940  0.02370  Biso   1.000  C
  H91      1.0000 0.63890  0.16460  0.04230  Biso   1.000  H
  N91      1.0000 0.61671  0.23212  0.03901  Biso   1.000  N
  C152     1.0000 0.64680  0.31960  0.17040  Biso   1.000  C
  C153     1.0000 0.62510  0.30770  0.20950  Biso   1.000  C
  H92      1.0000 0.60230  0.28520  0.20960  Biso   1.000  H
  C154     1.0000 0.63710  0.32910  0.24720  Biso   1.000  C
  H93      1.0000 0.62270  0.32140  0.27480  Biso   1.000  H
  N92      1.0000 0.64238  0.30193  0.12689  Biso   1.000  N
  O62      1.0000 0.76300  0.13900  0.03730  Biso   1.000  O
  C155     1.0000 0.75430  0.15100  0.02410  Biso   1.000  C
  N93      1.0000 0.53770  0.32450  0.29440  Biso   1.000  N
  O63      1.0000 0.08630  0.82029  0.53783  Biso   1.000  O
  C156     1.0000 0.13080  0.68940  0.52370  Biso   1.000  C
  H94      1.0000 0.13890  0.66460  0.54230  Biso   1.000  H
  N94      1.0000 0.11671  0.73212  0.53901  Biso   1.000  N
  C157     1.0000 0.14680  0.81960  0.67040  Biso   1.000  C
  C158     1.0000 0.12510  0.80770  0.70950  Biso   1.000  C
  H95      1.0000 0.10230  0.78520  0.70960  Biso   1.000  H
  C159     1.0000 0.13710  0.82910  0.74720  Biso   1.000  C
  H96      1.0000 0.12270  0.82140  0.77480  Biso   1.000  H
  N95      1.0000 0.14238  0.80193  0.62689  Biso   1.000  N
  O64      1.0000 0.26300  0.63900  0.53730  Biso   1.000  O
  C160     1.0000 0.25430  0.65100  0.52410  Biso   1.000  C
  N96      1.0000 0.03770  0.82450  0.79440  Biso   1.000  N
  O65      1.0000 0.32029  0.03783  0.58630  Biso   1.000  O
  C161     1.0000 0.18940  0.02370  0.63080  Biso   1.000  C
  H97      1.0000 0.16460  0.04230  0.63890  Biso   1.000  H
  N97      1.0000 0.23212  0.03901  0.61671  Biso   1.000  N
  C162     1.0000 0.31960  0.17040  0.64680  Biso   1.000  C
  C163     1.0000 0.30770  0.20950  0.62510  Biso   1.000  C
  H98      1.0000 0.28520  0.20960  0.60230  Biso   1.000  H
  C164     1.0000 0.32910  0.24720  0.63710  Biso   1.000  C
  H99      1.0000 0.32140  0.27480  0.62270  Biso   1.000  H
  N98      1.0000 0.30193  0.12689  0.64238  Biso   1.000  N
  O66      1.0000 0.13900  0.03730  0.76300  Biso   1.000  O
  C165     1.0000 0.15100  0.02410  0.75430  Biso   1.000  C
  N99      1.0000 0.32450  0.29440  0.53770  Biso   1.000  N
  O67      1.0000 0.82029  0.53783  0.08630  Biso   1.000  O
  C166     1.0000 0.68940  0.52370  0.13080  Biso   1.000  C
  H100     1.0000 0.66460  0.54230  0.13890  Biso   1.000  H
  N100     1.0000 0.73212  0.53901  0.11671  Biso   1.000  N
  C167     1.0000 0.81960  0.67040  0.14680  Biso   1.000  C
  C168     1.0000 0.80770  0.70950  0.12510  Biso   1.000  C
  H101     1.0000 0.78520  0.70960  0.10230  Biso   1.000  H
  C169     1.0000 0.82910  0.74720  0.13710  Biso   1.000  C
  H102     1.0000 0.82140  0.77480  0.12270  Biso   1.000  H
  N101     1.0000 0.80193  0.62689  0.14238  Biso   1.000  N
  O68      1.0000 0.63900  0.53730  0.26300  Biso   1.000  O
  C170     1.0000 0.65100  0.52410  0.25430  Biso   1.000  C
  N102     1.0000 0.82450  0.79440  0.03770  Biso   1.000  N
  O69      1.0000 0.67971  0.03783  0.41370  Biso   1.000  O
  C171     1.0000 0.81060  0.02370  0.36920  Biso   1.000  C
  H103     1.0000 0.83540  0.04230  0.36110  Biso   1.000  H
  N103     1.0000 0.76788  0.03901  0.38329  Biso   1.000  N
  C172     1.0000 0.68040  0.17040  0.35320  Biso   1.000  C
  C173     1.0000 0.69230  0.20950  0.37490  Biso   1.000  C
  H104     1.0000 0.71480  0.20960  0.39770  Biso   1.000  H
  C174     1.0000 0.67090  0.24720  0.36290  Biso   1.000  C
  H105     1.0000 0.67860  0.27480  0.37730  Biso   1.000  H
  N104     1.0000 0.69807  0.12689  0.35762  Biso   1.000  N
  O70      1.0000 0.86100  0.03730  0.23700  Biso   1.000  O
  C175     1.0000 0.84900  0.02410  0.24570  Biso   1.000  C
  N105     1.0000 0.67550  0.29440  0.46230  Biso   1.000  N
  O71      1.0000 0.17971  0.53783  0.91370  Biso   1.000  O
  C176     1.0000 0.31060  0.52370  0.86920  Biso   1.000  C
  H106     1.0000 0.33540  0.54230  0.86110  Biso   1.000  H
  N106     1.0000 0.26788  0.53901  0.88329  Biso   1.000  N
  C177     1.0000 0.18040  0.67040  0.85320  Biso   1.000  C
  C178     1.0000 0.19230  0.70950  0.87490  Biso   1.000  C
  H107     1.0000 0.21480  0.70960  0.89770  Biso   1.000  H
  C179     1.0000 0.17090  0.74720  0.86290  Biso   1.000  C
  H108     1.0000 0.17860  0.77480  0.87730  Biso   1.000  H
  N107     1.0000 0.19807  0.62689  0.85762  Biso   1.000  N
  O72      1.0000 0.36100  0.53730  0.73700  Biso   1.000  O
  C180     1.0000 0.34900  0.52410  0.74570  Biso   1.000  C
  N108     1.0000 0.17550  0.79440  0.96230  Biso   1.000  N
  O73      1.0000 0.67971  0.96217  0.58630  Biso   1.000  O
  C181     1.0000 0.81060  0.97630  0.63080  Biso   1.000  C
  H109     1.0000 0.83540  0.95770  0.63890  Biso   1.000  H
  N109     1.0000 0.76788  0.96099  0.61671  Biso   1.000  N
  C182     1.0000 0.68040  0.82960  0.64680  Biso   1.000  C
  C183     1.0000 0.69230  0.79050  0.62510  Biso   1.000  C
  H110     1.0000 0.71480  0.79040  0.60230  Biso   1.000  H
  C184     1.0000 0.67090  0.75280  0.63710  Biso   1.000  C
  H111     1.0000 0.67860  0.72520  0.62270  Biso   1.000  H
  N110     1.0000 0.69807  0.87311  0.64238  Biso   1.000  N
  O74      1.0000 0.86100  0.96270  0.76300  Biso   1.000  O
  C185     1.0000 0.84900  0.97590  0.75430  Biso   1.000  C
  N111     1.0000 0.67550  0.70560  0.53770  Biso   1.000  N
  O75      1.0000 0.17971  0.46217  0.08630  Biso   1.000  O
  C186     1.0000 0.31060  0.47630  0.13080  Biso   1.000  C
  H112     1.0000 0.33540  0.45770  0.13890  Biso   1.000  H
  N112     1.0000 0.26788  0.46099  0.11671  Biso   1.000  N
  C187     1.0000 0.18040  0.32960  0.14680  Biso   1.000  C
  C188     1.0000 0.19230  0.29050  0.12510  Biso   1.000  C
  H113     1.0000 0.21480  0.29040  0.10230  Biso   1.000  H
  C189     1.0000 0.17090  0.25280  0.13710  Biso   1.000  C
  H114     1.0000 0.17860  0.22520  0.12270  Biso   1.000  H
  N113     1.0000 0.19807  0.37311  0.14238  Biso   1.000  N
  O76      1.0000 0.36100  0.46270  0.26300  Biso   1.000  O
  C190     1.0000 0.34900  0.47590  0.25430  Biso   1.000  C
  N114     1.0000 0.17550  0.20560  0.03770  Biso   1.000  N
  O77      1.0000 0.32029  0.96217  0.41370  Biso   1.000  O
  C191     1.0000 0.18940  0.97630  0.36920  Biso   1.000  C
  H115     1.0000 0.16460  0.95770  0.36110  Biso   1.000  H
  N115     1.0000 0.23212  0.96099  0.38329  Biso   1.000  N
  C192     1.0000 0.31960  0.82960  0.35320  Biso   1.000  C
  C193     1.0000 0.30770  0.79050  0.37490  Biso   1.000  C
  H116     1.0000 0.28520  0.79040  0.39770  Biso   1.000  H
  C194     1.0000 0.32910  0.75280  0.36290  Biso   1.000  C
  H117     1.0000 0.32140  0.72520  0.37730  Biso   1.000  H
  N116     1.0000 0.30193  0.87311  0.35762  Biso   1.000  N
  O78      1.0000 0.13900  0.96270  0.23700  Biso   1.000  O
  C195     1.0000 0.15100  0.97590  0.24570  Biso   1.000  C
  N117     1.0000 0.32450  0.70560  0.46230  Biso   1.000  N
  O79      1.0000 0.82029  0.46217  0.91370  Biso   1.000  O
  C196     1.0000 0.68940  0.47630  0.86920  Biso   1.000  C
  H118     1.0000 0.66460  0.45770  0.86110  Biso   1.000  H
  N118     1.0000 0.73212  0.46099  0.88329  Biso   1.000  N
  C197     1.0000 0.81960  0.32960  0.85320  Biso   1.000  C
  C198     1.0000 0.80770  0.29050  0.87490  Biso   1.000  C
  H119     1.0000 0.78520  0.29040  0.89770  Biso   1.000  H
  C199     1.0000 0.82910  0.25280  0.86290  Biso   1.000  C
  H120     1.0000 0.82140  0.22520  0.87730  Biso   1.000  H
  N119     1.0000 0.80193  0.37311  0.85762  Biso   1.000  N
  O80      1.0000 0.63900  0.46270  0.73700  Biso   1.000  O
  C200     1.0000 0.65100  0.47590  0.74570  Biso   1.000  C
  N120     1.0000 0.82450  0.20560  0.96230  Biso   1.000  N
  O81      1.0000 0.03783  0.41370  0.67971  Biso   1.000  O
  C201     1.0000 0.02370  0.36920  0.81060  Biso   1.000  C
  H121     1.0000 0.04230  0.36110  0.83540  Biso   1.000  H
  N121     1.0000 0.03901  0.38329  0.76788  Biso   1.000  N
  C202     1.0000 0.17040  0.35320  0.68040  Biso   1.000  C
  C203     1.0000 0.20950  0.37490  0.69230  Biso   1.000  C
  H122     1.0000 0.20960  0.39770  0.71480  Biso   1.000  H
  C204     1.0000 0.24720  0.36290  0.67090  Biso   1.000  C
  H123     1.0000 0.27480  0.37730  0.67860  Biso   1.000  H
  N122     1.0000 0.12689  0.35762  0.69807  Biso   1.000  N
  O82      1.0000 0.03730  0.23700  0.86100  Biso   1.000  O
  C205     1.0000 0.02410  0.24570  0.84900  Biso   1.000  C
  N123     1.0000 0.29440  0.46230  0.67550  Biso   1.000  N
  O83      1.0000 0.53783  0.91370  0.17971  Biso   1.000  O
  C206     1.0000 0.52370  0.86920  0.31060  Biso   1.000  C
  H124     1.0000 0.54230  0.86110  0.33540  Biso   1.000  H
  N124     1.0000 0.53901  0.88329  0.26788  Biso   1.000  N
  C207     1.0000 0.67040  0.85320  0.18040  Biso   1.000  C
  C208     1.0000 0.70950  0.87490  0.19230  Biso   1.000  C
  H125     1.0000 0.70960  0.89770  0.21480  Biso   1.000  H
  C209     1.0000 0.74720  0.86290  0.17090  Biso   1.000  C
  H126     1.0000 0.77480  0.87730  0.17860  Biso   1.000  H
  N125     1.0000 0.62689  0.85762  0.19807  Biso   1.000  N
  O84      1.0000 0.53730  0.73700  0.36100  Biso   1.000  O
  C210     1.0000 0.52410  0.74570  0.34900  Biso   1.000  C
  N126     1.0000 0.79440  0.96230  0.17550  Biso   1.000  N
  O85      1.0000 0.03783  0.58630  0.32029  Biso   1.000  O
  C211     1.0000 0.02370  0.63080  0.18940  Biso   1.000  C
  H127     1.0000 0.04230  0.63890  0.16460  Biso   1.000  H
  N127     1.0000 0.03901  0.61671  0.23212  Biso   1.000  N
  C212     1.0000 0.17040  0.64680  0.31960  Biso   1.000  C
  C213     1.0000 0.20950  0.62510  0.30770  Biso   1.000  C
  H128     1.0000 0.20960  0.60230  0.28520  Biso   1.000  H
  C214     1.0000 0.24720  0.63710  0.32910  Biso   1.000  C
  H129     1.0000 0.27480  0.62270  0.32140  Biso   1.000  H
  N128     1.0000 0.12689  0.64238  0.30193  Biso   1.000  N
  O86      1.0000 0.03730  0.76300  0.13900  Biso   1.000  O
  C215     1.0000 0.02410  0.75430  0.15100  Biso   1.000  C
  N129     1.0000 0.29440  0.53770  0.32450  Biso   1.000  N
  O87      1.0000 0.53783  0.08630  0.82029  Biso   1.000  O
  C216     1.0000 0.52370  0.13080  0.68940  Biso   1.000  C
  H130     1.0000 0.54230  0.13890  0.66460  Biso   1.000  H
  N130     1.0000 0.53901  0.11671  0.73212  Biso   1.000  N
  C217     1.0000 0.67040  0.14680  0.81960  Biso   1.000  C
  C218     1.0000 0.70950  0.12510  0.80770  Biso   1.000  C
  H131     1.0000 0.70960  0.10230  0.78520  Biso   1.000  H
  C219     1.0000 0.74720  0.13710  0.82910  Biso   1.000  C
  H132     1.0000 0.77480  0.12270  0.82140  Biso   1.000  H
  N131     1.0000 0.62689  0.14238  0.80193  Biso   1.000  N
  O88      1.0000 0.53730  0.26300  0.63900  Biso   1.000  O
  C220     1.0000 0.52410  0.25430  0.65100  Biso   1.000  C
  N132     1.0000 0.79440  0.03770  0.82450  Biso   1.000  N
  O89      1.0000 0.96217  0.41370  0.32029  Biso   1.000  O
  C221     1.0000 0.97630  0.36920  0.18940  Biso   1.000  C
  H133     1.0000 0.95770  0.36110  0.16460  Biso   1.000  H
  N133     1.0000 0.96099  0.38329  0.23212  Biso   1.000  N
  C222     1.0000 0.82960  0.35320  0.31960  Biso   1.000  C
  C223     1.0000 0.79050  0.37490  0.30770  Biso   1.000  C
  H134     1.0000 0.79040  0.39770  0.28520  Biso   1.000  H
  C224     1.0000 0.75280  0.36290  0.32910  Biso   1.000  C
  H135     1.0000 0.72520  0.37730  0.32140  Biso   1.000  H
  N134     1.0000 0.87311  0.35762  0.30193  Biso   1.000  N
  O90      1.0000 0.96270  0.23700  0.13900  Biso   1.000  O
  C225     1.0000 0.97590  0.24570  0.15100  Biso   1.000  C
  N135     1.0000 0.70560  0.46230  0.32450  Biso   1.000  N
  O91      1.0000 0.46217  0.91370  0.82029  Biso   1.000  O
  C226     1.0000 0.47630  0.86920  0.68940  Biso   1.000  C
  H136     1.0000 0.45770  0.86110  0.66460  Biso   1.000  H
  N136     1.0000 0.46099  0.88329  0.73212  Biso   1.000  N
  C227     1.0000 0.32960  0.85320  0.81960  Biso   1.000  C
  C228     1.0000 0.29050  0.87490  0.80770  Biso   1.000  C
  H137     1.0000 0.29040  0.89770  0.78520  Biso   1.000  H
  C229     1.0000 0.25280  0.86290  0.82910  Biso   1.000  C
  H138     1.0000 0.22520  0.87730  0.82140  Biso   1.000  H
  N137     1.0000 0.37311  0.85762  0.80193  Biso   1.000  N
  O92      1.0000 0.46270  0.73700  0.63900  Biso   1.000  O
  C230     1.0000 0.47590  0.74570  0.65100  Biso   1.000  C
  N138     1.0000 0.20560  0.96230  0.82450  Biso   1.000  N
  O93      1.0000 0.96217  0.58630  0.67971  Biso   1.000  O
  C231     1.0000 0.97630  0.63080  0.81060  Biso   1.000  C
  H139     1.0000 0.95770  0.63890  0.83540  Biso   1.000  H
  N139     1.0000 0.96099  0.61671  0.76788  Biso   1.000  N
  C232     1.0000 0.82960  0.64680  0.68040  Biso   1.000  C
  C233     1.0000 0.79050  0.62510  0.69230  Biso   1.000  C
  H140     1.0000 0.79040  0.60230  0.71480  Biso   1.000  H
  C234     1.0000 0.75280  0.63710  0.67090  Biso   1.000  C
  H141     1.0000 0.72520  0.62270  0.67860  Biso   1.000  H
  N140     1.0000 0.87311  0.64238  0.69807  Biso   1.000  N
  O94      1.0000 0.96270  0.76300  0.86100  Biso   1.000  O
  C235     1.0000 0.97590  0.75430  0.84900  Biso   1.000  C
  N141     1.0000 0.70560  0.53770  0.67550  Biso   1.000  N
  O95      1.0000 0.46217  0.08630  0.17971  Biso   1.000  O
  C236     1.0000 0.47630  0.13080  0.31060  Biso   1.000  C
  H142     1.0000 0.45770  0.13890  0.33540  Biso   1.000  H
  N142     1.0000 0.46099  0.11671  0.26788  Biso   1.000  N
  C237     1.0000 0.32960  0.14680  0.18040  Biso   1.000  C
  C238     1.0000 0.29050  0.12510  0.19230  Biso   1.000  C
  H143     1.0000 0.29040  0.10230  0.21480  Biso   1.000  H
  C239     1.0000 0.25280  0.13710  0.17090  Biso   1.000  C
  H144     1.0000 0.22520  0.12270  0.17860  Biso   1.000  H
  N143     1.0000 0.37311  0.14238  0.19807  Biso   1.000  N
  O96      1.0000 0.46270  0.26300  0.36100  Biso   1.000  O
  C240     1.0000 0.47590  0.25430  0.34900  Biso   1.000  C
  N144     1.0000 0.20560  0.03770  0.17550  Biso   1.000  N
  O97      1.0000 0.67971  0.58630  0.96217  Biso   1.000  O
  C241     1.0000 0.81060  0.63080  0.97630  Biso   1.000  C
  H145     1.0000 0.83540  0.63890  0.95770  Biso   1.000  H
  N145     1.0000 0.76788  0.61671  0.96099  Biso   1.000  N
  C242     1.0000 0.68040  0.64680  0.82960  Biso   1.000  C
  C243     1.0000 0.69230  0.62510  0.79050  Biso   1.000  C
  H146     1.0000 0.71480  0.60230  0.79040  Biso   1.000  H
  C244     1.0000 0.67090  0.63710  0.75280  Biso   1.000  C
  H147     1.0000 0.67860  0.62270  0.72520  Biso   1.000  H
  N146     1.0000 0.69807  0.64238  0.87311  Biso   1.000  N
  O98      1.0000 0.86100  0.76300  0.96270  Biso   1.000  O
  C245     1.0000 0.84900  0.75430  0.97590  Biso   1.000  C
  N147     1.0000 0.67550  0.53770  0.70560  Biso   1.000  N
  O99      1.0000 0.17971  0.08630  0.46217  Biso   1.000  O
  C246     1.0000 0.31060  0.13080  0.47630  Biso   1.000  C
  H148     1.0000 0.33540  0.13890  0.45770  Biso   1.000  H
  N148     1.0000 0.26788  0.11671  0.46099  Biso   1.000  N
  C247     1.0000 0.18040  0.14680  0.32960  Biso   1.000  C
  C248     1.0000 0.19230  0.12510  0.29050  Biso   1.000  C
  H149     1.0000 0.21480  0.10230  0.29040  Biso   1.000  H
  C249     1.0000 0.17090  0.13710  0.25280  Biso   1.000  C
  H150     1.0000 0.17860  0.12270  0.22520  Biso   1.000  H
  N149     1.0000 0.19807  0.14238  0.37311  Biso   1.000  N
  O100     1.0000 0.36100  0.26300  0.46270  Biso   1.000  O
  C250     1.0000 0.34900  0.25430  0.47590  Biso   1.000  C
  N150     1.0000 0.17550  0.03770  0.20560  Biso   1.000  N
  O101     1.0000 0.32029  0.41370  0.96217  Biso   1.000  O
  C251     1.0000 0.18940  0.36920  0.97630  Biso   1.000  C
  H151     1.0000 0.16460  0.36110  0.95770  Biso   1.000  H
  N151     1.0000 0.23212  0.38329  0.96099  Biso   1.000  N
  C252     1.0000 0.31960  0.35320  0.82960  Biso   1.000  C
  C253     1.0000 0.30770  0.37490  0.79050  Biso   1.000  C
  H152     1.0000 0.28520  0.39770  0.79040  Biso   1.000  H
  C254     1.0000 0.32910  0.36290  0.75280  Biso   1.000  C
  H153     1.0000 0.32140  0.37730  0.72520  Biso   1.000  H
  N152     1.0000 0.30193  0.35762  0.87311  Biso   1.000  N
  O102     1.0000 0.13900  0.23700  0.96270  Biso   1.000  O
  C255     1.0000 0.15100  0.24570  0.97590  Biso   1.000  C
  N153     1.0000 0.32450  0.46230  0.70560  Biso   1.000  N
  O103     1.0000 0.82029  0.91370  0.46217  Biso   1.000  O
  C256     1.0000 0.68940  0.86920  0.47630  Biso   1.000  C
  H154     1.0000 0.66460  0.86110  0.45770  Biso   1.000  H
  N154     1.0000 0.73212  0.88329  0.46099  Biso   1.000  N
  C257     1.0000 0.81960  0.85320  0.32960  Biso   1.000  C
  C258     1.0000 0.80770  0.87490  0.29050  Biso   1.000  C
  H155     1.0000 0.78520  0.89770  0.29040  Biso   1.000  H
  C259     1.0000 0.82910  0.86290  0.25280  Biso   1.000  C
  H156     1.0000 0.82140  0.87730  0.22520  Biso   1.000  H
  N155     1.0000 0.80193  0.85762  0.37311  Biso   1.000  N
  O104     1.0000 0.63900  0.73700  0.46270  Biso   1.000  O
  C260     1.0000 0.65100  0.74570  0.47590  Biso   1.000  C
  N156     1.0000 0.82450  0.96230  0.20560  Biso   1.000  N
  O105     1.0000 0.32029  0.58630  0.03783  Biso   1.000  O
  C261     1.0000 0.18940  0.63080  0.02370  Biso   1.000  C
  H157     1.0000 0.16460  0.63890  0.04230  Biso   1.000  H
  N157     1.0000 0.23212  0.61671  0.03901  Biso   1.000  N
  C262     1.0000 0.31960  0.64680  0.17040  Biso   1.000  C
  C263     1.0000 0.30770  0.62510  0.20950  Biso   1.000  C
  H158     1.0000 0.28520  0.60230  0.20960  Biso   1.000  H
  C264     1.0000 0.32910  0.63710  0.24720  Biso   1.000  C
  H159     1.0000 0.32140  0.62270  0.27480  Biso   1.000  H
  N158     1.0000 0.30193  0.64238  0.12689  Biso   1.000  N
  O106     1.0000 0.13900  0.76300  0.03730  Biso   1.000  O
  C265     1.0000 0.15100  0.75430  0.02410  Biso   1.000  C
  N159     1.0000 0.32450  0.53770  0.29440  Biso   1.000  N
  O107     1.0000 0.82029  0.08630  0.53783  Biso   1.000  O
  C266     1.0000 0.68940  0.13080  0.52370  Biso   1.000  C
  H160     1.0000 0.66460  0.13890  0.54230  Biso   1.000  H
  N160     1.0000 0.73212  0.11671  0.53901  Biso   1.000  N
  C267     1.0000 0.81960  0.14680  0.67040  Biso   1.000  C
  C268     1.0000 0.80770  0.12510  0.70950  Biso   1.000  C
  H161     1.0000 0.78520  0.10230  0.70960  Biso   1.000  H
  C269     1.0000 0.82910  0.13710  0.74720  Biso   1.000  C
  H162     1.0000 0.82140  0.12270  0.77480  Biso   1.000  H
  N161     1.0000 0.80193  0.14238  0.62689  Biso   1.000  N
  O108     1.0000 0.63900  0.26300  0.53730  Biso   1.000  O
  C270     1.0000 0.65100  0.25430  0.52410  Biso   1.000  C
  N162     1.0000 0.82450  0.03770  0.79440  Biso   1.000  N
  O109     1.0000 0.67971  0.41370  0.03783  Biso   1.000  O
  C271     1.0000 0.81060  0.36920  0.02370  Biso   1.000  C
  H163     1.0000 0.83540  0.36110  0.04230  Biso   1.000  H
  N163     1.0000 0.76788  0.38329  0.03901  Biso   1.000  N
  C272     1.0000 0.68040  0.35320  0.17040  Biso   1.000  C
  C273     1.0000 0.69230  0.37490  0.20950  Biso   1.000  C
  H164     1.0000 0.71480  0.39770  0.20960  Biso   1.000  H
  C274     1.0000 0.67090  0.36290  0.24720  Biso   1.000  C
  H165     1.0000 0.67860  0.37730  0.27480  Biso   1.000  H
  N164     1.0000 0.69807  0.35762  0.12689  Biso   1.000  N
  O110     1.0000 0.86100  0.23700  0.03730  Biso   1.000  O
  C275     1.0000 0.84900  0.24570  0.02410  Biso   1.000  C
  N165     1.0000 0.67550  0.46230  0.29440  Biso   1.000  N
  O111     1.0000 0.17971  0.91370  0.53783  Biso   1.000  O
  C276     1.0000 0.31060  0.86920  0.52370  Biso   1.000  C
  H166     1.0000 0.33540  0.86110  0.54230  Biso   1.000  H
  N166     1.0000 0.26788  0.88329  0.53901  Biso   1.000  N
  C277     1.0000 0.18040  0.85320  0.67040  Biso   1.000  C
  C278     1.0000 0.19230  0.87490  0.70950  Biso   1.000  C
  H167     1.0000 0.21480  0.89770  0.70960  Biso   1.000  H
  C279     1.0000 0.17090  0.86290  0.74720  Biso   1.000  C
  H168     1.0000 0.17860  0.87730  0.77480  Biso   1.000  H
  N167     1.0000 0.19807  0.85762  0.62689  Biso   1.000  N
  O112     1.0000 0.36100  0.73700  0.53730  Biso   1.000  O
  C280     1.0000 0.34900  0.74570  0.52410  Biso   1.000  C
  N168     1.0000 0.17550  0.96230  0.79440  Biso   1.000  N
  O113     1.0000 0.96217  0.67971  0.58630  Biso   1.000  O
  C281     1.0000 0.97630  0.81060  0.63080  Biso   1.000  C
  H169     1.0000 0.95770  0.83540  0.63890  Biso   1.000  H
  N169     1.0000 0.96099  0.76788  0.61671  Biso   1.000  N
  C282     1.0000 0.82960  0.68040  0.64680  Biso   1.000  C
  C283     1.0000 0.79050  0.69230  0.62510  Biso   1.000  C
  H170     1.0000 0.79040  0.71480  0.60230  Biso   1.000  H
  C284     1.0000 0.75280  0.67090  0.63710  Biso   1.000  C
  H171     1.0000 0.72520  0.67860  0.62270  Biso   1.000  H
  N170     1.0000 0.87311  0.69807  0.64238  Biso   1.000  N
  O114     1.0000 0.96270  0.86100  0.76300  Biso   1.000  O
  C285     1.0000 0.97590  0.84900  0.75430  Biso   1.000  C
  N171     1.0000 0.70560  0.67550  0.53770  Biso   1.000  N
  O115     1.0000 0.46217  0.17971  0.08630  Biso   1.000  O
  C286     1.0000 0.47630  0.31060  0.13080  Biso   1.000  C
  H172     1.0000 0.45770  0.33540  0.13890  Biso   1.000  H
  N172     1.0000 0.46099  0.26788  0.11671  Biso   1.000  N
  C287     1.0000 0.32960  0.18040  0.14680  Biso   1.000  C
  C288     1.0000 0.29050  0.19230  0.12510  Biso   1.000  C
  H173     1.0000 0.29040  0.21480  0.10230  Biso   1.000  H
  C289     1.0000 0.25280  0.17090  0.13710  Biso   1.000  C
  H174     1.0000 0.22520  0.17860  0.12270  Biso   1.000  H
  N173     1.0000 0.37311  0.19807  0.14238  Biso   1.000  N
  O116     1.0000 0.46270  0.36100  0.26300  Biso   1.000  O
  C290     1.0000 0.47590  0.34900  0.25430  Biso   1.000  C
  N174     1.0000 0.20560  0.17550  0.03770  Biso   1.000  N
  O117     1.0000 0.96217  0.32029  0.41370  Biso   1.000  O
  C291     1.0000 0.97630  0.18940  0.36920  Biso   1.000  C
  H175     1.0000 0.95770  0.16460  0.36110  Biso   1.000  H
  N175     1.0000 0.96099  0.23212  0.38329  Biso   1.000  N
  C292     1.0000 0.82960  0.31960  0.35320  Biso   1.000  C
  C293     1.0000 0.79050  0.30770  0.37490  Biso   1.000  C
  H176     1.0000 0.79040  0.28520  0.39770  Biso   1.000  H
  C294     1.0000 0.75280  0.32910  0.36290  Biso   1.000  C
  H177     1.0000 0.72520  0.32140  0.37730  Biso   1.000  H
  N176     1.0000 0.87311  0.30193  0.35762  Biso   1.000  N
  O118     1.0000 0.96270  0.13900  0.23700  Biso   1.000  O
  C295     1.0000 0.97590  0.15100  0.24570  Biso   1.000  C
  N177     1.0000 0.70560  0.32450  0.46230  Biso   1.000  N
  O119     1.0000 0.46217  0.82029  0.91370  Biso   1.000  O
  C296     1.0000 0.47630  0.68940  0.86920  Biso   1.000  C
  H178     1.0000 0.45770  0.66460  0.86110  Biso   1.000  H
  N178     1.0000 0.46099  0.73212  0.88329  Biso   1.000  N
  C297     1.0000 0.32960  0.81960  0.85320  Biso   1.000  C
  C298     1.0000 0.29050  0.80770  0.87490  Biso   1.000  C
  H179     1.0000 0.29040  0.78520  0.89770  Biso   1.000  H
  C299     1.0000 0.25280  0.82910  0.86290  Biso   1.000  C
  H180     1.0000 0.22520  0.82140  0.87730  Biso   1.000  H
  N179     1.0000 0.37311  0.80193  0.85762  Biso   1.000  N
  O120     1.0000 0.46270  0.63900  0.73700  Biso   1.000  O
  C300     1.0000 0.47590  0.65100  0.74570  Biso   1.000  C
  N180     1.0000 0.20560  0.82450  0.96230  Biso   1.000  N
  O121     1.0000 0.03783  0.32029  0.58630  Biso   1.000  O
  C301     1.0000 0.02370  0.18940  0.63080  Biso   1.000  C
  H181     1.0000 0.04230  0.16460  0.63890  Biso   1.000  H
  N181     1.0000 0.03901  0.23212  0.61671  Biso   1.000  N
  C302     1.0000 0.17040  0.31960  0.64680  Biso   1.000  C
  C303     1.0000 0.20950  0.30770  0.62510  Biso   1.000  C
  H182     1.0000 0.20960  0.28520  0.60230  Biso   1.000  H
  C304     1.0000 0.24720  0.32910  0.63710  Biso   1.000  C
  H183     1.0000 0.27480  0.32140  0.62270  Biso   1.000  H
  N182     1.0000 0.12689  0.30193  0.64238  Biso   1.000  N
  O122     1.0000 0.03730  0.13900  0.76300  Biso   1.000  O
  C305     1.0000 0.02410  0.15100  0.75430  Biso   1.000  C
  N183     1.0000 0.29440  0.32450  0.53770  Biso   1.000  N
  O123     1.0000 0.53783  0.82029  0.08630  Biso   1.000  O
  C306     1.0000 0.52370  0.68940  0.13080  Biso   1.000  C
  H184     1.0000 0.54230  0.66460  0.13890  Biso   1.000  H
  N184     1.0000 0.53901  0.73212  0.11671  Biso   1.000  N
  C307     1.0000 0.67040  0.81960  0.14680  Biso   1.000  C
  C308     1.0000 0.70950  0.80770  0.12510  Biso   1.000  C
  H185     1.0000 0.70960  0.78520  0.10230  Biso   1.000  H
  C309     1.0000 0.74720  0.82910  0.13710  Biso   1.000  C
  H186     1.0000 0.77480  0.82140  0.12270  Biso   1.000  H
  N185     1.0000 0.62689  0.80193  0.14238  Biso   1.000  N
  O124     1.0000 0.53730  0.63900  0.26300  Biso   1.000  O
  C310     1.0000 0.52410  0.65100  0.25430  Biso   1.000  C
  N186     1.0000 0.79440  0.82450  0.03770  Biso   1.000  N
  O125     1.0000 0.03783  0.67971  0.41370  Biso   1.000  O
  C311     1.0000 0.02370  0.81060  0.36920  Biso   1.000  C
  H187     1.0000 0.04230  0.83540  0.36110  Biso   1.000  H
  N187     1.0000 0.03901  0.76788  0.38329  Biso   1.000  N
  C312     1.0000 0.17040  0.68040  0.35320  Biso   1.000  C
  C313     1.0000 0.20950  0.69230  0.37490  Biso   1.000  C
  H188     1.0000 0.20960  0.71480  0.39770  Biso   1.000  H
  C314     1.0000 0.24720  0.67090  0.36290  Biso   1.000  C
  H189     1.0000 0.27480  0.67860  0.37730  Biso   1.000  H
  N188     1.0000 0.12689  0.69807  0.35762  Biso   1.000  N
  O126     1.0000 0.03730  0.86100  0.23700  Biso   1.000  O
  C315     1.0000 0.02410  0.84900  0.24570  Biso   1.000  C
  N189     1.0000 0.29440  0.67550  0.46230  Biso   1.000  N
  O127     1.0000 0.53783  0.17971  0.91370  Biso   1.000  O
  C316     1.0000 0.52370  0.31060  0.86920  Biso   1.000  C
  H190     1.0000 0.54230  0.33540  0.86110  Biso   1.000  H
  N190     1.0000 0.53901  0.26788  0.88329  Biso   1.000  N
  C317     1.0000 0.67040  0.18040  0.85320  Biso   1.000  C
  C318     1.0000 0.70950  0.19230  0.87490  Biso   1.000  C
  H191     1.0000 0.70960  0.21480  0.89770  Biso   1.000  H
  C319     1.0000 0.74720  0.17090  0.86290  Biso   1.000  C
  H192     1.0000 0.77480  0.17860  0.87730  Biso   1.000  H
  N191     1.0000 0.62689  0.19807  0.85762  Biso   1.000  N
  O128     1.0000 0.53730  0.36100  0.73700  Biso   1.000  O
  C320     1.0000 0.52410  0.34900  0.74570  Biso   1.000  C
  N192     1.0000 0.79440  0.17550  0.96230  Biso   1.000  N
  O129     1.0000 0.58630  0.96217  0.67971  Biso   1.000  O
  C321     1.0000 0.63080  0.97630  0.81060  Biso   1.000  C
  H193     1.0000 0.63890  0.95770  0.83540  Biso   1.000  H
  N193     1.0000 0.61671  0.96099  0.76788  Biso   1.000  N
  C322     1.0000 0.64680  0.82960  0.68040  Biso   1.000  C
  C323     1.0000 0.62510  0.79050  0.69230  Biso   1.000  C
  H194     1.0000 0.60230  0.79040  0.71480  Biso   1.000  H
  C324     1.0000 0.63710  0.75280  0.67090  Biso   1.000  C
  H195     1.0000 0.62270  0.72520  0.67860  Biso   1.000  H
  N194     1.0000 0.64238  0.87311  0.69807  Biso   1.000  N
  O130     1.0000 0.76300  0.96270  0.86100  Biso   1.000  O
  C325     1.0000 0.75430  0.97590  0.84900  Biso   1.000  C
  N195     1.0000 0.53770  0.70560  0.67550  Biso   1.000  N
  O131     1.0000 0.08630  0.46217  0.17971  Biso   1.000  O
  C326     1.0000 0.13080  0.47630  0.31060  Biso   1.000  C
  H196     1.0000 0.13890  0.45770  0.33540  Biso   1.000  H
  N196     1.0000 0.11671  0.46099  0.26788  Biso   1.000  N
  C327     1.0000 0.14680  0.32960  0.18040  Biso   1.000  C
  C328     1.0000 0.12510  0.29050  0.19230  Biso   1.000  C
  H197     1.0000 0.10230  0.29040  0.21480  Biso   1.000  H
  C329     1.0000 0.13710  0.25280  0.17090  Biso   1.000  C
  H198     1.0000 0.12270  0.22520  0.17860  Biso   1.000  H
  N197     1.0000 0.14238  0.37311  0.19807  Biso   1.000  N
  O132     1.0000 0.26300  0.46270  0.36100  Biso   1.000  O
  C330     1.0000 0.25430  0.47590  0.34900  Biso   1.000  C
  N198     1.0000 0.03770  0.20560  0.17550  Biso   1.000  N
  O133     1.0000 0.41370  0.96217  0.32029  Biso   1.000  O
  C331     1.0000 0.36920  0.97630  0.18940  Biso   1.000  C
  H199     1.0000 0.36110  0.95770  0.16460  Biso   1.000  H
  N199     1.0000 0.38329  0.96099  0.23212  Biso   1.000  N
  C332     1.0000 0.35320  0.82960  0.31960  Biso   1.000  C
  C333     1.0000 0.37490  0.79050  0.30770  Biso   1.000  C
  H200     1.0000 0.39770  0.79040  0.28520  Biso   1.000  H
  C334     1.0000 0.36290  0.75280  0.32910  Biso   1.000  C
  H201     1.0000 0.37730  0.72520  0.32140  Biso   1.000  H
  N200     1.0000 0.35762  0.87311  0.30193  Biso   1.000  N
  O134     1.0000 0.23700  0.96270  0.13900  Biso   1.000  O
  C335     1.0000 0.24570  0.97590  0.15100  Biso   1.000  C
  N201     1.0000 0.46230  0.70560  0.32450  Biso   1.000  N
  O135     1.0000 0.91370  0.46217  0.82029  Biso   1.000  O
  C336     1.0000 0.86920  0.47630  0.68940  Biso   1.000  C
  H202     1.0000 0.86110  0.45770  0.66460  Biso   1.000  H
  N202     1.0000 0.88329  0.46099  0.73212  Biso   1.000  N
  C337     1.0000 0.85320  0.32960  0.81960  Biso   1.000  C
  C338     1.0000 0.87490  0.29050  0.80770  Biso   1.000  C
  H203     1.0000 0.89770  0.29040  0.78520  Biso   1.000  H
  C339     1.0000 0.86290  0.25280  0.82910  Biso   1.000  C
  H204     1.0000 0.87730  0.22520  0.82140  Biso   1.000  H
  N203     1.0000 0.85762  0.37311  0.80193  Biso   1.000  N
  O136     1.0000 0.73700  0.46270  0.63900  Biso   1.000  O
  C340     1.0000 0.74570  0.47590  0.65100  Biso   1.000  C
  N204     1.0000 0.96230  0.20560  0.82450  Biso   1.000  N
  O137     1.0000 0.58630  0.03783  0.32029  Biso   1.000  O
  C341     1.0000 0.63080  0.02370  0.18940  Biso   1.000  C
  H205     1.0000 0.63890  0.04230  0.16460  Biso   1.000  H
  N205     1.0000 0.61671  0.03901  0.23212  Biso   1.000  N
  C342     1.0000 0.64680  0.17040  0.31960  Biso   1.000  C
  C343     1.0000 0.62510  0.20950  0.30770  Biso   1.000  C
  H206     1.0000 0.60230  0.20960  0.28520  Biso   1.000  H
  C344     1.0000 0.63710  0.24720  0.32910  Biso   1.000  C
  H207     1.0000 0.62270  0.27480  0.32140  Biso   1.000  H
  N206     1.0000 0.64238  0.12689  0.30193  Biso   1.000  N
  O138     1.0000 0.76300  0.03730  0.13900  Biso   1.000  O
  C345     1.0000 0.75430  0.02410  0.15100  Biso   1.000  C
  N207     1.0000 0.53770  0.29440  0.32450  Biso   1.000  N
  O139     1.0000 0.08630  0.53783  0.82029  Biso   1.000  O
  C346     1.0000 0.13080  0.52370  0.68940  Biso   1.000  C
  H208     1.0000 0.13890  0.54230  0.66460  Biso   1.000  H
  N208     1.0000 0.11671  0.53901  0.73212  Biso   1.000  N
  C347     1.0000 0.14680  0.67040  0.81960  Biso   1.000  C
  C348     1.0000 0.12510  0.70950  0.80770  Biso   1.000  C
  H209     1.0000 0.10230  0.70960  0.78520  Biso   1.000  H
  C349     1.0000 0.13710  0.74720  0.82910  Biso   1.000  C
  H210     1.0000 0.12270  0.77480  0.82140  Biso   1.000  H
  N209     1.0000 0.14238  0.62689  0.80193  Biso   1.000  N
  O140     1.0000 0.26300  0.53730  0.63900  Biso   1.000  O
  C350     1.0000 0.25430  0.52410  0.65100  Biso   1.000  C
  N210     1.0000 0.03770  0.79440  0.82450  Biso   1.000  N
  O141     1.0000 0.41370  0.03783  0.67971  Biso   1.000  O
  C351     1.0000 0.36920  0.02370  0.81060  Biso   1.000  C
  H211     1.0000 0.36110  0.04230  0.83540  Biso   1.000  H
  N211     1.0000 0.38329  0.03901  0.76788  Biso   1.000  N
  C352     1.0000 0.35320  0.17040  0.68040  Biso   1.000  C
  C353     1.0000 0.37490  0.20950  0.69230  Biso   1.000  C
  H212     1.0000 0.39770  0.20960  0.71480  Biso   1.000  H
  C354     1.0000 0.36290  0.24720  0.67090  Biso   1.000  C
  H213     1.0000 0.37730  0.27480  0.67860  Biso   1.000  H
  N212     1.0000 0.35762  0.12689  0.69807  Biso   1.000  N
  O142     1.0000 0.23700  0.03730  0.86100  Biso   1.000  O
  C355     1.0000 0.24570  0.02410  0.84900  Biso   1.000  C
  N213     1.0000 0.46230  0.29440  0.67550  Biso   1.000  N
  O143     1.0000 0.91370  0.53783  0.17971  Biso   1.000  O
  C356     1.0000 0.86920  0.52370  0.31060  Biso   1.000  C
  H214     1.0000 0.86110  0.54230  0.33540  Biso   1.000  H
  N214     1.0000 0.88329  0.53901  0.26788  Biso   1.000  N
  C357     1.0000 0.85320  0.67040  0.18040  Biso   1.000  C
  C358     1.0000 0.87490  0.70950  0.19230  Biso   1.000  C
  H215     1.0000 0.89770  0.70960  0.21480  Biso   1.000  H
  C359     1.0000 0.86290  0.74720  0.17090  Biso   1.000  C
  H216     1.0000 0.87730  0.77480  0.17860  Biso   1.000  H
  N215     1.0000 0.85762  0.62689  0.19807  Biso   1.000  N
  O144     1.0000 0.73700  0.53730  0.36100  Biso   1.000  O
  C360     1.0000 0.74570  0.52410  0.34900  Biso   1.000  C
  N216     1.0000 0.96230  0.79440  0.17550  Biso   1.000  N
  O145     1.0000 0.58630  0.67971  0.03783  Biso   1.000  O
  C361     1.0000 0.63080  0.81060  0.02370  Biso   1.000  C
  H217     1.0000 0.63890  0.83540  0.04230  Biso   1.000  H
  N217     1.0000 0.61671  0.76788  0.03901  Biso   1.000  N
  C362     1.0000 0.64680  0.68040  0.17040  Biso   1.000  C
  C363     1.0000 0.62510  0.69230  0.20950  Biso   1.000  C
  H218     1.0000 0.60230  0.71480  0.20960  Biso   1.000  H
  C364     1.0000 0.63710  0.67090  0.24720  Biso   1.000  C
  H219     1.0000 0.62270  0.67860  0.27480  Biso   1.000  H
  N218     1.0000 0.64238  0.69807  0.12689  Biso   1.000  N
  O146     1.0000 0.76300  0.86100  0.03730  Biso   1.000  O
  C365     1.0000 0.75430  0.84900  0.02410  Biso   1.000  C
  N219     1.0000 0.53770  0.67550  0.29440  Biso   1.000  N
  O147     1.0000 0.08630  0.17971  0.53783  Biso   1.000  O
  C366     1.0000 0.13080  0.31060  0.52370  Biso   1.000  C
  H220     1.0000 0.13890  0.33540  0.54230  Biso   1.000  H
  N220     1.0000 0.11671  0.26788  0.53901  Biso   1.000  N
  C367     1.0000 0.14680  0.18040  0.67040  Biso   1.000  C
  C368     1.0000 0.12510  0.19230  0.70950  Biso   1.000  C
  H221     1.0000 0.10230  0.21480  0.70960  Biso   1.000  H
  C369     1.0000 0.13710  0.17090  0.74720  Biso   1.000  C
  H222     1.0000 0.12270  0.17860  0.77480  Biso   1.000  H
  N221     1.0000 0.14238  0.19807  0.62689  Biso   1.000  N
  O148     1.0000 0.26300  0.36100  0.53730  Biso   1.000  O
  C370     1.0000 0.25430  0.34900  0.52410  Biso   1.000  C
  N222     1.0000 0.03770  0.17550  0.79440  Biso   1.000  N
  O149     1.0000 0.41370  0.32029  0.03783  Biso   1.000  O
  C371     1.0000 0.36920  0.18940  0.02370  Biso   1.000  C
  H223     1.0000 0.36110  0.16460  0.04230  Biso   1.000  H
  N223     1.0000 0.38329  0.23212  0.03901  Biso   1.000  N
  C372     1.0000 0.35320  0.31960  0.17040  Biso   1.000  C
  C373     1.0000 0.37490  0.30770  0.20950  Biso   1.000  C
  H224     1.0000 0.39770  0.28520  0.20960  Biso   1.000  H
  C374     1.0000 0.36290  0.32910  0.24720  Biso   1.000  C
  H225     1.0000 0.37730  0.32140  0.27480  Biso   1.000  H
  N224     1.0000 0.35762  0.30193  0.12689  Biso   1.000  N
  O150     1.0000 0.23700  0.13900  0.03730  Biso   1.000  O
  C375     1.0000 0.24570  0.15100  0.02410  Biso   1.000  C
  N225     1.0000 0.46230  0.32450  0.29440  Biso   1.000  N
  O151     1.0000 0.91370  0.82029  0.53783  Biso   1.000  O
  C376     1.0000 0.86920  0.68940  0.52370  Biso   1.000  C
  H226     1.0000 0.86110  0.66460  0.54230  Biso   1.000  H
  N226     1.0000 0.88329  0.73212  0.53901  Biso   1.000  N
  C377     1.0000 0.85320  0.81960  0.67040  Biso   1.000  C
  C378     1.0000 0.87490  0.80770  0.70950  Biso   1.000  C
  H227     1.0000 0.89770  0.78520  0.70960  Biso   1.000  H
  C379     1.0000 0.86290  0.82910  0.74720  Biso   1.000  C
  H228     1.0000 0.87730  0.82140  0.77480  Biso   1.000  H
  N227     1.0000 0.85762  0.80193  0.62689  Biso   1.000  N
  O152     1.0000 0.73700  0.63900  0.53730  Biso   1.000  O
  C380     1.0000 0.74570  0.65100  0.52410  Biso   1.000  C
  N228     1.0000 0.96230  0.82450  0.79440  Biso   1.000  N
  O153     1.0000 0.58630  0.32029  0.96217  Biso   1.000  O
  C381     1.0000 0.63080  0.18940  0.97630  Biso   1.000  C
  H229     1.0000 0.63890  0.16460  0.95770  Biso   1.000  H
  N229     1.0000 0.61671  0.23212  0.96099  Biso   1.000  N
  C382     1.0000 0.64680  0.31960  0.82960  Biso   1.000  C
  C383     1.0000 0.62510  0.30770  0.79050  Biso   1.000  C
  H230     1.0000 0.60230  0.28520  0.79040  Biso   1.000  H
  C384     1.0000 0.63710  0.32910  0.75280  Biso   1.000  C
  H231     1.0000 0.62270  0.32140  0.72520  Biso   1.000  H
  N230     1.0000 0.64238  0.30193  0.87311  Biso   1.000  N
  O154     1.0000 0.76300  0.13900  0.96270  Biso   1.000  O
  C385     1.0000 0.75430  0.15100  0.97590  Biso   1.000  C
  N231     1.0000 0.53770  0.32450  0.70560  Biso   1.000  N
  O155     1.0000 0.08630  0.82029  0.46217  Biso   1.000  O
  C386     1.0000 0.13080  0.68940  0.47630  Biso   1.000  C
  H232     1.0000 0.13890  0.66460  0.45770  Biso   1.000  H
  N232     1.0000 0.11671  0.73212  0.46099  Biso   1.000  N
  C387     1.0000 0.14680  0.81960  0.32960  Biso   1.000  C
  C388     1.0000 0.12510  0.80770  0.29050  Biso   1.000  C
  H233     1.0000 0.10230  0.78520  0.29040  Biso   1.000  H
  C389     1.0000 0.13710  0.82910  0.25280  Biso   1.000  C
  H234     1.0000 0.12270  0.82140  0.22520  Biso   1.000  H
  N233     1.0000 0.14238  0.80193  0.37311  Biso   1.000  N
  O156     1.0000 0.26300  0.63900  0.46270  Biso   1.000  O
  C390     1.0000 0.25430  0.65100  0.47590  Biso   1.000  C
  N234     1.0000 0.03770  0.82450  0.20560  Biso   1.000  N
  O157     1.0000 0.41370  0.67971  0.96217  Biso   1.000  O
  C391     1.0000 0.36920  0.81060  0.97630  Biso   1.000  C
  H235     1.0000 0.36110  0.83540  0.95770  Biso   1.000  H
  N235     1.0000 0.38329  0.76788  0.96099  Biso   1.000  N
  C392     1.0000 0.35320  0.68040  0.82960  Biso   1.000  C
  C393     1.0000 0.37490  0.69230  0.79050  Biso   1.000  C
  H236     1.0000 0.39770  0.71480  0.79040  Biso   1.000  H
  C394     1.0000 0.36290  0.67090  0.75280  Biso   1.000  C
  H237     1.0000 0.37730  0.67860  0.72520  Biso   1.000  H
  N236     1.0000 0.35762  0.69807  0.87311  Biso   1.000  N
  O158     1.0000 0.23700  0.86100  0.96270  Biso   1.000  O
  C395     1.0000 0.24570  0.84900  0.97590  Biso   1.000  C
  N237     1.0000 0.46230  0.67550  0.70560  Biso   1.000  N
  O159     1.0000 0.91370  0.17971  0.46217  Biso   1.000  O
  C396     1.0000 0.86920  0.31060  0.47630  Biso   1.000  C
  H238     1.0000 0.86110  0.33540  0.45770  Biso   1.000  H
  N238     1.0000 0.88329  0.26788  0.46099  Biso   1.000  N
  C397     1.0000 0.85320  0.18040  0.32960  Biso   1.000  C
  C398     1.0000 0.87490  0.19230  0.29050  Biso   1.000  C
  H239     1.0000 0.89770  0.21480  0.29040  Biso   1.000  H
  C399     1.0000 0.86290  0.17090  0.25280  Biso   1.000  C
  H240     1.0000 0.87730  0.17860  0.22520  Biso   1.000  H
  N239     1.0000 0.85762  0.19807  0.37311  Biso   1.000  N
  O160     1.0000 0.73700  0.36100  0.46270  Biso   1.000  O
  C400     1.0000 0.74570  0.34900  0.47590  Biso   1.000  C
  N240     1.0000 0.96230  0.17550  0.20560  Biso   1.000  N
  O161     1.0000 0.67971  0.96217  0.41370  Biso   1.000  O
  C401     1.0000 0.81060  0.97630  0.36920  Biso   1.000  C
  H241     1.0000 0.83540  0.95770  0.36110  Biso   1.000  H
  N241     1.0000 0.76788  0.96099  0.38329  Biso   1.000  N
  C402     1.0000 0.68040  0.82960  0.35320  Biso   1.000  C
  C403     1.0000 0.69230  0.79050  0.37490  Biso   1.000  C
  H242     1.0000 0.71480  0.79040  0.39770  Biso   1.000  H
  C404     1.0000 0.67090  0.75280  0.36290  Biso   1.000  C
  H243     1.0000 0.67860  0.72520  0.37730  Biso   1.000  H
  N242     1.0000 0.69807  0.87311  0.35762  Biso   1.000  N
  O162     1.0000 0.86100  0.96270  0.23700  Biso   1.000  O
  C405     1.0000 0.84900  0.97590  0.24570  Biso   1.000  C
  N243     1.0000 0.67550  0.70560  0.46230  Biso   1.000  N
  O163     1.0000 0.17971  0.46217  0.91370  Biso   1.000  O
  C406     1.0000 0.31060  0.47630  0.86920  Biso   1.000  C
  H244     1.0000 0.33540  0.45770  0.86110  Biso   1.000  H
  N244     1.0000 0.26788  0.46099  0.88329  Biso   1.000  N
  C407     1.0000 0.18040  0.32960  0.85320  Biso   1.000  C
  C408     1.0000 0.19230  0.29050  0.87490  Biso   1.000  C
  H245     1.0000 0.21480  0.29040  0.89770  Biso   1.000  H
  C409     1.0000 0.17090  0.25280  0.86290  Biso   1.000  C
  H246     1.0000 0.17860  0.22520  0.87730  Biso   1.000  H
  N245     1.0000 0.19807  0.37311  0.85762  Biso   1.000  N
  O164     1.0000 0.36100  0.46270  0.73700  Biso   1.000  O
  C410     1.0000 0.34900  0.47590  0.74570  Biso   1.000  C
  N246     1.0000 0.17550  0.20560  0.96230  Biso   1.000  N
  O165     1.0000 0.32029  0.96217  0.58630  Biso   1.000  O
  C411     1.0000 0.18940  0.97630  0.63080  Biso   1.000  C
  H247     1.0000 0.16460  0.95770  0.63890  Biso   1.000  H
  N247     1.0000 0.23212  0.96099  0.61671  Biso   1.000  N
  C412     1.0000 0.31960  0.82960  0.64680  Biso   1.000  C
  C413     1.0000 0.30770  0.79050  0.62510  Biso   1.000  C
  H248     1.0000 0.28520  0.79040  0.60230  Biso   1.000  H
  C414     1.0000 0.32910  0.75280  0.63710  Biso   1.000  C
  H249     1.0000 0.32140  0.72520  0.62270  Biso   1.000  H
  N248     1.0000 0.30193  0.87311  0.64238  Biso   1.000  N
  O166     1.0000 0.13900  0.96270  0.76300  Biso   1.000  O
  C415     1.0000 0.15100  0.97590  0.75430  Biso   1.000  C
  N249     1.0000 0.32450  0.70560  0.53770  Biso   1.000  N
  O167     1.0000 0.82029  0.46217  0.08630  Biso   1.000  O
  C416     1.0000 0.68940  0.47630  0.13080  Biso   1.000  C
  H250     1.0000 0.66460  0.45770  0.13890  Biso   1.000  H
  N250     1.0000 0.73212  0.46099  0.11671  Biso   1.000  N
  C417     1.0000 0.81960  0.32960  0.14680  Biso   1.000  C
  C418     1.0000 0.80770  0.29050  0.12510  Biso   1.000  C
  H251     1.0000 0.78520  0.29040  0.10230  Biso   1.000  H
  C419     1.0000 0.82910  0.25280  0.13710  Biso   1.000  C
  H252     1.0000 0.82140  0.22520  0.12270  Biso   1.000  H
  N251     1.0000 0.80193  0.37311  0.14238  Biso   1.000  N
  O168     1.0000 0.63900  0.46270  0.26300  Biso   1.000  O
  C420     1.0000 0.65100  0.47590  0.25430  Biso   1.000  C
  N252     1.0000 0.82450  0.20560  0.03770  Biso   1.000  N
  O169     1.0000 0.32029  0.03783  0.41370  Biso   1.000  O
  C421     1.0000 0.18940  0.02370  0.36920  Biso   1.000  C
  H253     1.0000 0.16460  0.04230  0.36110  Biso   1.000  H
  N253     1.0000 0.23212  0.03901  0.38329  Biso   1.000  N
  C422     1.0000 0.31960  0.17040  0.35320  Biso   1.000  C
  C423     1.0000 0.30770  0.20950  0.37490  Biso   1.000  C
  H254     1.0000 0.28520  0.20960  0.39770  Biso   1.000  H
  C424     1.0000 0.32910  0.24720  0.36290  Biso   1.000  C
  H255     1.0000 0.32140  0.27480  0.37730  Biso   1.000  H
  N254     1.0000 0.30193  0.12689  0.35762  Biso   1.000  N
  O170     1.0000 0.13900  0.03730  0.23700  Biso   1.000  O
  C425     1.0000 0.15100  0.02410  0.24570  Biso   1.000  C
  N255     1.0000 0.32450  0.29440  0.46230  Biso   1.000  N
  O171     1.0000 0.82029  0.53783  0.91370  Biso   1.000  O
  C426     1.0000 0.68940  0.52370  0.86920  Biso   1.000  C
  H256     1.0000 0.66460  0.54230  0.86110  Biso   1.000  H
  N256     1.0000 0.73212  0.53901  0.88329  Biso   1.000  N
  C427     1.0000 0.81960  0.67040  0.85320  Biso   1.000  C
  C428     1.0000 0.80770  0.70950  0.87490  Biso   1.000  C
  H257     1.0000 0.78520  0.70960  0.89770  Biso   1.000  H
  C429     1.0000 0.82910  0.74720  0.86290  Biso   1.000  C
  H258     1.0000 0.82140  0.77480  0.87730  Biso   1.000  H
  N257     1.0000 0.80193  0.62689  0.85762  Biso   1.000  N
  O172     1.0000 0.63900  0.53730  0.73700  Biso   1.000  O
  C430     1.0000 0.65100  0.52410  0.74570  Biso   1.000  C
  N258     1.0000 0.82450  0.79440  0.96230  Biso   1.000  N
  O173     1.0000 0.67971  0.03783  0.58630  Biso   1.000  O
  C431     1.0000 0.81060  0.02370  0.63080  Biso   1.000  C
  H259     1.0000 0.83540  0.04230  0.63890  Biso   1.000  H
  N259     1.0000 0.76788  0.03901  0.61671  Biso   1.000  N
  C432     1.0000 0.68040  0.17040  0.64680  Biso   1.000  C
  C433     1.0000 0.69230  0.20950  0.62510  Biso   1.000  C
  H260     1.0000 0.71480  0.20960  0.60230  Biso   1.000  H
  C434     1.0000 0.67090  0.24720  0.63710  Biso   1.000  C
  H261     1.0000 0.67860  0.27480  0.62270  Biso   1.000  H
  N260     1.0000 0.69807  0.12689  0.64238  Biso   1.000  N
  O174     1.0000 0.86100  0.03730  0.76300  Biso   1.000  O
  C435     1.0000 0.84900  0.02410  0.75430  Biso   1.000  C
  N261     1.0000 0.67550  0.29440  0.53770  Biso   1.000  N
  O175     1.0000 0.17971  0.53783  0.08630  Biso   1.000  O
  C436     1.0000 0.31060  0.52370  0.13080  Biso   1.000  C
  H262     1.0000 0.33540  0.54230  0.13890  Biso   1.000  H
  N262     1.0000 0.26788  0.53901  0.11671  Biso   1.000  N
  C437     1.0000 0.18040  0.67040  0.14680  Biso   1.000  C
  C438     1.0000 0.19230  0.70950  0.12510  Biso   1.000  C
  H263     1.0000 0.21480  0.70960  0.10230  Biso   1.000  H
  C439     1.0000 0.17090  0.74720  0.13710  Biso   1.000  C
  H264     1.0000 0.17860  0.77480  0.12270  Biso   1.000  H
  N263     1.0000 0.19807  0.62689  0.14238  Biso   1.000  N
  O176     1.0000 0.36100  0.53730  0.26300  Biso   1.000  O
  C440     1.0000 0.34900  0.52410  0.25430  Biso   1.000  C
  N264     1.0000 0.17550  0.79440  0.03770  Biso   1.000  N
  O177     1.0000 0.96217  0.58630  0.32029  Biso   1.000  O
  C441     1.0000 0.97630  0.63080  0.18940  Biso   1.000  C
  H265     1.0000 0.95770  0.63890  0.16460  Biso   1.000  H
  N265     1.0000 0.96099  0.61671  0.23212  Biso   1.000  N
  C442     1.0000 0.82960  0.64680  0.31960  Biso   1.000  C
  C443     1.0000 0.79050  0.62510  0.30770  Biso   1.000  C
  H266     1.0000 0.79040  0.60230  0.28520  Biso   1.000  H
  C444     1.0000 0.75280  0.63710  0.32910  Biso   1.000  C
  H267     1.0000 0.72520  0.62270  0.32140  Biso   1.000  H
  N266     1.0000 0.87311  0.64238  0.30193  Biso   1.000  N
  O178     1.0000 0.96270  0.76300  0.13900  Biso   1.000  O
  C445     1.0000 0.97590  0.75430  0.15100  Biso   1.000  C
  N267     1.0000 0.70560  0.53770  0.32450  Biso   1.000  N
  O179     1.0000 0.46217  0.08630  0.82029  Biso   1.000  O
  C446     1.0000 0.47630  0.13080  0.68940  Biso   1.000  C
  H268     1.0000 0.45770  0.13890  0.66460  Biso   1.000  H
  N268     1.0000 0.46099  0.11671  0.73212  Biso   1.000  N
  C447     1.0000 0.32960  0.14680  0.81960  Biso   1.000  C
  C448     1.0000 0.29050  0.12510  0.80770  Biso   1.000  C
  H269     1.0000 0.29040  0.10230  0.78520  Biso   1.000  H
  C449     1.0000 0.25280  0.13710  0.82910  Biso   1.000  C
  H270     1.0000 0.22520  0.12270  0.82140  Biso   1.000  H
  N269     1.0000 0.37311  0.14238  0.80193  Biso   1.000  N
  O180     1.0000 0.46270  0.26300  0.63900  Biso   1.000  O
  C450     1.0000 0.47590  0.25430  0.65100  Biso   1.000  C
  N270     1.0000 0.20560  0.03770  0.82450  Biso   1.000  N
  O181     1.0000 0.96217  0.41370  0.67971  Biso   1.000  O
  C451     1.0000 0.97630  0.36920  0.81060  Biso   1.000  C
  H271     1.0000 0.95770  0.36110  0.83540  Biso   1.000  H
  N271     1.0000 0.96099  0.38329  0.76788  Biso   1.000  N
  C452     1.0000 0.82960  0.35320  0.68040  Biso   1.000  C
  C453     1.0000 0.79050  0.37490  0.69230  Biso   1.000  C
  H272     1.0000 0.79040  0.39770  0.71480  Biso   1.000  H
  C454     1.0000 0.75280  0.36290  0.67090  Biso   1.000  C
  H273     1.0000 0.72520  0.37730  0.67860  Biso   1.000  H
  N272     1.0000 0.87311  0.35762  0.69807  Biso   1.000  N
  O182     1.0000 0.96270  0.23700  0.86100  Biso   1.000  O
  C455     1.0000 0.97590  0.24570  0.84900  Biso   1.000  C
  N273     1.0000 0.70560  0.46230  0.67550  Biso   1.000  N
  O183     1.0000 0.46217  0.91370  0.17971  Biso   1.000  O
  C456     1.0000 0.47630  0.86920  0.31060  Biso   1.000  C
  H274     1.0000 0.45770  0.86110  0.33540  Biso   1.000  H
  N274     1.0000 0.46099  0.88329  0.26788  Biso   1.000  N
  C457     1.0000 0.32960  0.85320  0.18040  Biso   1.000  C
  C458     1.0000 0.29050  0.87490  0.19230  Biso   1.000  C
  H275     1.0000 0.29040  0.89770  0.21480  Biso   1.000  H
  C459     1.0000 0.25280  0.86290  0.17090  Biso   1.000  C
  H276     1.0000 0.22520  0.87730  0.17860  Biso   1.000  H
  N275     1.0000 0.37311  0.85762  0.19807  Biso   1.000  N
  O184     1.0000 0.46270  0.73700  0.36100  Biso   1.000  O
  C460     1.0000 0.47590  0.74570  0.34900  Biso   1.000  C
  N276     1.0000 0.20560  0.96230  0.17550  Biso   1.000  N
  O185     1.0000 0.03783  0.58630  0.67971  Biso   1.000  O
  C461     1.0000 0.02370  0.63080  0.81060  Biso   1.000  C
  H277     1.0000 0.04230  0.63890  0.83540  Biso   1.000  H
  N277     1.0000 0.03901  0.61671  0.76788  Biso   1.000  N
  C462     1.0000 0.17040  0.64680  0.68040  Biso   1.000  C
  C463     1.0000 0.20950  0.62510  0.69230  Biso   1.000  C
  H278     1.0000 0.20960  0.60230  0.71480  Biso   1.000  H
  C464     1.0000 0.24720  0.63710  0.67090  Biso   1.000  C
  H279     1.0000 0.27480  0.62270  0.67860  Biso   1.000  H
  N278     1.0000 0.12689  0.64238  0.69807  Biso   1.000  N
  O186     1.0000 0.03730  0.76300  0.86100  Biso   1.000  O
  C465     1.0000 0.02410  0.75430  0.84900  Biso   1.000  C
  N279     1.0000 0.29440  0.53770  0.67550  Biso   1.000  N
  O187     1.0000 0.53783  0.08630  0.17971  Biso   1.000  O
  C466     1.0000 0.52370  0.13080  0.31060  Biso   1.000  C
  H280     1.0000 0.54230  0.13890  0.33540  Biso   1.000  H
  N280     1.0000 0.53901  0.11671  0.26788  Biso   1.000  N
  C467     1.0000 0.67040  0.14680  0.18040  Biso   1.000  C
  C468     1.0000 0.70950  0.12510  0.19230  Biso   1.000  C
  H281     1.0000 0.70960  0.10230  0.21480  Biso   1.000  H
  C469     1.0000 0.74720  0.13710  0.17090  Biso   1.000  C
  H282     1.0000 0.77480  0.12270  0.17860  Biso   1.000  H
  N281     1.0000 0.62689  0.14238  0.19807  Biso   1.000  N
  O188     1.0000 0.53730  0.26300  0.36100  Biso   1.000  O
  C470     1.0000 0.52410  0.25430  0.34900  Biso   1.000  C
  N282     1.0000 0.79440  0.03770  0.17550  Biso   1.000  N
  O189     1.0000 0.03783  0.41370  0.32029  Biso   1.000  O
  C471     1.0000 0.02370  0.36920  0.18940  Biso   1.000  C
  H283     1.0000 0.04230  0.36110  0.16460  Biso   1.000  H
  N283     1.0000 0.03901  0.38329  0.23212  Biso   1.000  N
  C472     1.0000 0.17040  0.35320  0.31960  Biso   1.000  C
  C473     1.0000 0.20950  0.37490  0.30770  Biso   1.000  C
  H284     1.0000 0.20960  0.39770  0.28520  Biso   1.000  H
  C474     1.0000 0.24720  0.36290  0.32910  Biso   1.000  C
  H285     1.0000 0.27480  0.37730  0.32140  Biso   1.000  H
  N284     1.0000 0.12689  0.35762  0.30193  Biso   1.000  N
  O190     1.0000 0.03730  0.23700  0.13900  Biso   1.000  O
  C475     1.0000 0.02410  0.24570  0.15100  Biso   1.000  C
  N285     1.0000 0.29440  0.46230  0.32450  Biso   1.000  N
  O191     1.0000 0.53783  0.91370  0.82029  Biso   1.000  O
  C476     1.0000 0.52370  0.86920  0.68940  Biso   1.000  C
  H286     1.0000 0.54230  0.86110  0.66460  Biso   1.000  H
  N286     1.0000 0.53901  0.88329  0.73212  Biso   1.000  N
  C477     1.0000 0.67040  0.85320  0.81960  Biso   1.000  C
  C478     1.0000 0.70950  0.87490  0.80770  Biso   1.000  C
  H287     1.0000 0.70960  0.89770  0.78520  Biso   1.000  H
  C479     1.0000 0.74720  0.86290  0.82910  Biso   1.000  C
  H288     1.0000 0.77480  0.87730  0.82140  Biso   1.000  H
  N287     1.0000 0.62689  0.85762  0.80193  Biso   1.000  N
  O192     1.0000 0.53730  0.73700  0.63900  Biso   1.000  O
  C480     1.0000 0.52410  0.74570  0.65100  Biso   1.000  C
  N288     1.0000 0.79440  0.96230  0.82450  Biso   1.000  N
  Zn1      1.0000 0.25000  0.39602  0.10398  Biso   1.000  Zn
  Zn2      1.0000 0.75000  0.60398  0.10398  Biso   1.000  Zn
  Zn3      1.0000 0.75000  0.39602  0.89602  Biso   1.000  Zn
  Zn4      1.0000 0.25000  0.60398  0.89602  Biso   1.000  Zn
  Zn5      1.0000 0.10398  0.25000  0.39602  Biso   1.000  Zn
  Zn6      1.0000 0.10398  0.75000  0.60398  Biso   1.000  Zn
  Zn7      1.0000 0.89602  0.75000  0.39602  Biso   1.000  Zn
  Zn8      1.0000 0.89602  0.25000  0.60398  Biso   1.000  Zn
  Zn9      1.0000 0.39602  0.10398  0.25000  Biso   1.000  Zn
  Zn10     1.0000 0.60398  0.10398  0.75000  Biso   1.000  Zn
  Zn11     1.0000 0.39602  0.89602  0.75000  Biso   1.000  Zn
  Zn12     1.0000 0.60398  0.89602  0.25000  Biso   1.000  Zn
  Zn13     1.0000 0.39602  0.25000  0.89602  Biso   1.000  Zn
  Zn14     1.0000 0.60398  0.75000  0.89602  Biso   1.000  Zn
  Zn15     1.0000 0.39602  0.75000  0.10398  Biso   1.000  Zn
  Zn16     1.0000 0.60398  0.25000  0.10398  Biso   1.000  Zn
  Zn17     1.0000 0.25000  0.10398  0.60398  Biso   1.000  Zn
  Zn18     1.0000 0.75000  0.10398  0.39602  Biso   1.000  Zn
  Zn19     1.0000 0.75000  0.89602  0.60398  Biso   1.000  Zn
  Zn20     1.0000 0.25000  0.89602  0.39602  Biso   1.000  Zn
  Zn21     1.0000 0.10398  0.39602  0.75000  Biso   1.000  Zn
  Zn22     1.0000 0.10398  0.60398  0.25000  Biso   1.000  Zn
  Zn23     1.0000 0.89602  0.39602  0.25000  Biso   1.000  Zn
  Zn24     1.0000 0.89602  0.60398  0.75000  Biso   1.000  Zn
  Zn25     1.0000 0.75000  0.60398  0.89602  Biso   1.000  Zn
  Zn26     1.0000 0.25000  0.10398  0.39602  Biso   1.000  Zn
  Zn27     1.0000 0.25000  0.39602  0.89602  Biso   1.000  Zn
  Zn28     1.0000 0.25000  0.60398  0.10398  Biso   1.000  Zn
  Zn29     1.0000 0.75000  0.39602  0.10398  Biso   1.000  Zn
  Zn30     1.0000 0.89602  0.75000  0.60398  Biso   1.000  Zn
  Zn31     1.0000 0.39602  0.25000  0.10398  Biso   1.000  Zn
  Zn32     1.0000 0.89602  0.25000  0.39602  Biso   1.000  Zn
  Zn33     1.0000 0.10398  0.25000  0.60398  Biso   1.000  Zn
  Zn34     1.0000 0.10398  0.75000  0.39602  Biso   1.000  Zn
  Zn35     1.0000 0.60398  0.89602  0.75000  Biso   1.000  Zn
  Zn36     1.0000 0.10398  0.39602  0.25000  Biso   1.000  Zn
  Zn37     1.0000 0.39602  0.89602  0.25000  Biso   1.000  Zn
  Zn38     1.0000 0.60398  0.10398  0.25000  Biso   1.000  Zn
  Zn39     1.0000 0.39602  0.10398  0.75000  Biso   1.000  Zn
  Zn40     1.0000 0.60398  0.75000  0.10398  Biso   1.000  Zn
  Zn41     1.0000 0.60398  0.25000  0.89602  Biso   1.000  Zn
  Zn42     1.0000 0.39602  0.75000  0.89602  Biso   1.000  Zn
  Zn43     1.0000 0.75000  0.89602  0.39602  Biso   1.000  Zn
  Zn44     1.0000 0.25000  0.89602  0.60398  Biso   1.000  Zn
  Zn45     1.0000 0.75000  0.10398  0.60398  Biso   1.000  Zn
  Zn46     1.0000 0.89602  0.60398  0.25000  Biso   1.000  Zn
  Zn47     1.0000 0.89602  0.39602  0.75000  Biso   1.000  Zn
  Zn48     1.0000 0.10398  0.60398  0.75000  Biso   1.000  Zn
  Zn49     1.0000 0.31112  0.39628  0.31112  Biso   1.000  Zn
  Zn50     1.0000 0.81112  0.89628  0.81112  Biso   1.000  Zn
  Zn51     1.0000 0.68888  0.60372  0.31112  Biso   1.000  Zn
  Zn52     1.0000 0.18888  0.10372  0.81112  Biso   1.000  Zn
  Zn53     1.0000 0.68888  0.39628  0.68888  Biso   1.000  Zn
  Zn54     1.0000 0.18888  0.89628  0.18888  Biso   1.000  Zn
  Zn55     1.0000 0.31112  0.60372  0.68888  Biso   1.000  Zn
  Zn56     1.0000 0.81112  0.10372  0.18888  Biso   1.000  Zn
  Zn57     1.0000 0.31112  0.31112  0.39628  Biso   1.000  Zn
  Zn58     1.0000 0.81112  0.81112  0.89628  Biso   1.000  Zn
  Zn59     1.0000 0.31112  0.68888  0.60372  Biso   1.000  Zn
  Zn60     1.0000 0.81112  0.18888  0.10372  Biso   1.000  Zn
  Zn61     1.0000 0.68888  0.68888  0.39628  Biso   1.000  Zn
  Zn62     1.0000 0.18888  0.18888  0.89628  Biso   1.000  Zn
  Zn63     1.0000 0.68888  0.31112  0.60372  Biso   1.000  Zn
  Zn64     1.0000 0.18888  0.81112  0.10372  Biso   1.000  Zn
  Zn65     1.0000 0.39628  0.31112  0.31112  Biso   1.000  Zn
  Zn66     1.0000 0.89628  0.81112  0.81112  Biso   1.000  Zn
  Zn67     1.0000 0.60372  0.31112  0.68888  Biso   1.000  Zn
  Zn68     1.0000 0.10372  0.81112  0.18888  Biso   1.000  Zn
  Zn69     1.0000 0.39628  0.68888  0.68888  Biso   1.000  Zn
  Zn70     1.0000 0.89628  0.18888  0.18888  Biso   1.000  Zn
  Zn71     1.0000 0.60372  0.68888  0.31112  Biso   1.000  Zn
  Zn72     1.0000 0.10372  0.18888  0.81112  Biso   1.000  Zn
  Zn73     1.0000 0.39628  0.31112  0.68888  Biso   1.000  Zn
  Zn74     1.0000 0.89628  0.81112  0.18888  Biso   1.000  Zn
  Zn75     1.0000 0.60372  0.68888  0.68888  Biso   1.000  Zn
  Zn76     1.0000 0.10372  0.18888  0.18888  Biso   1.000  Zn
  Zn77     1.0000 0.39628  0.68888  0.31112  Biso   1.000  Zn
  Zn78     1.0000 0.89628  0.18888  0.81112  Biso   1.000  Zn
  Zn79     1.0000 0.60372  0.31112  0.31112  Biso   1.000  Zn
  Zn80     1.0000 0.10372  0.81112  0.81112  Biso   1.000  Zn
  Zn81     1.0000 0.31112  0.31112  0.60372  Biso   1.000  Zn
  Zn82     1.0000 0.81112  0.81112  0.10372  Biso   1.000  Zn
  Zn83     1.0000 0.68888  0.31112  0.39628  Biso   1.000  Zn
  Zn84     1.0000 0.18888  0.81112  0.89628  Biso   1.000  Zn
  Zn85     1.0000 0.68888  0.68888  0.60372  Biso   1.000  Zn
  Zn86     1.0000 0.18888  0.18888  0.10372  Biso   1.000  Zn
  Zn87     1.0000 0.31112  0.68888  0.39628  Biso   1.000  Zn
  Zn88     1.0000 0.81112  0.18888  0.89628  Biso   1.000  Zn
  Zn89     1.0000 0.31112  0.39628  0.68888  Biso   1.000  Zn
  Zn90     1.0000 0.81112  0.89628  0.18888  Biso   1.000  Zn
  Zn91     1.0000 0.31112  0.60372  0.31112  Biso   1.000  Zn
  Zn92     1.0000 0.81112  0.10372  0.81112  Biso   1.000  Zn
  Zn93     1.0000 0.68888  0.39628  0.31112  Biso   1.000  Zn
  Zn94     1.0000 0.18888  0.89628  0.81112  Biso   1.000  Zn
  Zn95     1.0000 0.68888  0.60372  0.68888  Biso   1.000  Zn
  Zn96     1.0000 0.18888  0.10372  0.18888  Biso   1.000  Zn
  C481     1.0000 0.25510  0.39190  0.00000  Biso   1.000  C
  N289     1.0000 0.30100  0.40710  0.00000  Biso   1.000  N
  C482     1.0000 0.75510  0.89190  0.50000  Biso   1.000  C
  N290     1.0000 0.80100  0.90710  0.50000  Biso   1.000  N
  C483     1.0000 0.74490  0.60810  0.00000  Biso   1.000  C
  N291     1.0000 0.69900  0.59290  0.00000  Biso   1.000  N
  C484     1.0000 0.24490  0.10810  0.50000  Biso   1.000  C
  N292     1.0000 0.19900  0.09290  0.50000  Biso   1.000  N
  C485     1.0000 0.74490  0.39190  0.00000  Biso   1.000  C
  N293     1.0000 0.69900  0.40710  0.00000  Biso   1.000  N
  C486     1.0000 0.24490  0.89190  0.50000  Biso   1.000  C
  N294     1.0000 0.19900  0.90710  0.50000  Biso   1.000  N
  C487     1.0000 0.25510  0.60810  0.00000  Biso   1.000  C
  N295     1.0000 0.30100  0.59290  0.00000  Biso   1.000  N
  C488     1.0000 0.75510  0.10810  0.50000  Biso   1.000  C
  N296     1.0000 0.80100  0.09290  0.50000  Biso   1.000  N
  C489     1.0000 0.00000  0.25510  0.39190  Biso   1.000  C
  N297     1.0000 0.00000  0.30100  0.40710  Biso   1.000  N
  C490     1.0000 0.50000  0.75510  0.89190  Biso   1.000  C
  N298     1.0000 0.50000  0.80100  0.90710  Biso   1.000  N
  C491     1.0000 0.00000  0.74490  0.60810  Biso   1.000  C
  N299     1.0000 0.00000  0.69900  0.59290  Biso   1.000  N
  C492     1.0000 0.50000  0.24490  0.10810  Biso   1.000  C
  N300     1.0000 0.50000  0.19900  0.09290  Biso   1.000  N
  C493     1.0000 0.00000  0.74490  0.39190  Biso   1.000  C
  N301     1.0000 0.00000  0.69900  0.40710  Biso   1.000  N
  C494     1.0000 0.50000  0.24490  0.89190  Biso   1.000  C
  N302     1.0000 0.50000  0.19900  0.90710  Biso   1.000  N
  C495     1.0000 0.00000  0.25510  0.60810  Biso   1.000  C
  N303     1.0000 0.00000  0.30100  0.59290  Biso   1.000  N
  C496     1.0000 0.50000  0.75510  0.10810  Biso   1.000  C
  N304     1.0000 0.50000  0.80100  0.09290  Biso   1.000  N
  C497     1.0000 0.39190  0.00000  0.25510  Biso   1.000  C
  N305     1.0000 0.40710  0.00000  0.30100  Biso   1.000  N
  C498     1.0000 0.89190  0.50000  0.75510  Biso   1.000  C
  N306     1.0000 0.90710  0.50000  0.80100  Biso   1.000  N
  C499     1.0000 0.60810  0.00000  0.74490  Biso   1.000  C
  N307     1.0000 0.59290  0.00000  0.69900  Biso   1.000  N
  C500     1.0000 0.10810  0.50000  0.24490  Biso   1.000  C
  N308     1.0000 0.09290  0.50000  0.19900  Biso   1.000  N
  C501     1.0000 0.39190  0.00000  0.74490  Biso   1.000  C
  N309     1.0000 0.40710  0.00000  0.69900  Biso   1.000  N
  C502     1.0000 0.89190  0.50000  0.24490  Biso   1.000  C
  N310     1.0000 0.90710  0.50000  0.19900  Biso   1.000  N
  C503     1.0000 0.60810  0.00000  0.25510  Biso   1.000  C
  N311     1.0000 0.59290  0.00000  0.30100  Biso   1.000  N
  C504     1.0000 0.10810  0.50000  0.75510  Biso   1.000  C
  N312     1.0000 0.09290  0.50000  0.80100  Biso   1.000  N
  C505     1.0000 0.39190  0.25510  0.00000  Biso   1.000  C
  N313     1.0000 0.40710  0.30100  0.00000  Biso   1.000  N
  C506     1.0000 0.89190  0.75510  0.50000  Biso   1.000  C
  N314     1.0000 0.90710  0.80100  0.50000  Biso   1.000  N
  C507     1.0000 0.60810  0.74490  0.00000  Biso   1.000  C
  N315     1.0000 0.59290  0.69900  0.00000  Biso   1.000  N
  C508     1.0000 0.10810  0.24490  0.50000  Biso   1.000  C
  N316     1.0000 0.09290  0.19900  0.50000  Biso   1.000  N
  C509     1.0000 0.39190  0.74490  0.00000  Biso   1.000  C
  N317     1.0000 0.40710  0.69900  0.00000  Biso   1.000  N
  C510     1.0000 0.89190  0.24490  0.50000  Biso   1.000  C
  N318     1.0000 0.90710  0.19900  0.50000  Biso   1.000  N
  C511     1.0000 0.60810  0.25510  0.00000  Biso   1.000  C
  N319     1.0000 0.59290  0.30100  0.00000  Biso   1.000  N
  C512     1.0000 0.10810  0.75510  0.50000  Biso   1.000  C
  N320     1.0000 0.09290  0.80100  0.50000  Biso   1.000  N
  C513     1.0000 0.25510  0.00000  0.60810  Biso   1.000  C
  N321     1.0000 0.30100  0.00000  0.59290  Biso   1.000  N
  C514     1.0000 0.75510  0.50000  0.10810  Biso   1.000  C
  N322     1.0000 0.80100  0.50000  0.09290  Biso   1.000  N
  C515     1.0000 0.74490  0.00000  0.39190  Biso   1.000  C
  N323     1.0000 0.69900  0.00000  0.40710  Biso   1.000  N
  C516     1.0000 0.24490  0.50000  0.89190  Biso   1.000  C
  N324     1.0000 0.19900  0.50000  0.90710  Biso   1.000  N
  C517     1.0000 0.74490  0.00000  0.60810  Biso   1.000  C
  N325     1.0000 0.69900  0.00000  0.59290  Biso   1.000  N
  C518     1.0000 0.24490  0.50000  0.10810  Biso   1.000  C
  N326     1.0000 0.19900  0.50000  0.09290  Biso   1.000  N
  C519     1.0000 0.25510  0.00000  0.39190  Biso   1.000  C
  N327     1.0000 0.30100  0.00000  0.40710  Biso   1.000  N
  C520     1.0000 0.75510  0.50000  0.89190  Biso   1.000  C
  N328     1.0000 0.80100  0.50000  0.90710  Biso   1.000  N
  C521     1.0000 0.00000  0.39190  0.74490  Biso   1.000  C
  N329     1.0000 0.00000  0.40710  0.69900  Biso   1.000  N
  C522     1.0000 0.50000  0.89190  0.24490  Biso   1.000  C
  N330     1.0000 0.50000  0.90710  0.19900  Biso   1.000  N
  C523     1.0000 0.00000  0.60810  0.25510  Biso   1.000  C
  N331     1.0000 0.00000  0.59290  0.30100  Biso   1.000  N
  C524     1.0000 0.50000  0.10810  0.75510  Biso   1.000  C
  N332     1.0000 0.50000  0.09290  0.80100  Biso   1.000  N
  C525     1.0000 0.00000  0.39190  0.25510  Biso   1.000  C
  N333     1.0000 0.00000  0.40710  0.30100  Biso   1.000  N
  C526     1.0000 0.50000  0.89190  0.75510  Biso   1.000  C
  N334     1.0000 0.50000  0.90710  0.80100  Biso   1.000  N
  C527     1.0000 0.00000  0.60810  0.74490  Biso   1.000  C
  N335     1.0000 0.00000  0.59290  0.69900  Biso   1.000  N
  C528     1.0000 0.50000  0.10810  0.24490  Biso   1.000  C
  N336     1.0000 0.50000  0.09290  0.19900  Biso   1.000  N
  C529     1.0000 0.32810  0.32810  0.10230  Biso   1.000  C
  H289     1.0000 0.32590  0.32590  0.07040  Biso   1.000  H
  C530     1.0000 0.82810  0.82810  0.60230  Biso   1.000  C
  H290     1.0000 0.82590  0.82590  0.57040  Biso   1.000  H
  C531     1.0000 0.67190  0.67190  0.10230  Biso   1.000  C
  H291     1.0000 0.67410  0.67410  0.07040  Biso   1.000  H
  C532     1.0000 0.17190  0.17190  0.60230  Biso   1.000  C
  H292     1.0000 0.17410  0.17410  0.57040  Biso   1.000  H
  C533     1.0000 0.67190  0.32810  0.89770  Biso   1.000  C
  H293     1.0000 0.67410  0.32590  0.92960  Biso   1.000  H
  C534     1.0000 0.17190  0.82810  0.39770  Biso   1.000  C
  H294     1.0000 0.17410  0.82590  0.42960  Biso   1.000  H
  C535     1.0000 0.32810  0.67190  0.89770  Biso   1.000  C
  H295     1.0000 0.32590  0.67410  0.92960  Biso   1.000  H
  C536     1.0000 0.82810  0.17190  0.39770  Biso   1.000  C
  H296     1.0000 0.82590  0.17410  0.42960  Biso   1.000  H
  C537     1.0000 0.10230  0.32810  0.32810  Biso   1.000  C
  H297     1.0000 0.07040  0.32590  0.32590  Biso   1.000  H
  C538     1.0000 0.60230  0.82810  0.82810  Biso   1.000  C
  H298     1.0000 0.57040  0.82590  0.82590  Biso   1.000  H
  C539     1.0000 0.10230  0.67190  0.67190  Biso   1.000  C
  H299     1.0000 0.07040  0.67410  0.67410  Biso   1.000  H
  C540     1.0000 0.60230  0.17190  0.17190  Biso   1.000  C
  H300     1.0000 0.57040  0.17410  0.17410  Biso   1.000  H
  C541     1.0000 0.89770  0.67190  0.32810  Biso   1.000  C
  H301     1.0000 0.92960  0.67410  0.32590  Biso   1.000  H
  C542     1.0000 0.39770  0.17190  0.82810  Biso   1.000  C
  H302     1.0000 0.42960  0.17410  0.82590  Biso   1.000  H
  C543     1.0000 0.89770  0.32810  0.67190  Biso   1.000  C
  H303     1.0000 0.92960  0.32590  0.67410  Biso   1.000  H
  C544     1.0000 0.39770  0.82810  0.17190  Biso   1.000  C
  H304     1.0000 0.42960  0.82590  0.17410  Biso   1.000  H
  C545     1.0000 0.32810  0.10230  0.32810  Biso   1.000  C
  H305     1.0000 0.32590  0.07040  0.32590  Biso   1.000  H
  C546     1.0000 0.82810  0.60230  0.82810  Biso   1.000  C
  H306     1.0000 0.82590  0.57040  0.82590  Biso   1.000  H
  C547     1.0000 0.67190  0.10230  0.67190  Biso   1.000  C
  H307     1.0000 0.67410  0.07040  0.67410  Biso   1.000  H
  C548     1.0000 0.17190  0.60230  0.17190  Biso   1.000  C
  H308     1.0000 0.17410  0.57040  0.17410  Biso   1.000  H
  C549     1.0000 0.32810  0.89770  0.67190  Biso   1.000  C
  H309     1.0000 0.32590  0.92960  0.67410  Biso   1.000  H
  C550     1.0000 0.82810  0.39770  0.17190  Biso   1.000  C
  H310     1.0000 0.82590  0.42960  0.17410  Biso   1.000  H
  C551     1.0000 0.67190  0.89770  0.32810  Biso   1.000  C
  H311     1.0000 0.67410  0.92960  0.32590  Biso   1.000  H
  C552     1.0000 0.17190  0.39770  0.82810  Biso   1.000  C
  H312     1.0000 0.17410  0.42960  0.82590  Biso   1.000  H
  C553     1.0000 0.32810  0.32810  0.89770  Biso   1.000  C
  H313     1.0000 0.32590  0.32590  0.92960  Biso   1.000  H
  C554     1.0000 0.82810  0.82810  0.39770  Biso   1.000  C
  H314     1.0000 0.82590  0.82590  0.42960  Biso   1.000  H
  C555     1.0000 0.67190  0.67190  0.89770  Biso   1.000  C
  H315     1.0000 0.67410  0.67410  0.92960  Biso   1.000  H
  C556     1.0000 0.17190  0.17190  0.39770  Biso   1.000  C
  H316     1.0000 0.17410  0.17410  0.42960  Biso   1.000  H
  C557     1.0000 0.32810  0.67190  0.10230  Biso   1.000  C
  H317     1.0000 0.32590  0.67410  0.07040  Biso   1.000  H
  C558     1.0000 0.82810  0.17190  0.60230  Biso   1.000  C
  H318     1.0000 0.82590  0.17410  0.57040  Biso   1.000  H
  C559     1.0000 0.67190  0.32810  0.10230  Biso   1.000  C
  H319     1.0000 0.67410  0.32590  0.07040  Biso   1.000  H
  C560     1.0000 0.17190  0.82810  0.60230  Biso   1.000  C
  H320     1.0000 0.17410  0.82590  0.57040  Biso   1.000  H
  C561     1.0000 0.32810  0.10230  0.67190  Biso   1.000  C
  H321     1.0000 0.32590  0.07040  0.67410  Biso   1.000  H
  C562     1.0000 0.82810  0.60230  0.17190  Biso   1.000  C
  H322     1.0000 0.82590  0.57040  0.17410  Biso   1.000  H
  C563     1.0000 0.67190  0.10230  0.32810  Biso   1.000  C
  H323     1.0000 0.67410  0.07040  0.32590  Biso   1.000  H
  C564     1.0000 0.17190  0.60230  0.82810  Biso   1.000  C
  H324     1.0000 0.17410  0.57040  0.82590  Biso   1.000  H
  C565     1.0000 0.67190  0.89770  0.67190  Biso   1.000  C
  H325     1.0000 0.67410  0.92960  0.67410  Biso   1.000  H
  C566     1.0000 0.17190  0.39770  0.17190  Biso   1.000  C
  H326     1.0000 0.17410  0.42960  0.17410  Biso   1.000  H
  C567     1.0000 0.32810  0.89770  0.32810  Biso   1.000  C
  H327     1.0000 0.32590  0.92960  0.32590  Biso   1.000  H
  C568     1.0000 0.82810  0.39770  0.82810  Biso   1.000  C
  H328     1.0000 0.82590  0.42960  0.82590  Biso   1.000  H
  C569     1.0000 0.10230  0.32810  0.67190  Biso   1.000  C
  H329     1.0000 0.07040  0.32590  0.67410  Biso   1.000  H
  C570     1.0000 0.60230  0.82810  0.17190  Biso   1.000  C
  H330     1.0000 0.57040  0.82590  0.17410  Biso   1.000  H
  C571     1.0000 0.10230  0.67190  0.32810  Biso   1.000  C
  H331     1.0000 0.07040  0.67410  0.32590  Biso   1.000  H
  C572     1.0000 0.60230  0.17190  0.82810  Biso   1.000  C
  H332     1.0000 0.57040  0.17410  0.82590  Biso   1.000  H
  C573     1.0000 0.89770  0.32810  0.32810  Biso   1.000  C
  H333     1.0000 0.92960  0.32590  0.32590  Biso   1.000  H
  C574     1.0000 0.39770  0.82810  0.82810  Biso   1.000  C
  H334     1.0000 0.42960  0.82590  0.82590  Biso   1.000  H
  C575     1.0000 0.89770  0.67190  0.67190  Biso   1.000  C
  H335     1.0000 0.92960  0.67410  0.67410  Biso   1.000  H
  C576     1.0000 0.39770  0.17190  0.17190  Biso   1.000  C
  H336     1.0000 0.42960  0.17410  0.17410  Biso   1.000  H
  C577     1.0000 0.18910  0.18910  0.00000  Biso   1.000  C
  C578     1.0000 0.68910  0.68910  0.50000  Biso   1.000  C
  C579     1.0000 0.81090  0.81090  0.00000  Biso   1.000  C
  C580     1.0000 0.31090  0.31090  0.50000  Biso   1.000  C
  C581     1.0000 0.81090  0.18910  0.00000  Biso   1.000  C
  C582     1.0000 0.31090  0.68910  0.50000  Biso   1.000  C
  C583     1.0000 0.18910  0.81090  0.00000  Biso   1.000  C
  C584     1.0000 0.68910  0.31090  0.50000  Biso   1.000  C
  C585     1.0000 0.00000  0.18910  0.18910  Biso   1.000  C
  C586     1.0000 0.50000  0.68910  0.68910  Biso   1.000  C
  C587     1.0000 0.00000  0.81090  0.81090  Biso   1.000  C
  C588     1.0000 0.50000  0.31090  0.31090  Biso   1.000  C
  C589     1.0000 0.00000  0.81090  0.18910  Biso   1.000  C
  C590     1.0000 0.50000  0.31090  0.68910  Biso   1.000  C
  C591     1.0000 0.00000  0.18910  0.81090  Biso   1.000  C
  C592     1.0000 0.50000  0.68910  0.31090  Biso   1.000  C
  C593     1.0000 0.18910  0.00000  0.18910  Biso   1.000  C
  C594     1.0000 0.68910  0.50000  0.68910  Biso   1.000  C
  C595     1.0000 0.81090  0.00000  0.81090  Biso   1.000  C
  C596     1.0000 0.31090  0.50000  0.31090  Biso   1.000  C
  C597     1.0000 0.18910  0.00000  0.81090  Biso   1.000  C
  C598     1.0000 0.68910  0.50000  0.31090  Biso   1.000  C
  C599     1.0000 0.81090  0.00000  0.18910  Biso   1.000  C
  C600     1.0000 0.31090  0.50000  0.68910  Biso   1.000  C
  N337     1.0000 0.33940  0.50000  0.27150  Biso   1.000  N
  N338     1.0000 0.83940  0.00000  0.77150  Biso   1.000  N
  N339     1.0000 0.66060  0.50000  0.27150  Biso   1.000  N
  N340     1.0000 0.16060  0.00000  0.77150  Biso   1.000  N
  N341     1.0000 0.66060  0.50000  0.72850  Biso   1.000  N
  N342     1.0000 0.16060  0.00000  0.22850  Biso   1.000  N
  N343     1.0000 0.33940  0.50000  0.72850  Biso   1.000  N
  N344     1.0000 0.83940  0.00000  0.22850  Biso   1.000  N
  N345     1.0000 0.27150  0.33940  0.50000  Biso   1.000  N
  N346     1.0000 0.77150  0.83940  0.00000  Biso   1.000  N
  N347     1.0000 0.27150  0.66060  0.50000  Biso   1.000  N
  N348     1.0000 0.77150  0.16060  0.00000  Biso   1.000  N
  N349     1.0000 0.72850  0.66060  0.50000  Biso   1.000  N
  N350     1.0000 0.22850  0.16060  0.00000  Biso   1.000  N
  N351     1.0000 0.72850  0.33940  0.50000  Biso   1.000  N
  N352     1.0000 0.22850  0.83940  0.00000  Biso   1.000  N
  N353     1.0000 0.50000  0.27150  0.33940  Biso   1.000  N
  N354     1.0000 0.00000  0.77150  0.83940  Biso   1.000  N
  N355     1.0000 0.50000  0.27150  0.66060  Biso   1.000  N
  N356     1.0000 0.00000  0.77150  0.16060  Biso   1.000  N
  N357     1.0000 0.50000  0.72850  0.66060  Biso   1.000  N
  N358     1.0000 0.00000  0.22850  0.16060  Biso   1.000  N
  N359     1.0000 0.50000  0.72850  0.33940  Biso   1.000  N
  N360     1.0000 0.00000  0.22850  0.83940  Biso   1.000  N
  N361     1.0000 0.50000  0.33940  0.72850  Biso   1.000  N
  N362     1.0000 0.00000  0.83940  0.22850  Biso   1.000  N
  N363     1.0000 0.50000  0.66060  0.72850  Biso   1.000  N
  N364     1.0000 0.00000  0.16060  0.22850  Biso   1.000  N
  N365     1.0000 0.50000  0.66060  0.27150  Biso   1.000  N
  N366     1.0000 0.00000  0.16060  0.77150  Biso   1.000  N
  N367     1.0000 0.50000  0.33940  0.27150  Biso   1.000  N
  N368     1.0000 0.00000  0.83940  0.77150  Biso   1.000  N
  N369     1.0000 0.33940  0.27150  0.50000  Biso   1.000  N
  N370     1.0000 0.83940  0.77150  0.00000  Biso   1.000  N
  N371     1.0000 0.66060  0.27150  0.50000  Biso   1.000  N
  N372     1.0000 0.16060  0.77150  0.00000  Biso   1.000  N
  N373     1.0000 0.66060  0.72850  0.50000  Biso   1.000  N
  N374     1.0000 0.16060  0.22850  0.00000  Biso   1.000  N
  N375     1.0000 0.33940  0.72850  0.50000  Biso   1.000  N
  N376     1.0000 0.83940  0.22850  0.00000  Biso   1.000  N
  N377     1.0000 0.27150  0.50000  0.66060  Biso   1.000  N
  N378     1.0000 0.77150  0.00000  0.16060  Biso   1.000  N
  N379     1.0000 0.27150  0.50000  0.33940  Biso   1.000  N
  N380     1.0000 0.77150  0.00000  0.83940  Biso   1.000  N
  N381     1.0000 0.72850  0.50000  0.33940  Biso   1.000  N
  N382     1.0000 0.22850  0.00000  0.83940  Biso   1.000  N
  N383     1.0000 0.72850  0.50000  0.66060  Biso   1.000  N
  N384     1.0000 0.22850  0.00000  0.16060  Biso   1.000  N
