data_image0
_cell_length_a       19.4498
_cell_length_b       26.8572
_cell_length_c       34.812
_cell_angle_alpha    90
_cell_angle_beta     90
_cell_angle_gamma    90

_symmetry_space_group_name_H-M    "P 1"
_symmetry_int_tables_number       1

loop_
  _symmetry_equiv_pos_as_xyz
  'x, y, z'

loop_
  _atom_site_label
  _atom_site_occupancy
  _atom_site_fract_x
  _atom_site_fract_y
  _atom_site_fract_z
  _atom_site_thermal_displace_type
  _atom_site_B_iso_or_equiv
  _atom_site_type_symbol
  K1       1.0000 0.56103  0.63510  0.48398  Biso   1.000  K
  Pr1      1.0000 0.74395  0.55811  0.93212  Biso   1.000  Pr
  Pr2      1.0000 0.74305  0.56895  0.25993  Biso   1.000  Pr
  Pt1      1.0000 0.75305  0.56435  0.09633  Biso   1.000  Pt
  Pt2      1.0000 0.99201  0.56164  0.84466  Biso   1.000  Pt
  Pt3      1.0000 0.50081  0.56367  0.83944  Biso   1.000  Pt
  Pt4      1.0000 0.24479  0.55767  0.09485  Biso   1.000  Pt
  C1       1.0000 0.65160  0.56300  0.09870  Biso   1.000  C
  C2       1.0000 0.74770  0.56190  0.03940  Biso   1.000  C
  C3       1.0000 0.85450  0.56310  0.09290  Biso   1.000  C
  C4       1.0000 0.75940  0.56810  0.15370  Biso   1.000  C
  C5       1.0000 0.04100  0.56270  0.89520  Biso   1.000  C
  C6       1.0000 0.08140  0.56690  0.81680  Biso   1.000  C
  C7       1.0000 0.94570  0.56100  0.79330  Biso   1.000  C
  C8       1.0000 0.90230  0.55550  0.87210  Biso   1.000  C
  C9       1.0000 0.58610  0.56280  0.87100  Biso   1.000  C
  C10      1.0000 0.55920  0.56450  0.79350  Biso   1.000  C
  C11      1.0000 0.41820  0.56600  0.80700  Biso   1.000  C
  C12      1.0000 0.44520  0.56210  0.88790  Biso   1.000  C
  C13      1.0000 0.17150  0.56040  0.13420  Biso   1.000  C
  C14      1.0000 0.31500  0.55540  0.13740  Biso   1.000  C
  C15      1.0000 0.31710  0.55320  0.05550  Biso   1.000  C
  C16      1.0000 0.17230  0.55890  0.05300  Biso   1.000  C
  N1       1.0000 0.59310  0.55840  0.10020  Biso   1.000  N
  N2       1.0000 0.74670  0.56060  0.00638  Biso   1.000  N
  N3       1.0000 0.91290  0.56360  0.09080  Biso   1.000  N
  N4       1.0000 0.76170  0.57110  0.18625  Biso   1.000  N
  N5       1.0000 0.07020  0.56310  0.92290  Biso   1.000  N
  N6       1.0000 0.13080  0.56780  0.79993  Biso   1.000  N
  N7       1.0000 0.92350  0.56030  0.76300  Biso   1.000  N
  N8       1.0000 0.85120  0.55190  0.88749  Biso   1.000  N
  N9       1.0000 0.63540  0.56340  0.88850  Biso   1.000  N
  N10      1.0000 0.59280  0.56550  0.76630  Biso   1.000  N
  N11      1.0000 0.37100  0.56810  0.78720  Biso   1.000  N
  N12      1.0000 0.41400  0.56300  0.91510  Biso   1.000  N
  N13      1.0000 0.13310  0.56150  0.15750  Biso   1.000  N
  N14      1.0000 0.35150  0.55290  0.16210  Biso   1.000  N
  N15      1.0000 0.35710  0.54920  0.03190  Biso   1.000  N
  N16      1.0000 0.12890  0.55850  0.03130  Biso   1.000  N
  O1       1.0000 0.45810  0.55830  0.48401  Biso   1.000  O
  K2       1.0000 0.56103  0.13510  0.98398  Biso   1.000  K
  Pr3      1.0000 0.74395  0.05811  0.43212  Biso   1.000  Pr
  Pr4      1.0000 0.74305  0.06895  0.75993  Biso   1.000  Pr
  Pt5      1.0000 0.75305  0.06435  0.59633  Biso   1.000  Pt
  Pt6      1.0000 0.99201  0.06164  0.34466  Biso   1.000  Pt
  Pt7      1.0000 0.50081  0.06367  0.33944  Biso   1.000  Pt
  Pt8      1.0000 0.24479  0.05767  0.59485  Biso   1.000  Pt
  C17      1.0000 0.65160  0.06300  0.59870  Biso   1.000  C
  C18      1.0000 0.74770  0.06190  0.53940  Biso   1.000  C
  C19      1.0000 0.85450  0.06310  0.59290  Biso   1.000  C
  C20      1.0000 0.75940  0.06810  0.65370  Biso   1.000  C
  C21      1.0000 0.04100  0.06270  0.39520  Biso   1.000  C
  C22      1.0000 0.08140  0.06690  0.31680  Biso   1.000  C
  C23      1.0000 0.94570  0.06100  0.29330  Biso   1.000  C
  C24      1.0000 0.90230  0.05550  0.37210  Biso   1.000  C
  C25      1.0000 0.58610  0.06280  0.37100  Biso   1.000  C
  C26      1.0000 0.55920  0.06450  0.29350  Biso   1.000  C
  C27      1.0000 0.41820  0.06600  0.30700  Biso   1.000  C
  C28      1.0000 0.44520  0.06210  0.38790  Biso   1.000  C
  C29      1.0000 0.17150  0.06040  0.63420  Biso   1.000  C
  C30      1.0000 0.31500  0.05540  0.63740  Biso   1.000  C
  C31      1.0000 0.31710  0.05320  0.55550  Biso   1.000  C
  C32      1.0000 0.17230  0.05890  0.55300  Biso   1.000  C
  N17      1.0000 0.59310  0.05840  0.60020  Biso   1.000  N
  N18      1.0000 0.74670  0.06060  0.50638  Biso   1.000  N
  N19      1.0000 0.91290  0.06360  0.59080  Biso   1.000  N
  N20      1.0000 0.76170  0.07110  0.68625  Biso   1.000  N
  N21      1.0000 0.07020  0.06310  0.42290  Biso   1.000  N
  N22      1.0000 0.13080  0.06780  0.29993  Biso   1.000  N
  N23      1.0000 0.92350  0.06030  0.26300  Biso   1.000  N
  N24      1.0000 0.85120  0.05190  0.38749  Biso   1.000  N
  N25      1.0000 0.63540  0.06340  0.38850  Biso   1.000  N
  N26      1.0000 0.59280  0.06550  0.26630  Biso   1.000  N
  N27      1.0000 0.37100  0.06810  0.28720  Biso   1.000  N
  N28      1.0000 0.41400  0.06300  0.41510  Biso   1.000  N
  N29      1.0000 0.13310  0.06150  0.65750  Biso   1.000  N
  N30      1.0000 0.35150  0.05290  0.66210  Biso   1.000  N
  N31      1.0000 0.35710  0.04920  0.53190  Biso   1.000  N
  N32      1.0000 0.12890  0.05850  0.53130  Biso   1.000  N
  O2       1.0000 0.45810  0.05830  0.98401  Biso   1.000  O
  K3       1.0000 0.06103  0.63510  0.98398  Biso   1.000  K
  Pr5      1.0000 0.24395  0.55811  0.43212  Biso   1.000  Pr
  Pr6      1.0000 0.24305  0.56895  0.75993  Biso   1.000  Pr
  Pt9      1.0000 0.25305  0.56435  0.59633  Biso   1.000  Pt
  Pt10     1.0000 0.49201  0.56164  0.34466  Biso   1.000  Pt
  Pt11     1.0000 0.00081  0.56367  0.33944  Biso   1.000  Pt
  Pt12     1.0000 0.74479  0.55767  0.59485  Biso   1.000  Pt
  C33      1.0000 0.15160  0.56300  0.59870  Biso   1.000  C
  C34      1.0000 0.24770  0.56190  0.53940  Biso   1.000  C
  C35      1.0000 0.35450  0.56310  0.59290  Biso   1.000  C
  C36      1.0000 0.25940  0.56810  0.65370  Biso   1.000  C
  C37      1.0000 0.54100  0.56270  0.39520  Biso   1.000  C
  C38      1.0000 0.58140  0.56690  0.31680  Biso   1.000  C
  C39      1.0000 0.44570  0.56100  0.29330  Biso   1.000  C
  C40      1.0000 0.40230  0.55550  0.37210  Biso   1.000  C
  C41      1.0000 0.08610  0.56280  0.37100  Biso   1.000  C
  C42      1.0000 0.05920  0.56450  0.29350  Biso   1.000  C
  C43      1.0000 0.91820  0.56600  0.30700  Biso   1.000  C
  C44      1.0000 0.94520  0.56210  0.38790  Biso   1.000  C
  C45      1.0000 0.67150  0.56040  0.63420  Biso   1.000  C
  C46      1.0000 0.81500  0.55540  0.63740  Biso   1.000  C
  C47      1.0000 0.81710  0.55320  0.55550  Biso   1.000  C
  C48      1.0000 0.67230  0.55890  0.55300  Biso   1.000  C
  N33      1.0000 0.09310  0.55840  0.60020  Biso   1.000  N
  N34      1.0000 0.24670  0.56060  0.50638  Biso   1.000  N
  N35      1.0000 0.41290  0.56360  0.59080  Biso   1.000  N
  N36      1.0000 0.26170  0.57110  0.68625  Biso   1.000  N
  N37      1.0000 0.57020  0.56310  0.42290  Biso   1.000  N
  N38      1.0000 0.63080  0.56780  0.29993  Biso   1.000  N
  N39      1.0000 0.42350  0.56030  0.26300  Biso   1.000  N
  N40      1.0000 0.35120  0.55190  0.38749  Biso   1.000  N
  N41      1.0000 0.13540  0.56340  0.38850  Biso   1.000  N
  N42      1.0000 0.09280  0.56550  0.26630  Biso   1.000  N
  N43      1.0000 0.87100  0.56810  0.28720  Biso   1.000  N
  N44      1.0000 0.91400  0.56300  0.41510  Biso   1.000  N
  N45      1.0000 0.63310  0.56150  0.65750  Biso   1.000  N
  N46      1.0000 0.85150  0.55290  0.66210  Biso   1.000  N
  N47      1.0000 0.85710  0.54920  0.53190  Biso   1.000  N
  N48      1.0000 0.62890  0.55850  0.53130  Biso   1.000  N
  O3       1.0000 0.95810  0.55830  0.98401  Biso   1.000  O
  K4       1.0000 0.06103  0.13510  0.48398  Biso   1.000  K
  Pr7      1.0000 0.24395  0.05811  0.93212  Biso   1.000  Pr
  Pr8      1.0000 0.24305  0.06895  0.25993  Biso   1.000  Pr
  Pt13     1.0000 0.25305  0.06435  0.09633  Biso   1.000  Pt
  Pt14     1.0000 0.49201  0.06164  0.84466  Biso   1.000  Pt
  Pt15     1.0000 0.00081  0.06367  0.83944  Biso   1.000  Pt
  Pt16     1.0000 0.74479  0.05767  0.09485  Biso   1.000  Pt
  C49      1.0000 0.15160  0.06300  0.09870  Biso   1.000  C
  C50      1.0000 0.24770  0.06190  0.03940  Biso   1.000  C
  C51      1.0000 0.35450  0.06310  0.09290  Biso   1.000  C
  C52      1.0000 0.25940  0.06810  0.15370  Biso   1.000  C
  C53      1.0000 0.54100  0.06270  0.89520  Biso   1.000  C
  C54      1.0000 0.58140  0.06690  0.81680  Biso   1.000  C
  C55      1.0000 0.44570  0.06100  0.79330  Biso   1.000  C
  C56      1.0000 0.40230  0.05550  0.87210  Biso   1.000  C
  C57      1.0000 0.08610  0.06280  0.87100  Biso   1.000  C
  C58      1.0000 0.05920  0.06450  0.79350  Biso   1.000  C
  C59      1.0000 0.91820  0.06600  0.80700  Biso   1.000  C
  C60      1.0000 0.94520  0.06210  0.88790  Biso   1.000  C
  C61      1.0000 0.67150  0.06040  0.13420  Biso   1.000  C
  C62      1.0000 0.81500  0.05540  0.13740  Biso   1.000  C
  C63      1.0000 0.81710  0.05320  0.05550  Biso   1.000  C
  C64      1.0000 0.67230  0.05890  0.05300  Biso   1.000  C
  N49      1.0000 0.09310  0.05840  0.10020  Biso   1.000  N
  N50      1.0000 0.24670  0.06060  0.00638  Biso   1.000  N
  N51      1.0000 0.41290  0.06360  0.09080  Biso   1.000  N
  N52      1.0000 0.26170  0.07110  0.18625  Biso   1.000  N
  N53      1.0000 0.57020  0.06310  0.92290  Biso   1.000  N
  N54      1.0000 0.63080  0.06780  0.79993  Biso   1.000  N
  N55      1.0000 0.42350  0.06030  0.76300  Biso   1.000  N
  N56      1.0000 0.35120  0.05190  0.88749  Biso   1.000  N
  N57      1.0000 0.13540  0.06340  0.88850  Biso   1.000  N
  N58      1.0000 0.09280  0.06550  0.76630  Biso   1.000  N
  N59      1.0000 0.87100  0.06810  0.78720  Biso   1.000  N
  N60      1.0000 0.91400  0.06300  0.91510  Biso   1.000  N
  N61      1.0000 0.63310  0.06150  0.15750  Biso   1.000  N
  N62      1.0000 0.85150  0.05290  0.16210  Biso   1.000  N
  N63      1.0000 0.85710  0.04920  0.03190  Biso   1.000  N
  N64      1.0000 0.62890  0.05850  0.03130  Biso   1.000  N
  O4       1.0000 0.95810  0.05830  0.48401  Biso   1.000  O
  K5       1.0000 0.43897  0.36490  0.48398  Biso   1.000  K
  Pr9      1.0000 0.25605  0.44189  0.93212  Biso   1.000  Pr
  Pr10     1.0000 0.25695  0.43105  0.25993  Biso   1.000  Pr
  Pt17     1.0000 0.24695  0.43565  0.09633  Biso   1.000  Pt
  Pt18     1.0000 0.00799  0.43836  0.84466  Biso   1.000  Pt
  Pt19     1.0000 0.49919  0.43633  0.83944  Biso   1.000  Pt
  Pt20     1.0000 0.75521  0.44233  0.09485  Biso   1.000  Pt
  C65      1.0000 0.34840  0.43700  0.09870  Biso   1.000  C
  C66      1.0000 0.25230  0.43810  0.03940  Biso   1.000  C
  C67      1.0000 0.14550  0.43690  0.09290  Biso   1.000  C
  C68      1.0000 0.24060  0.43190  0.15370  Biso   1.000  C
  C69      1.0000 0.95900  0.43730  0.89520  Biso   1.000  C
  C70      1.0000 0.91860  0.43310  0.81680  Biso   1.000  C
  C71      1.0000 0.05430  0.43900  0.79330  Biso   1.000  C
  C72      1.0000 0.09770  0.44450  0.87210  Biso   1.000  C
  C73      1.0000 0.41390  0.43720  0.87100  Biso   1.000  C
  C74      1.0000 0.44080  0.43550  0.79350  Biso   1.000  C
  C75      1.0000 0.58180  0.43400  0.80700  Biso   1.000  C
  C76      1.0000 0.55480  0.43790  0.88790  Biso   1.000  C
  C77      1.0000 0.82850  0.43960  0.13420  Biso   1.000  C
  C78      1.0000 0.68500  0.44460  0.13740  Biso   1.000  C
  C79      1.0000 0.68290  0.44680  0.05550  Biso   1.000  C
  C80      1.0000 0.82770  0.44110  0.05300  Biso   1.000  C
  N65      1.0000 0.40690  0.44160  0.10020  Biso   1.000  N
  N66      1.0000 0.25330  0.43940  0.00638  Biso   1.000  N
  N67      1.0000 0.08710  0.43640  0.09080  Biso   1.000  N
  N68      1.0000 0.23830  0.42890  0.18625  Biso   1.000  N
  N69      1.0000 0.92980  0.43690  0.92290  Biso   1.000  N
  N70      1.0000 0.86920  0.43220  0.79993  Biso   1.000  N
  N71      1.0000 0.07650  0.43970  0.76300  Biso   1.000  N
  N72      1.0000 0.14880  0.44810  0.88749  Biso   1.000  N
  N73      1.0000 0.36460  0.43660  0.88850  Biso   1.000  N
  N74      1.0000 0.40720  0.43450  0.76630  Biso   1.000  N
  N75      1.0000 0.62900  0.43190  0.78720  Biso   1.000  N
  N76      1.0000 0.58600  0.43700  0.91510  Biso   1.000  N
  N77      1.0000 0.86690  0.43850  0.15750  Biso   1.000  N
  N78      1.0000 0.64850  0.44710  0.16210  Biso   1.000  N
  N79      1.0000 0.64290  0.45080  0.03190  Biso   1.000  N
  N80      1.0000 0.87110  0.44150  0.03130  Biso   1.000  N
  O5       1.0000 0.54190  0.44170  0.48401  Biso   1.000  O
  K6       1.0000 0.43897  0.86490  0.98398  Biso   1.000  K
  Pr11     1.0000 0.25605  0.94189  0.43212  Biso   1.000  Pr
  Pr12     1.0000 0.25695  0.93105  0.75993  Biso   1.000  Pr
  Pt21     1.0000 0.24695  0.93565  0.59633  Biso   1.000  Pt
  Pt22     1.0000 0.00799  0.93836  0.34466  Biso   1.000  Pt
  Pt23     1.0000 0.49919  0.93633  0.33944  Biso   1.000  Pt
  Pt24     1.0000 0.75521  0.94233  0.59485  Biso   1.000  Pt
  C81      1.0000 0.34840  0.93700  0.59870  Biso   1.000  C
  C82      1.0000 0.25230  0.93810  0.53940  Biso   1.000  C
  C83      1.0000 0.14550  0.93690  0.59290  Biso   1.000  C
  C84      1.0000 0.24060  0.93190  0.65370  Biso   1.000  C
  C85      1.0000 0.95900  0.93730  0.39520  Biso   1.000  C
  C86      1.0000 0.91860  0.93310  0.31680  Biso   1.000  C
  C87      1.0000 0.05430  0.93900  0.29330  Biso   1.000  C
  C88      1.0000 0.09770  0.94450  0.37210  Biso   1.000  C
  C89      1.0000 0.41390  0.93720  0.37100  Biso   1.000  C
  C90      1.0000 0.44080  0.93550  0.29350  Biso   1.000  C
  C91      1.0000 0.58180  0.93400  0.30700  Biso   1.000  C
  C92      1.0000 0.55480  0.93790  0.38790  Biso   1.000  C
  C93      1.0000 0.82850  0.93960  0.63420  Biso   1.000  C
  C94      1.0000 0.68500  0.94460  0.63740  Biso   1.000  C
  C95      1.0000 0.68290  0.94680  0.55550  Biso   1.000  C
  C96      1.0000 0.82770  0.94110  0.55300  Biso   1.000  C
  N81      1.0000 0.40690  0.94160  0.60020  Biso   1.000  N
  N82      1.0000 0.25330  0.93940  0.50638  Biso   1.000  N
  N83      1.0000 0.08710  0.93640  0.59080  Biso   1.000  N
  N84      1.0000 0.23830  0.92890  0.68625  Biso   1.000  N
  N85      1.0000 0.92980  0.93690  0.42290  Biso   1.000  N
  N86      1.0000 0.86920  0.93220  0.29993  Biso   1.000  N
  N87      1.0000 0.07650  0.93970  0.26300  Biso   1.000  N
  N88      1.0000 0.14880  0.94810  0.38749  Biso   1.000  N
  N89      1.0000 0.36460  0.93660  0.38850  Biso   1.000  N
  N90      1.0000 0.40720  0.93450  0.26630  Biso   1.000  N
  N91      1.0000 0.62900  0.93190  0.28720  Biso   1.000  N
  N92      1.0000 0.58600  0.93700  0.41510  Biso   1.000  N
  N93      1.0000 0.86690  0.93850  0.65750  Biso   1.000  N
  N94      1.0000 0.64850  0.94710  0.66210  Biso   1.000  N
  N95      1.0000 0.64290  0.95080  0.53190  Biso   1.000  N
  N96      1.0000 0.87110  0.94150  0.53130  Biso   1.000  N
  O6       1.0000 0.54190  0.94170  0.98401  Biso   1.000  O
  K7       1.0000 0.93897  0.36490  0.98398  Biso   1.000  K
  Pr13     1.0000 0.75605  0.44189  0.43212  Biso   1.000  Pr
  Pr14     1.0000 0.75695  0.43105  0.75993  Biso   1.000  Pr
  Pt25     1.0000 0.74695  0.43565  0.59633  Biso   1.000  Pt
  Pt26     1.0000 0.50799  0.43836  0.34466  Biso   1.000  Pt
  Pt27     1.0000 0.99919  0.43633  0.33944  Biso   1.000  Pt
  Pt28     1.0000 0.25521  0.44233  0.59485  Biso   1.000  Pt
  C97      1.0000 0.84840  0.43700  0.59870  Biso   1.000  C
  C98      1.0000 0.75230  0.43810  0.53940  Biso   1.000  C
  C99      1.0000 0.64550  0.43690  0.59290  Biso   1.000  C
  C100     1.0000 0.74060  0.43190  0.65370  Biso   1.000  C
  C101     1.0000 0.45900  0.43730  0.39520  Biso   1.000  C
  C102     1.0000 0.41860  0.43310  0.31680  Biso   1.000  C
  C103     1.0000 0.55430  0.43900  0.29330  Biso   1.000  C
  C104     1.0000 0.59770  0.44450  0.37210  Biso   1.000  C
  C105     1.0000 0.91390  0.43720  0.37100  Biso   1.000  C
  C106     1.0000 0.94080  0.43550  0.29350  Biso   1.000  C
  C107     1.0000 0.08180  0.43400  0.30700  Biso   1.000  C
  C108     1.0000 0.05480  0.43790  0.38790  Biso   1.000  C
  C109     1.0000 0.32850  0.43960  0.63420  Biso   1.000  C
  C110     1.0000 0.18500  0.44460  0.63740  Biso   1.000  C
  C111     1.0000 0.18290  0.44680  0.55550  Biso   1.000  C
  C112     1.0000 0.32770  0.44110  0.55300  Biso   1.000  C
  N97      1.0000 0.90690  0.44160  0.60020  Biso   1.000  N
  N98      1.0000 0.75330  0.43940  0.50638  Biso   1.000  N
  N99      1.0000 0.58710  0.43640  0.59080  Biso   1.000  N
  N100     1.0000 0.73830  0.42890  0.68625  Biso   1.000  N
  N101     1.0000 0.42980  0.43690  0.42290  Biso   1.000  N
  N102     1.0000 0.36920  0.43220  0.29993  Biso   1.000  N
  N103     1.0000 0.57650  0.43970  0.26300  Biso   1.000  N
  N104     1.0000 0.64880  0.44810  0.38749  Biso   1.000  N
  N105     1.0000 0.86460  0.43660  0.38850  Biso   1.000  N
  N106     1.0000 0.90720  0.43450  0.26630  Biso   1.000  N
  N107     1.0000 0.12900  0.43190  0.28720  Biso   1.000  N
  N108     1.0000 0.08600  0.43700  0.41510  Biso   1.000  N
  N109     1.0000 0.36690  0.43850  0.65750  Biso   1.000  N
  N110     1.0000 0.14850  0.44710  0.66210  Biso   1.000  N
  N111     1.0000 0.14290  0.45080  0.53190  Biso   1.000  N
  N112     1.0000 0.37110  0.44150  0.53130  Biso   1.000  N
  O7       1.0000 0.04190  0.44170  0.98401  Biso   1.000  O
  K8       1.0000 0.93897  0.86490  0.48398  Biso   1.000  K
  Pr15     1.0000 0.75605  0.94189  0.93212  Biso   1.000  Pr
  Pr16     1.0000 0.75695  0.93105  0.25993  Biso   1.000  Pr
  Pt29     1.0000 0.74695  0.93565  0.09633  Biso   1.000  Pt
  Pt30     1.0000 0.50799  0.93836  0.84466  Biso   1.000  Pt
  Pt31     1.0000 0.99919  0.93633  0.83944  Biso   1.000  Pt
  Pt32     1.0000 0.25521  0.94233  0.09485  Biso   1.000  Pt
  C113     1.0000 0.84840  0.93700  0.09870  Biso   1.000  C
  C114     1.0000 0.75230  0.93810  0.03940  Biso   1.000  C
  C115     1.0000 0.64550  0.93690  0.09290  Biso   1.000  C
  C116     1.0000 0.74060  0.93190  0.15370  Biso   1.000  C
  C117     1.0000 0.45900  0.93730  0.89520  Biso   1.000  C
  C118     1.0000 0.41860  0.93310  0.81680  Biso   1.000  C
  C119     1.0000 0.55430  0.93900  0.79330  Biso   1.000  C
  C120     1.0000 0.59770  0.94450  0.87210  Biso   1.000  C
  C121     1.0000 0.91390  0.93720  0.87100  Biso   1.000  C
  C122     1.0000 0.94080  0.93550  0.79350  Biso   1.000  C
  C123     1.0000 0.08180  0.93400  0.80700  Biso   1.000  C
  C124     1.0000 0.05480  0.93790  0.88790  Biso   1.000  C
  C125     1.0000 0.32850  0.93960  0.13420  Biso   1.000  C
  C126     1.0000 0.18500  0.94460  0.13740  Biso   1.000  C
  C127     1.0000 0.18290  0.94680  0.05550  Biso   1.000  C
  C128     1.0000 0.32770  0.94110  0.05300  Biso   1.000  C
  N113     1.0000 0.90690  0.94160  0.10020  Biso   1.000  N
  N114     1.0000 0.75330  0.93940  0.00638  Biso   1.000  N
  N115     1.0000 0.58710  0.93640  0.09080  Biso   1.000  N
  N116     1.0000 0.73830  0.92890  0.18625  Biso   1.000  N
  N117     1.0000 0.42980  0.93690  0.92290  Biso   1.000  N
  N118     1.0000 0.36920  0.93220  0.79993  Biso   1.000  N
  N119     1.0000 0.57650  0.93970  0.76300  Biso   1.000  N
  N120     1.0000 0.64880  0.94810  0.88749  Biso   1.000  N
  N121     1.0000 0.86460  0.93660  0.88850  Biso   1.000  N
  N122     1.0000 0.90720  0.93450  0.76630  Biso   1.000  N
  N123     1.0000 0.12900  0.93190  0.78720  Biso   1.000  N
  N124     1.0000 0.08600  0.93700  0.91510  Biso   1.000  N
  N125     1.0000 0.36690  0.93850  0.15750  Biso   1.000  N
  N126     1.0000 0.14850  0.94710  0.16210  Biso   1.000  N
  N127     1.0000 0.14290  0.95080  0.03190  Biso   1.000  N
  N128     1.0000 0.37110  0.94150  0.03130  Biso   1.000  N
  O8       1.0000 0.04190  0.94170  0.48401  Biso   1.000  O
  K9       1.0000 0.81103  0.61490  0.73398  Biso   1.000  K
  Pr17     1.0000 0.99395  0.69189  0.18212  Biso   1.000  Pr
  Pr18     1.0000 0.99305  0.68105  0.50993  Biso   1.000  Pr
  Pt33     1.0000 0.00305  0.68565  0.34633  Biso   1.000  Pt
  Pt34     1.0000 0.24201  0.68836  0.09466  Biso   1.000  Pt
  Pt35     1.0000 0.75081  0.68633  0.08944  Biso   1.000  Pt
  Pt36     1.0000 0.49479  0.69233  0.34485  Biso   1.000  Pt
  C129     1.0000 0.90160  0.68700  0.34870  Biso   1.000  C
  C130     1.0000 0.99770  0.68810  0.28940  Biso   1.000  C
  C131     1.0000 0.10450  0.68690  0.34290  Biso   1.000  C
  C132     1.0000 0.00940  0.68190  0.40370  Biso   1.000  C
  C133     1.0000 0.29100  0.68730  0.14520  Biso   1.000  C
  C134     1.0000 0.33140  0.68310  0.06680  Biso   1.000  C
  C135     1.0000 0.19570  0.68900  0.04330  Biso   1.000  C
  C136     1.0000 0.15230  0.69450  0.12210  Biso   1.000  C
  C137     1.0000 0.83610  0.68720  0.12100  Biso   1.000  C
  C138     1.0000 0.80920  0.68550  0.04350  Biso   1.000  C
  C139     1.0000 0.66820  0.68400  0.05700  Biso   1.000  C
  C140     1.0000 0.69520  0.68790  0.13790  Biso   1.000  C
  C141     1.0000 0.42150  0.68960  0.38420  Biso   1.000  C
  C142     1.0000 0.56500  0.69460  0.38740  Biso   1.000  C
  C143     1.0000 0.56710  0.69680  0.30550  Biso   1.000  C
  C144     1.0000 0.42230  0.69110  0.30300  Biso   1.000  C
  N129     1.0000 0.84310  0.69160  0.35020  Biso   1.000  N
  N130     1.0000 0.99670  0.68940  0.25638  Biso   1.000  N
  N131     1.0000 0.16290  0.68640  0.34080  Biso   1.000  N
  N132     1.0000 0.01170  0.67890  0.43625  Biso   1.000  N
  N133     1.0000 0.32020  0.68690  0.17290  Biso   1.000  N
  N134     1.0000 0.38080  0.68220  0.04993  Biso   1.000  N
  N135     1.0000 0.17350  0.68970  0.01300  Biso   1.000  N
  N136     1.0000 0.10120  0.69810  0.13749  Biso   1.000  N
  N137     1.0000 0.88540  0.68660  0.13850  Biso   1.000  N
  N138     1.0000 0.84280  0.68450  0.01630  Biso   1.000  N
  N139     1.0000 0.62100  0.68190  0.03720  Biso   1.000  N
  N140     1.0000 0.66400  0.68700  0.16510  Biso   1.000  N
  N141     1.0000 0.38310  0.68850  0.40750  Biso   1.000  N
  N142     1.0000 0.60150  0.69710  0.41210  Biso   1.000  N
  N143     1.0000 0.60710  0.70080  0.28190  Biso   1.000  N
  N144     1.0000 0.37890  0.69150  0.28130  Biso   1.000  N
  O9       1.0000 0.70810  0.69170  0.73401  Biso   1.000  O
  K10      1.0000 0.81103  0.11490  0.23398  Biso   1.000  K
  Pr19     1.0000 0.99395  0.19189  0.68212  Biso   1.000  Pr
  Pr20     1.0000 0.99305  0.18105  0.00993  Biso   1.000  Pr
  Pt37     1.0000 0.00305  0.18565  0.84633  Biso   1.000  Pt
  Pt38     1.0000 0.24201  0.18836  0.59466  Biso   1.000  Pt
  Pt39     1.0000 0.75081  0.18633  0.58944  Biso   1.000  Pt
  Pt40     1.0000 0.49479  0.19233  0.84485  Biso   1.000  Pt
  C145     1.0000 0.90160  0.18700  0.84870  Biso   1.000  C
  C146     1.0000 0.99770  0.18810  0.78940  Biso   1.000  C
  C147     1.0000 0.10450  0.18690  0.84290  Biso   1.000  C
  C148     1.0000 0.00940  0.18190  0.90370  Biso   1.000  C
  C149     1.0000 0.29100  0.18730  0.64520  Biso   1.000  C
  C150     1.0000 0.33140  0.18310  0.56680  Biso   1.000  C
  C151     1.0000 0.19570  0.18900  0.54330  Biso   1.000  C
  C152     1.0000 0.15230  0.19450  0.62210  Biso   1.000  C
  C153     1.0000 0.83610  0.18720  0.62100  Biso   1.000  C
  C154     1.0000 0.80920  0.18550  0.54350  Biso   1.000  C
  C155     1.0000 0.66820  0.18400  0.55700  Biso   1.000  C
  C156     1.0000 0.69520  0.18790  0.63790  Biso   1.000  C
  C157     1.0000 0.42150  0.18960  0.88420  Biso   1.000  C
  C158     1.0000 0.56500  0.19460  0.88740  Biso   1.000  C
  C159     1.0000 0.56710  0.19680  0.80550  Biso   1.000  C
  C160     1.0000 0.42230  0.19110  0.80300  Biso   1.000  C
  N145     1.0000 0.84310  0.19160  0.85020  Biso   1.000  N
  N146     1.0000 0.99670  0.18940  0.75638  Biso   1.000  N
  N147     1.0000 0.16290  0.18640  0.84080  Biso   1.000  N
  N148     1.0000 0.01170  0.17890  0.93625  Biso   1.000  N
  N149     1.0000 0.32020  0.18690  0.67290  Biso   1.000  N
  N150     1.0000 0.38080  0.18220  0.54993  Biso   1.000  N
  N151     1.0000 0.17350  0.18970  0.51300  Biso   1.000  N
  N152     1.0000 0.10120  0.19810  0.63749  Biso   1.000  N
  N153     1.0000 0.88540  0.18660  0.63850  Biso   1.000  N
  N154     1.0000 0.84280  0.18450  0.51630  Biso   1.000  N
  N155     1.0000 0.62100  0.18190  0.53720  Biso   1.000  N
  N156     1.0000 0.66400  0.18700  0.66510  Biso   1.000  N
  N157     1.0000 0.38310  0.18850  0.90750  Biso   1.000  N
  N158     1.0000 0.60150  0.19710  0.91210  Biso   1.000  N
  N159     1.0000 0.60710  0.20080  0.78190  Biso   1.000  N
  N160     1.0000 0.37890  0.19150  0.78130  Biso   1.000  N
  O10      1.0000 0.70810  0.19170  0.23401  Biso   1.000  O
  K11      1.0000 0.31103  0.61490  0.23398  Biso   1.000  K
  Pr21     1.0000 0.49395  0.69189  0.68212  Biso   1.000  Pr
  Pr22     1.0000 0.49305  0.68105  0.00993  Biso   1.000  Pr
  Pt41     1.0000 0.50305  0.68565  0.84633  Biso   1.000  Pt
  Pt42     1.0000 0.74201  0.68836  0.59466  Biso   1.000  Pt
  Pt43     1.0000 0.25081  0.68633  0.58944  Biso   1.000  Pt
  Pt44     1.0000 0.99479  0.69233  0.84485  Biso   1.000  Pt
  C161     1.0000 0.40160  0.68700  0.84870  Biso   1.000  C
  C162     1.0000 0.49770  0.68810  0.78940  Biso   1.000  C
  C163     1.0000 0.60450  0.68690  0.84290  Biso   1.000  C
  C164     1.0000 0.50940  0.68190  0.90370  Biso   1.000  C
  C165     1.0000 0.79100  0.68730  0.64520  Biso   1.000  C
  C166     1.0000 0.83140  0.68310  0.56680  Biso   1.000  C
  C167     1.0000 0.69570  0.68900  0.54330  Biso   1.000  C
  C168     1.0000 0.65230  0.69450  0.62210  Biso   1.000  C
  C169     1.0000 0.33610  0.68720  0.62100  Biso   1.000  C
  C170     1.0000 0.30920  0.68550  0.54350  Biso   1.000  C
  C171     1.0000 0.16820  0.68400  0.55700  Biso   1.000  C
  C172     1.0000 0.19520  0.68790  0.63790  Biso   1.000  C
  C173     1.0000 0.92150  0.68960  0.88420  Biso   1.000  C
  C174     1.0000 0.06500  0.69460  0.88740  Biso   1.000  C
  C175     1.0000 0.06710  0.69680  0.80550  Biso   1.000  C
  C176     1.0000 0.92230  0.69110  0.80300  Biso   1.000  C
  N161     1.0000 0.34310  0.69160  0.85020  Biso   1.000  N
  N162     1.0000 0.49670  0.68940  0.75638  Biso   1.000  N
  N163     1.0000 0.66290  0.68640  0.84080  Biso   1.000  N
  N164     1.0000 0.51170  0.67890  0.93625  Biso   1.000  N
  N165     1.0000 0.82020  0.68690  0.67290  Biso   1.000  N
  N166     1.0000 0.88080  0.68220  0.54993  Biso   1.000  N
  N167     1.0000 0.67350  0.68970  0.51300  Biso   1.000  N
  N168     1.0000 0.60120  0.69810  0.63749  Biso   1.000  N
  N169     1.0000 0.38540  0.68660  0.63850  Biso   1.000  N
  N170     1.0000 0.34280  0.68450  0.51630  Biso   1.000  N
  N171     1.0000 0.12100  0.68190  0.53720  Biso   1.000  N
  N172     1.0000 0.16400  0.68700  0.66510  Biso   1.000  N
  N173     1.0000 0.88310  0.68850  0.90750  Biso   1.000  N
  N174     1.0000 0.10150  0.69710  0.91210  Biso   1.000  N
  N175     1.0000 0.10710  0.70080  0.78190  Biso   1.000  N
  N176     1.0000 0.87890  0.69150  0.78130  Biso   1.000  N
  O11      1.0000 0.20810  0.69170  0.23401  Biso   1.000  O
  K12      1.0000 0.31103  0.11490  0.73398  Biso   1.000  K
  Pr23     1.0000 0.49395  0.19189  0.18212  Biso   1.000  Pr
  Pr24     1.0000 0.49305  0.18105  0.50993  Biso   1.000  Pr
  Pt45     1.0000 0.50305  0.18565  0.34633  Biso   1.000  Pt
  Pt46     1.0000 0.74201  0.18836  0.09466  Biso   1.000  Pt
  Pt47     1.0000 0.25081  0.18633  0.08944  Biso   1.000  Pt
  Pt48     1.0000 0.99479  0.19233  0.34485  Biso   1.000  Pt
  C177     1.0000 0.40160  0.18700  0.34870  Biso   1.000  C
  C178     1.0000 0.49770  0.18810  0.28940  Biso   1.000  C
  C179     1.0000 0.60450  0.18690  0.34290  Biso   1.000  C
  C180     1.0000 0.50940  0.18190  0.40370  Biso   1.000  C
  C181     1.0000 0.79100  0.18730  0.14520  Biso   1.000  C
  C182     1.0000 0.83140  0.18310  0.06680  Biso   1.000  C
  C183     1.0000 0.69570  0.18900  0.04330  Biso   1.000  C
  C184     1.0000 0.65230  0.19450  0.12210  Biso   1.000  C
  C185     1.0000 0.33610  0.18720  0.12100  Biso   1.000  C
  C186     1.0000 0.30920  0.18550  0.04350  Biso   1.000  C
  C187     1.0000 0.16820  0.18400  0.05700  Biso   1.000  C
  C188     1.0000 0.19520  0.18790  0.13790  Biso   1.000  C
  C189     1.0000 0.92150  0.18960  0.38420  Biso   1.000  C
  C190     1.0000 0.06500  0.19460  0.38740  Biso   1.000  C
  C191     1.0000 0.06710  0.19680  0.30550  Biso   1.000  C
  C192     1.0000 0.92230  0.19110  0.30300  Biso   1.000  C
  N177     1.0000 0.34310  0.19160  0.35020  Biso   1.000  N
  N178     1.0000 0.49670  0.18940  0.25638  Biso   1.000  N
  N179     1.0000 0.66290  0.18640  0.34080  Biso   1.000  N
  N180     1.0000 0.51170  0.17890  0.43625  Biso   1.000  N
  N181     1.0000 0.82020  0.18690  0.17290  Biso   1.000  N
  N182     1.0000 0.88080  0.18220  0.04993  Biso   1.000  N
  N183     1.0000 0.67350  0.18970  0.01300  Biso   1.000  N
  N184     1.0000 0.60120  0.19810  0.13749  Biso   1.000  N
  N185     1.0000 0.38540  0.18660  0.13850  Biso   1.000  N
  N186     1.0000 0.34280  0.18450  0.01630  Biso   1.000  N
  N187     1.0000 0.12100  0.18190  0.03720  Biso   1.000  N
  N188     1.0000 0.16400  0.18700  0.16510  Biso   1.000  N
  N189     1.0000 0.88310  0.18850  0.40750  Biso   1.000  N
  N190     1.0000 0.10150  0.19710  0.41210  Biso   1.000  N
  N191     1.0000 0.10710  0.20080  0.28190  Biso   1.000  N
  N192     1.0000 0.87890  0.19150  0.28130  Biso   1.000  N
  O12      1.0000 0.20810  0.19170  0.73401  Biso   1.000  O
  K13      1.0000 0.68897  0.88510  0.73398  Biso   1.000  K
  Pr25     1.0000 0.50605  0.80811  0.18212  Biso   1.000  Pr
  Pr26     1.0000 0.50695  0.81895  0.50993  Biso   1.000  Pr
  Pt49     1.0000 0.49695  0.81435  0.34633  Biso   1.000  Pt
  Pt50     1.0000 0.25799  0.81164  0.09466  Biso   1.000  Pt
  Pt51     1.0000 0.74919  0.81367  0.08944  Biso   1.000  Pt
  Pt52     1.0000 0.00521  0.80767  0.34485  Biso   1.000  Pt
  C193     1.0000 0.59840  0.81300  0.34870  Biso   1.000  C
  C194     1.0000 0.50230  0.81190  0.28940  Biso   1.000  C
  C195     1.0000 0.39550  0.81310  0.34290  Biso   1.000  C
  C196     1.0000 0.49060  0.81810  0.40370  Biso   1.000  C
  C197     1.0000 0.20900  0.81270  0.14520  Biso   1.000  C
  C198     1.0000 0.16860  0.81690  0.06680  Biso   1.000  C
  C199     1.0000 0.30430  0.81100  0.04330  Biso   1.000  C
  C200     1.0000 0.34770  0.80550  0.12210  Biso   1.000  C
  C201     1.0000 0.66390  0.81280  0.12100  Biso   1.000  C
  C202     1.0000 0.69080  0.81450  0.04350  Biso   1.000  C
  C203     1.0000 0.83180  0.81600  0.05700  Biso   1.000  C
  C204     1.0000 0.80480  0.81210  0.13790  Biso   1.000  C
  C205     1.0000 0.07850  0.81040  0.38420  Biso   1.000  C
  C206     1.0000 0.93500  0.80540  0.38740  Biso   1.000  C
  C207     1.0000 0.93290  0.80320  0.30550  Biso   1.000  C
  C208     1.0000 0.07770  0.80890  0.30300  Biso   1.000  C
  N193     1.0000 0.65690  0.80840  0.35020  Biso   1.000  N
  N194     1.0000 0.50330  0.81060  0.25638  Biso   1.000  N
  N195     1.0000 0.33710  0.81360  0.34080  Biso   1.000  N
  N196     1.0000 0.48830  0.82110  0.43625  Biso   1.000  N
  N197     1.0000 0.17980  0.81310  0.17290  Biso   1.000  N
  N198     1.0000 0.11920  0.81780  0.04993  Biso   1.000  N
  N199     1.0000 0.32650  0.81030  0.01300  Biso   1.000  N
  N200     1.0000 0.39880  0.80190  0.13749  Biso   1.000  N
  N201     1.0000 0.61460  0.81340  0.13850  Biso   1.000  N
  N202     1.0000 0.65720  0.81550  0.01630  Biso   1.000  N
  N203     1.0000 0.87900  0.81810  0.03720  Biso   1.000  N
  N204     1.0000 0.83600  0.81300  0.16510  Biso   1.000  N
  N205     1.0000 0.11690  0.81150  0.40750  Biso   1.000  N
  N206     1.0000 0.89850  0.80290  0.41210  Biso   1.000  N
  N207     1.0000 0.89290  0.79920  0.28190  Biso   1.000  N
  N208     1.0000 0.12110  0.80850  0.28130  Biso   1.000  N
  O13      1.0000 0.79190  0.80830  0.73401  Biso   1.000  O
  K14      1.0000 0.68897  0.38510  0.23398  Biso   1.000  K
  Pr27     1.0000 0.50605  0.30811  0.68212  Biso   1.000  Pr
  Pr28     1.0000 0.50695  0.31895  0.00993  Biso   1.000  Pr
  Pt53     1.0000 0.49695  0.31435  0.84633  Biso   1.000  Pt
  Pt54     1.0000 0.25799  0.31164  0.59466  Biso   1.000  Pt
  Pt55     1.0000 0.74919  0.31367  0.58944  Biso   1.000  Pt
  Pt56     1.0000 0.00521  0.30767  0.84485  Biso   1.000  Pt
  C209     1.0000 0.59840  0.31300  0.84870  Biso   1.000  C
  C210     1.0000 0.50230  0.31190  0.78940  Biso   1.000  C
  C211     1.0000 0.39550  0.31310  0.84290  Biso   1.000  C
  C212     1.0000 0.49060  0.31810  0.90370  Biso   1.000  C
  C213     1.0000 0.20900  0.31270  0.64520  Biso   1.000  C
  C214     1.0000 0.16860  0.31690  0.56680  Biso   1.000  C
  C215     1.0000 0.30430  0.31100  0.54330  Biso   1.000  C
  C216     1.0000 0.34770  0.30550  0.62210  Biso   1.000  C
  C217     1.0000 0.66390  0.31280  0.62100  Biso   1.000  C
  C218     1.0000 0.69080  0.31450  0.54350  Biso   1.000  C
  C219     1.0000 0.83180  0.31600  0.55700  Biso   1.000  C
  C220     1.0000 0.80480  0.31210  0.63790  Biso   1.000  C
  C221     1.0000 0.07850  0.31040  0.88420  Biso   1.000  C
  C222     1.0000 0.93500  0.30540  0.88740  Biso   1.000  C
  C223     1.0000 0.93290  0.30320  0.80550  Biso   1.000  C
  C224     1.0000 0.07770  0.30890  0.80300  Biso   1.000  C
  N209     1.0000 0.65690  0.30840  0.85020  Biso   1.000  N
  N210     1.0000 0.50330  0.31060  0.75638  Biso   1.000  N
  N211     1.0000 0.33710  0.31360  0.84080  Biso   1.000  N
  N212     1.0000 0.48830  0.32110  0.93625  Biso   1.000  N
  N213     1.0000 0.17980  0.31310  0.67290  Biso   1.000  N
  N214     1.0000 0.11920  0.31780  0.54993  Biso   1.000  N
  N215     1.0000 0.32650  0.31030  0.51300  Biso   1.000  N
  N216     1.0000 0.39880  0.30190  0.63749  Biso   1.000  N
  N217     1.0000 0.61460  0.31340  0.63850  Biso   1.000  N
  N218     1.0000 0.65720  0.31550  0.51630  Biso   1.000  N
  N219     1.0000 0.87900  0.31810  0.53720  Biso   1.000  N
  N220     1.0000 0.83600  0.31300  0.66510  Biso   1.000  N
  N221     1.0000 0.11690  0.31150  0.90750  Biso   1.000  N
  N222     1.0000 0.89850  0.30290  0.91210  Biso   1.000  N
  N223     1.0000 0.89290  0.29920  0.78190  Biso   1.000  N
  N224     1.0000 0.12110  0.30850  0.78130  Biso   1.000  N
  O14      1.0000 0.79190  0.30830  0.23401  Biso   1.000  O
  K15      1.0000 0.18897  0.88510  0.23398  Biso   1.000  K
  Pr29     1.0000 0.00605  0.80811  0.68212  Biso   1.000  Pr
  Pr30     1.0000 0.00695  0.81895  0.00993  Biso   1.000  Pr
  Pt57     1.0000 0.99695  0.81435  0.84633  Biso   1.000  Pt
  Pt58     1.0000 0.75799  0.81164  0.59466  Biso   1.000  Pt
  Pt59     1.0000 0.24919  0.81367  0.58944  Biso   1.000  Pt
  Pt60     1.0000 0.50521  0.80767  0.84485  Biso   1.000  Pt
  C225     1.0000 0.09840  0.81300  0.84870  Biso   1.000  C
  C226     1.0000 0.00230  0.81190  0.78940  Biso   1.000  C
  C227     1.0000 0.89550  0.81310  0.84290  Biso   1.000  C
  C228     1.0000 0.99060  0.81810  0.90370  Biso   1.000  C
  C229     1.0000 0.70900  0.81270  0.64520  Biso   1.000  C
  C230     1.0000 0.66860  0.81690  0.56680  Biso   1.000  C
  C231     1.0000 0.80430  0.81100  0.54330  Biso   1.000  C
  C232     1.0000 0.84770  0.80550  0.62210  Biso   1.000  C
  C233     1.0000 0.16390  0.81280  0.62100  Biso   1.000  C
  C234     1.0000 0.19080  0.81450  0.54350  Biso   1.000  C
  C235     1.0000 0.33180  0.81600  0.55700  Biso   1.000  C
  C236     1.0000 0.30480  0.81210  0.63790  Biso   1.000  C
  C237     1.0000 0.57850  0.81040  0.88420  Biso   1.000  C
  C238     1.0000 0.43500  0.80540  0.88740  Biso   1.000  C
  C239     1.0000 0.43290  0.80320  0.80550  Biso   1.000  C
  C240     1.0000 0.57770  0.80890  0.80300  Biso   1.000  C
  N225     1.0000 0.15690  0.80840  0.85020  Biso   1.000  N
  N226     1.0000 0.00330  0.81060  0.75638  Biso   1.000  N
  N227     1.0000 0.83710  0.81360  0.84080  Biso   1.000  N
  N228     1.0000 0.98830  0.82110  0.93625  Biso   1.000  N
  N229     1.0000 0.67980  0.81310  0.67290  Biso   1.000  N
  N230     1.0000 0.61920  0.81780  0.54993  Biso   1.000  N
  N231     1.0000 0.82650  0.81030  0.51300  Biso   1.000  N
  N232     1.0000 0.89880  0.80190  0.63749  Biso   1.000  N
  N233     1.0000 0.11460  0.81340  0.63850  Biso   1.000  N
  N234     1.0000 0.15720  0.81550  0.51630  Biso   1.000  N
  N235     1.0000 0.37900  0.81810  0.53720  Biso   1.000  N
  N236     1.0000 0.33600  0.81300  0.66510  Biso   1.000  N
  N237     1.0000 0.61690  0.81150  0.90750  Biso   1.000  N
  N238     1.0000 0.39850  0.80290  0.91210  Biso   1.000  N
  N239     1.0000 0.39290  0.79920  0.78190  Biso   1.000  N
  N240     1.0000 0.62110  0.80850  0.78130  Biso   1.000  N
  O15      1.0000 0.29190  0.80830  0.23401  Biso   1.000  O
  K16      1.0000 0.18897  0.38510  0.73398  Biso   1.000  K
  Pr31     1.0000 0.00605  0.30811  0.18212  Biso   1.000  Pr
  Pr32     1.0000 0.00695  0.31895  0.50993  Biso   1.000  Pr
  Pt61     1.0000 0.99695  0.31435  0.34633  Biso   1.000  Pt
  Pt62     1.0000 0.75799  0.31164  0.09466  Biso   1.000  Pt
  Pt63     1.0000 0.24919  0.31367  0.08944  Biso   1.000  Pt
  Pt64     1.0000 0.50521  0.30767  0.34485  Biso   1.000  Pt
  C241     1.0000 0.09840  0.31300  0.34870  Biso   1.000  C
  C242     1.0000 0.00230  0.31190  0.28940  Biso   1.000  C
  C243     1.0000 0.89550  0.31310  0.34290  Biso   1.000  C
  C244     1.0000 0.99060  0.31810  0.40370  Biso   1.000  C
  C245     1.0000 0.70900  0.31270  0.14520  Biso   1.000  C
  C246     1.0000 0.66860  0.31690  0.06680  Biso   1.000  C
  C247     1.0000 0.80430  0.31100  0.04330  Biso   1.000  C
  C248     1.0000 0.84770  0.30550  0.12210  Biso   1.000  C
  C249     1.0000 0.16390  0.31280  0.12100  Biso   1.000  C
  C250     1.0000 0.19080  0.31450  0.04350  Biso   1.000  C
  C251     1.0000 0.33180  0.31600  0.05700  Biso   1.000  C
  C252     1.0000 0.30480  0.31210  0.13790  Biso   1.000  C
  C253     1.0000 0.57850  0.31040  0.38420  Biso   1.000  C
  C254     1.0000 0.43500  0.30540  0.38740  Biso   1.000  C
  C255     1.0000 0.43290  0.30320  0.30550  Biso   1.000  C
  C256     1.0000 0.57770  0.30890  0.30300  Biso   1.000  C
  N241     1.0000 0.15690  0.30840  0.35020  Biso   1.000  N
  N242     1.0000 0.00330  0.31060  0.25638  Biso   1.000  N
  N243     1.0000 0.83710  0.31360  0.34080  Biso   1.000  N
  N244     1.0000 0.98830  0.32110  0.43625  Biso   1.000  N
  N245     1.0000 0.67980  0.31310  0.17290  Biso   1.000  N
  N246     1.0000 0.61920  0.31780  0.04993  Biso   1.000  N
  N247     1.0000 0.82650  0.31030  0.01300  Biso   1.000  N
  N248     1.0000 0.89880  0.30190  0.13749  Biso   1.000  N
  N249     1.0000 0.11460  0.31340  0.13850  Biso   1.000  N
  N250     1.0000 0.15720  0.31550  0.01630  Biso   1.000  N
  N251     1.0000 0.37900  0.31810  0.03720  Biso   1.000  N
  N252     1.0000 0.33600  0.31300  0.16510  Biso   1.000  N
  N253     1.0000 0.61690  0.31150  0.40750  Biso   1.000  N
  N254     1.0000 0.39850  0.30290  0.41210  Biso   1.000  N
  N255     1.0000 0.39290  0.29920  0.28190  Biso   1.000  N
  N256     1.0000 0.62110  0.30850  0.28130  Biso   1.000  N
  O16      1.0000 0.29190  0.30830  0.73401  Biso   1.000  O
  K17      1.0000 0.50000  0.50000  0.14427  Biso   1.000  K
  K18      1.0000 0.50000  0.50000  0.54530  Biso   1.000  K
  K19      1.0000 0.50000  0.00000  0.64427  Biso   1.000  K
  K20      1.0000 0.50000  0.00000  0.04530  Biso   1.000  K
  K21      1.0000 0.00000  0.50000  0.64427  Biso   1.000  K
  K22      1.0000 0.00000  0.50000  0.04530  Biso   1.000  K
  K23      1.0000 0.00000  0.00000  0.14427  Biso   1.000  K
  K24      1.0000 0.00000  0.00000  0.54530  Biso   1.000  K
  K25      1.0000 0.75000  0.75000  0.39427  Biso   1.000  K
  K26      1.0000 0.75000  0.75000  0.79530  Biso   1.000  K
  K27      1.0000 0.75000  0.25000  0.89427  Biso   1.000  K
  K28      1.0000 0.75000  0.25000  0.29530  Biso   1.000  K
  K29      1.0000 0.25000  0.75000  0.89427  Biso   1.000  K
  K30      1.0000 0.25000  0.75000  0.29530  Biso   1.000  K
  K31      1.0000 0.25000  0.25000  0.39427  Biso   1.000  K
  K32      1.0000 0.25000  0.25000  0.79530  Biso   1.000  K
