data_image0
_cell_length_a       19.4281
_cell_length_b       26.8587
_cell_length_c       34.727
_cell_angle_alpha    90
_cell_angle_beta     90
_cell_angle_gamma    90

_symmetry_space_group_name_H-M    "P 1"
_symmetry_int_tables_number       1

loop_
  _symmetry_equiv_pos_as_xyz
  'x, y, z'

loop_
  _atom_site_label
  _atom_site_occupancy
  _atom_site_fract_x
  _atom_site_fract_y
  _atom_site_fract_z
  _atom_site_thermal_displace_type
  _atom_site_B_iso_or_equiv
  _atom_site_type_symbol
  K1       1.0000 0.56064  0.63482  0.48373  Biso   1.000  K
  Nd1      1.0000 0.74386  0.55814  0.93202  Biso   1.000  Nd
  Nd2      1.0000 0.74277  0.56895  0.25988  Biso   1.000  Nd
  Pt1      1.0000 0.75291  0.56444  0.09628  Biso   1.000  Pt
  Pt2      1.0000 0.99205  0.56166  0.84474  Biso   1.000  Pt
  Pt3      1.0000 0.50065  0.56362  0.83943  Biso   1.000  Pt
  Pt4      1.0000 0.24478  0.55765  0.09495  Biso   1.000  Pt
  C1       1.0000 0.65180  0.56490  0.09840  Biso   1.000  C
  C2       1.0000 0.74890  0.56200  0.03920  Biso   1.000  C
  C3       1.0000 0.85550  0.56220  0.09420  Biso   1.000  C
  C4       1.0000 0.75760  0.56870  0.15300  Biso   1.000  C
  C5       1.0000 0.03950  0.56050  0.89510  Biso   1.000  C
  C6       1.0000 0.08230  0.56780  0.81670  Biso   1.000  C
  C7       1.0000 0.94660  0.56190  0.79390  Biso   1.000  C
  C8       1.0000 0.90200  0.55490  0.87120  Biso   1.000  C
  C9       1.0000 0.58670  0.56300  0.87130  Biso   1.000  C
  C10      1.0000 0.56010  0.56380  0.79250  Biso   1.000  C
  C11      1.0000 0.41870  0.56540  0.80740  Biso   1.000  C
  C12      1.0000 0.44450  0.56320  0.88770  Biso   1.000  C
  C13      1.0000 0.17530  0.56140  0.13400  Biso   1.000  C
  C14      1.0000 0.31540  0.55510  0.13770  Biso   1.000  C
  C15      1.0000 0.31550  0.55430  0.05580  Biso   1.000  C
  C16      1.0000 0.17270  0.55850  0.05300  Biso   1.000  C
  N1       1.0000 0.59260  0.55860  0.10030  Biso   1.000  N
  N2       1.0000 0.74660  0.56060  0.00600  Biso   1.000  N
  N3       1.0000 0.91440  0.56350  0.09070  Biso   1.000  N
  N4       1.0000 0.76160  0.57070  0.18620  Biso   1.000  N
  N5       1.0000 0.06990  0.56350  0.92310  Biso   1.000  N
  N6       1.0000 0.13050  0.56780  0.79950  Biso   1.000  N
  N7       1.0000 0.92320  0.55930  0.76280  Biso   1.000  N
  N8       1.0000 0.85100  0.55190  0.88790  Biso   1.000  N
  N9       1.0000 0.63600  0.56300  0.88800  Biso   1.000  N
  N10      1.0000 0.59160  0.56550  0.76560  Biso   1.000  N
  N11      1.0000 0.36900  0.56760  0.78670  Biso   1.000  N
  N12      1.0000 0.41460  0.56180  0.91510  Biso   1.000  N
  N13      1.0000 0.13150  0.56140  0.15740  Biso   1.000  N
  N14      1.0000 0.34960  0.55270  0.16270  Biso   1.000  N
  N15      1.0000 0.35840  0.54840  0.03200  Biso   1.000  N
  N16      1.0000 0.12770  0.55890  0.03130  Biso   1.000  N
  O1       1.0000 0.45910  0.55690  0.48390  Biso   1.000  O
  K2       1.0000 0.56064  0.13482  0.98373  Biso   1.000  K
  Nd3      1.0000 0.74386  0.05814  0.43202  Biso   1.000  Nd
  Nd4      1.0000 0.74277  0.06895  0.75988  Biso   1.000  Nd
  Pt5      1.0000 0.75291  0.06444  0.59628  Biso   1.000  Pt
  Pt6      1.0000 0.99205  0.06166  0.34474  Biso   1.000  Pt
  Pt7      1.0000 0.50065  0.06362  0.33943  Biso   1.000  Pt
  Pt8      1.0000 0.24478  0.05765  0.59495  Biso   1.000  Pt
  C17      1.0000 0.65180  0.06490  0.59840  Biso   1.000  C
  C18      1.0000 0.74890  0.06200  0.53920  Biso   1.000  C
  C19      1.0000 0.85550  0.06220  0.59420  Biso   1.000  C
  C20      1.0000 0.75760  0.06870  0.65300  Biso   1.000  C
  C21      1.0000 0.03950  0.06050  0.39510  Biso   1.000  C
  C22      1.0000 0.08230  0.06780  0.31670  Biso   1.000  C
  C23      1.0000 0.94660  0.06190  0.29390  Biso   1.000  C
  C24      1.0000 0.90200  0.05490  0.37120  Biso   1.000  C
  C25      1.0000 0.58670  0.06300  0.37130  Biso   1.000  C
  C26      1.0000 0.56010  0.06380  0.29250  Biso   1.000  C
  C27      1.0000 0.41870  0.06540  0.30740  Biso   1.000  C
  C28      1.0000 0.44450  0.06320  0.38770  Biso   1.000  C
  C29      1.0000 0.17530  0.06140  0.63400  Biso   1.000  C
  C30      1.0000 0.31540  0.05510  0.63770  Biso   1.000  C
  C31      1.0000 0.31550  0.05430  0.55580  Biso   1.000  C
  C32      1.0000 0.17270  0.05850  0.55300  Biso   1.000  C
  N17      1.0000 0.59260  0.05860  0.60030  Biso   1.000  N
  N18      1.0000 0.74660  0.06060  0.50600  Biso   1.000  N
  N19      1.0000 0.91440  0.06350  0.59070  Biso   1.000  N
  N20      1.0000 0.76160  0.07070  0.68620  Biso   1.000  N
  N21      1.0000 0.06990  0.06350  0.42310  Biso   1.000  N
  N22      1.0000 0.13050  0.06780  0.29950  Biso   1.000  N
  N23      1.0000 0.92320  0.05930  0.26280  Biso   1.000  N
  N24      1.0000 0.85100  0.05190  0.38790  Biso   1.000  N
  N25      1.0000 0.63600  0.06300  0.38800  Biso   1.000  N
  N26      1.0000 0.59160  0.06550  0.26560  Biso   1.000  N
  N27      1.0000 0.36900  0.06760  0.28670  Biso   1.000  N
  N28      1.0000 0.41460  0.06180  0.41510  Biso   1.000  N
  N29      1.0000 0.13150  0.06140  0.65740  Biso   1.000  N
  N30      1.0000 0.34960  0.05270  0.66270  Biso   1.000  N
  N31      1.0000 0.35840  0.04840  0.53200  Biso   1.000  N
  N32      1.0000 0.12770  0.05890  0.53130  Biso   1.000  N
  O2       1.0000 0.45910  0.05690  0.98390  Biso   1.000  O
  K3       1.0000 0.06064  0.63482  0.98373  Biso   1.000  K
  Nd5      1.0000 0.24386  0.55814  0.43202  Biso   1.000  Nd
  Nd6      1.0000 0.24277  0.56895  0.75988  Biso   1.000  Nd
  Pt9      1.0000 0.25291  0.56444  0.59628  Biso   1.000  Pt
  Pt10     1.0000 0.49205  0.56166  0.34474  Biso   1.000  Pt
  Pt11     1.0000 0.00065  0.56362  0.33943  Biso   1.000  Pt
  Pt12     1.0000 0.74478  0.55765  0.59495  Biso   1.000  Pt
  C33      1.0000 0.15180  0.56490  0.59840  Biso   1.000  C
  C34      1.0000 0.24890  0.56200  0.53920  Biso   1.000  C
  C35      1.0000 0.35550  0.56220  0.59420  Biso   1.000  C
  C36      1.0000 0.25760  0.56870  0.65300  Biso   1.000  C
  C37      1.0000 0.53950  0.56050  0.39510  Biso   1.000  C
  C38      1.0000 0.58230  0.56780  0.31670  Biso   1.000  C
  C39      1.0000 0.44660  0.56190  0.29390  Biso   1.000  C
  C40      1.0000 0.40200  0.55490  0.37120  Biso   1.000  C
  C41      1.0000 0.08670  0.56300  0.37130  Biso   1.000  C
  C42      1.0000 0.06010  0.56380  0.29250  Biso   1.000  C
  C43      1.0000 0.91870  0.56540  0.30740  Biso   1.000  C
  C44      1.0000 0.94450  0.56320  0.38770  Biso   1.000  C
  C45      1.0000 0.67530  0.56140  0.63400  Biso   1.000  C
  C46      1.0000 0.81540  0.55510  0.63770  Biso   1.000  C
  C47      1.0000 0.81550  0.55430  0.55580  Biso   1.000  C
  C48      1.0000 0.67270  0.55850  0.55300  Biso   1.000  C
  N33      1.0000 0.09260  0.55860  0.60030  Biso   1.000  N
  N34      1.0000 0.24660  0.56060  0.50600  Biso   1.000  N
  N35      1.0000 0.41440  0.56350  0.59070  Biso   1.000  N
  N36      1.0000 0.26160  0.57070  0.68620  Biso   1.000  N
  N37      1.0000 0.56990  0.56350  0.42310  Biso   1.000  N
  N38      1.0000 0.63050  0.56780  0.29950  Biso   1.000  N
  N39      1.0000 0.42320  0.55930  0.26280  Biso   1.000  N
  N40      1.0000 0.35100  0.55190  0.38790  Biso   1.000  N
  N41      1.0000 0.13600  0.56300  0.38800  Biso   1.000  N
  N42      1.0000 0.09160  0.56550  0.26560  Biso   1.000  N
  N43      1.0000 0.86900  0.56760  0.28670  Biso   1.000  N
  N44      1.0000 0.91460  0.56180  0.41510  Biso   1.000  N
  N45      1.0000 0.63150  0.56140  0.65740  Biso   1.000  N
  N46      1.0000 0.84960  0.55270  0.66270  Biso   1.000  N
  N47      1.0000 0.85840  0.54840  0.53200  Biso   1.000  N
  N48      1.0000 0.62770  0.55890  0.53130  Biso   1.000  N
  O3       1.0000 0.95910  0.55690  0.98390  Biso   1.000  O
  K4       1.0000 0.06064  0.13482  0.48373  Biso   1.000  K
  Nd7      1.0000 0.24386  0.05814  0.93202  Biso   1.000  Nd
  Nd8      1.0000 0.24277  0.06895  0.25988  Biso   1.000  Nd
  Pt13     1.0000 0.25291  0.06444  0.09628  Biso   1.000  Pt
  Pt14     1.0000 0.49205  0.06166  0.84474  Biso   1.000  Pt
  Pt15     1.0000 0.00065  0.06362  0.83943  Biso   1.000  Pt
  Pt16     1.0000 0.74478  0.05765  0.09495  Biso   1.000  Pt
  C49      1.0000 0.15180  0.06490  0.09840  Biso   1.000  C
  C50      1.0000 0.24890  0.06200  0.03920  Biso   1.000  C
  C51      1.0000 0.35550  0.06220  0.09420  Biso   1.000  C
  C52      1.0000 0.25760  0.06870  0.15300  Biso   1.000  C
  C53      1.0000 0.53950  0.06050  0.89510  Biso   1.000  C
  C54      1.0000 0.58230  0.06780  0.81670  Biso   1.000  C
  C55      1.0000 0.44660  0.06190  0.79390  Biso   1.000  C
  C56      1.0000 0.40200  0.05490  0.87120  Biso   1.000  C
  C57      1.0000 0.08670  0.06300  0.87130  Biso   1.000  C
  C58      1.0000 0.06010  0.06380  0.79250  Biso   1.000  C
  C59      1.0000 0.91870  0.06540  0.80740  Biso   1.000  C
  C60      1.0000 0.94450  0.06320  0.88770  Biso   1.000  C
  C61      1.0000 0.67530  0.06140  0.13400  Biso   1.000  C
  C62      1.0000 0.81540  0.05510  0.13770  Biso   1.000  C
  C63      1.0000 0.81550  0.05430  0.05580  Biso   1.000  C
  C64      1.0000 0.67270  0.05850  0.05300  Biso   1.000  C
  N49      1.0000 0.09260  0.05860  0.10030  Biso   1.000  N
  N50      1.0000 0.24660  0.06060  0.00600  Biso   1.000  N
  N51      1.0000 0.41440  0.06350  0.09070  Biso   1.000  N
  N52      1.0000 0.26160  0.07070  0.18620  Biso   1.000  N
  N53      1.0000 0.56990  0.06350  0.92310  Biso   1.000  N
  N54      1.0000 0.63050  0.06780  0.79950  Biso   1.000  N
  N55      1.0000 0.42320  0.05930  0.76280  Biso   1.000  N
  N56      1.0000 0.35100  0.05190  0.88790  Biso   1.000  N
  N57      1.0000 0.13600  0.06300  0.88800  Biso   1.000  N
  N58      1.0000 0.09160  0.06550  0.76560  Biso   1.000  N
  N59      1.0000 0.86900  0.06760  0.78670  Biso   1.000  N
  N60      1.0000 0.91460  0.06180  0.91510  Biso   1.000  N
  N61      1.0000 0.63150  0.06140  0.15740  Biso   1.000  N
  N62      1.0000 0.84960  0.05270  0.16270  Biso   1.000  N
  N63      1.0000 0.85840  0.04840  0.03200  Biso   1.000  N
  N64      1.0000 0.62770  0.05890  0.03130  Biso   1.000  N
  O4       1.0000 0.95910  0.05690  0.48390  Biso   1.000  O
  K5       1.0000 0.43936  0.36518  0.48373  Biso   1.000  K
  Nd9      1.0000 0.25614  0.44186  0.93202  Biso   1.000  Nd
  Nd10     1.0000 0.25723  0.43105  0.25988  Biso   1.000  Nd
  Pt17     1.0000 0.24709  0.43556  0.09628  Biso   1.000  Pt
  Pt18     1.0000 0.00795  0.43834  0.84474  Biso   1.000  Pt
  Pt19     1.0000 0.49935  0.43638  0.83943  Biso   1.000  Pt
  Pt20     1.0000 0.75522  0.44235  0.09495  Biso   1.000  Pt
  C65      1.0000 0.34820  0.43510  0.09840  Biso   1.000  C
  C66      1.0000 0.25110  0.43800  0.03920  Biso   1.000  C
  C67      1.0000 0.14450  0.43780  0.09420  Biso   1.000  C
  C68      1.0000 0.24240  0.43130  0.15300  Biso   1.000  C
  C69      1.0000 0.96050  0.43950  0.89510  Biso   1.000  C
  C70      1.0000 0.91770  0.43220  0.81670  Biso   1.000  C
  C71      1.0000 0.05340  0.43810  0.79390  Biso   1.000  C
  C72      1.0000 0.09800  0.44510  0.87120  Biso   1.000  C
  C73      1.0000 0.41330  0.43700  0.87130  Biso   1.000  C
  C74      1.0000 0.43990  0.43620  0.79250  Biso   1.000  C
  C75      1.0000 0.58130  0.43460  0.80740  Biso   1.000  C
  C76      1.0000 0.55550  0.43680  0.88770  Biso   1.000  C
  C77      1.0000 0.82470  0.43860  0.13400  Biso   1.000  C
  C78      1.0000 0.68460  0.44490  0.13770  Biso   1.000  C
  C79      1.0000 0.68450  0.44570  0.05580  Biso   1.000  C
  C80      1.0000 0.82730  0.44150  0.05300  Biso   1.000  C
  N65      1.0000 0.40740  0.44140  0.10030  Biso   1.000  N
  N66      1.0000 0.25340  0.43940  0.00600  Biso   1.000  N
  N67      1.0000 0.08560  0.43650  0.09070  Biso   1.000  N
  N68      1.0000 0.23840  0.42930  0.18620  Biso   1.000  N
  N69      1.0000 0.93010  0.43650  0.92310  Biso   1.000  N
  N70      1.0000 0.86950  0.43220  0.79950  Biso   1.000  N
  N71      1.0000 0.07680  0.44070  0.76280  Biso   1.000  N
  N72      1.0000 0.14900  0.44810  0.88790  Biso   1.000  N
  N73      1.0000 0.36400  0.43700  0.88800  Biso   1.000  N
  N74      1.0000 0.40840  0.43450  0.76560  Biso   1.000  N
  N75      1.0000 0.63100  0.43240  0.78670  Biso   1.000  N
  N76      1.0000 0.58540  0.43820  0.91510  Biso   1.000  N
  N77      1.0000 0.86850  0.43860  0.15740  Biso   1.000  N
  N78      1.0000 0.65040  0.44730  0.16270  Biso   1.000  N
  N79      1.0000 0.64160  0.45160  0.03200  Biso   1.000  N
  N80      1.0000 0.87230  0.44110  0.03130  Biso   1.000  N
  O5       1.0000 0.54090  0.44310  0.48390  Biso   1.000  O
  K6       1.0000 0.43936  0.86518  0.98373  Biso   1.000  K
  Nd11     1.0000 0.25614  0.94186  0.43202  Biso   1.000  Nd
  Nd12     1.0000 0.25723  0.93105  0.75988  Biso   1.000  Nd
  Pt21     1.0000 0.24709  0.93556  0.59628  Biso   1.000  Pt
  Pt22     1.0000 0.00795  0.93834  0.34474  Biso   1.000  Pt
  Pt23     1.0000 0.49935  0.93638  0.33943  Biso   1.000  Pt
  Pt24     1.0000 0.75522  0.94235  0.59495  Biso   1.000  Pt
  C81      1.0000 0.34820  0.93510  0.59840  Biso   1.000  C
  C82      1.0000 0.25110  0.93800  0.53920  Biso   1.000  C
  C83      1.0000 0.14450  0.93780  0.59420  Biso   1.000  C
  C84      1.0000 0.24240  0.93130  0.65300  Biso   1.000  C
  C85      1.0000 0.96050  0.93950  0.39510  Biso   1.000  C
  C86      1.0000 0.91770  0.93220  0.31670  Biso   1.000  C
  C87      1.0000 0.05340  0.93810  0.29390  Biso   1.000  C
  C88      1.0000 0.09800  0.94510  0.37120  Biso   1.000  C
  C89      1.0000 0.41330  0.93700  0.37130  Biso   1.000  C
  C90      1.0000 0.43990  0.93620  0.29250  Biso   1.000  C
  C91      1.0000 0.58130  0.93460  0.30740  Biso   1.000  C
  C92      1.0000 0.55550  0.93680  0.38770  Biso   1.000  C
  C93      1.0000 0.82470  0.93860  0.63400  Biso   1.000  C
  C94      1.0000 0.68460  0.94490  0.63770  Biso   1.000  C
  C95      1.0000 0.68450  0.94570  0.55580  Biso   1.000  C
  C96      1.0000 0.82730  0.94150  0.55300  Biso   1.000  C
  N81      1.0000 0.40740  0.94140  0.60030  Biso   1.000  N
  N82      1.0000 0.25340  0.93940  0.50600  Biso   1.000  N
  N83      1.0000 0.08560  0.93650  0.59070  Biso   1.000  N
  N84      1.0000 0.23840  0.92930  0.68620  Biso   1.000  N
  N85      1.0000 0.93010  0.93650  0.42310  Biso   1.000  N
  N86      1.0000 0.86950  0.93220  0.29950  Biso   1.000  N
  N87      1.0000 0.07680  0.94070  0.26280  Biso   1.000  N
  N88      1.0000 0.14900  0.94810  0.38790  Biso   1.000  N
  N89      1.0000 0.36400  0.93700  0.38800  Biso   1.000  N
  N90      1.0000 0.40840  0.93450  0.26560  Biso   1.000  N
  N91      1.0000 0.63100  0.93240  0.28670  Biso   1.000  N
  N92      1.0000 0.58540  0.93820  0.41510  Biso   1.000  N
  N93      1.0000 0.86850  0.93860  0.65740  Biso   1.000  N
  N94      1.0000 0.65040  0.94730  0.66270  Biso   1.000  N
  N95      1.0000 0.64160  0.95160  0.53200  Biso   1.000  N
  N96      1.0000 0.87230  0.94110  0.53130  Biso   1.000  N
  O6       1.0000 0.54090  0.94310  0.98390  Biso   1.000  O
  K7       1.0000 0.93936  0.36518  0.98373  Biso   1.000  K
  Nd13     1.0000 0.75614  0.44186  0.43202  Biso   1.000  Nd
  Nd14     1.0000 0.75723  0.43105  0.75988  Biso   1.000  Nd
  Pt25     1.0000 0.74709  0.43556  0.59628  Biso   1.000  Pt
  Pt26     1.0000 0.50795  0.43834  0.34474  Biso   1.000  Pt
  Pt27     1.0000 0.99935  0.43638  0.33943  Biso   1.000  Pt
  Pt28     1.0000 0.25522  0.44235  0.59495  Biso   1.000  Pt
  C97      1.0000 0.84820  0.43510  0.59840  Biso   1.000  C
  C98      1.0000 0.75110  0.43800  0.53920  Biso   1.000  C
  C99      1.0000 0.64450  0.43780  0.59420  Biso   1.000  C
  C100     1.0000 0.74240  0.43130  0.65300  Biso   1.000  C
  C101     1.0000 0.46050  0.43950  0.39510  Biso   1.000  C
  C102     1.0000 0.41770  0.43220  0.31670  Biso   1.000  C
  C103     1.0000 0.55340  0.43810  0.29390  Biso   1.000  C
  C104     1.0000 0.59800  0.44510  0.37120  Biso   1.000  C
  C105     1.0000 0.91330  0.43700  0.37130  Biso   1.000  C
  C106     1.0000 0.93990  0.43620  0.29250  Biso   1.000  C
  C107     1.0000 0.08130  0.43460  0.30740  Biso   1.000  C
  C108     1.0000 0.05550  0.43680  0.38770  Biso   1.000  C
  C109     1.0000 0.32470  0.43860  0.63400  Biso   1.000  C
  C110     1.0000 0.18460  0.44490  0.63770  Biso   1.000  C
  C111     1.0000 0.18450  0.44570  0.55580  Biso   1.000  C
  C112     1.0000 0.32730  0.44150  0.55300  Biso   1.000  C
  N97      1.0000 0.90740  0.44140  0.60030  Biso   1.000  N
  N98      1.0000 0.75340  0.43940  0.50600  Biso   1.000  N
  N99      1.0000 0.58560  0.43650  0.59070  Biso   1.000  N
  N100     1.0000 0.73840  0.42930  0.68620  Biso   1.000  N
  N101     1.0000 0.43010  0.43650  0.42310  Biso   1.000  N
  N102     1.0000 0.36950  0.43220  0.29950  Biso   1.000  N
  N103     1.0000 0.57680  0.44070  0.26280  Biso   1.000  N
  N104     1.0000 0.64900  0.44810  0.38790  Biso   1.000  N
  N105     1.0000 0.86400  0.43700  0.38800  Biso   1.000  N
  N106     1.0000 0.90840  0.43450  0.26560  Biso   1.000  N
  N107     1.0000 0.13100  0.43240  0.28670  Biso   1.000  N
  N108     1.0000 0.08540  0.43820  0.41510  Biso   1.000  N
  N109     1.0000 0.36850  0.43860  0.65740  Biso   1.000  N
  N110     1.0000 0.15040  0.44730  0.66270  Biso   1.000  N
  N111     1.0000 0.14160  0.45160  0.53200  Biso   1.000  N
  N112     1.0000 0.37230  0.44110  0.53130  Biso   1.000  N
  O7       1.0000 0.04090  0.44310  0.98390  Biso   1.000  O
  K8       1.0000 0.93936  0.86518  0.48373  Biso   1.000  K
  Nd15     1.0000 0.75614  0.94186  0.93202  Biso   1.000  Nd
  Nd16     1.0000 0.75723  0.93105  0.25988  Biso   1.000  Nd
  Pt29     1.0000 0.74709  0.93556  0.09628  Biso   1.000  Pt
  Pt30     1.0000 0.50795  0.93834  0.84474  Biso   1.000  Pt
  Pt31     1.0000 0.99935  0.93638  0.83943  Biso   1.000  Pt
  Pt32     1.0000 0.25522  0.94235  0.09495  Biso   1.000  Pt
  C113     1.0000 0.84820  0.93510  0.09840  Biso   1.000  C
  C114     1.0000 0.75110  0.93800  0.03920  Biso   1.000  C
  C115     1.0000 0.64450  0.93780  0.09420  Biso   1.000  C
  C116     1.0000 0.74240  0.93130  0.15300  Biso   1.000  C
  C117     1.0000 0.46050  0.93950  0.89510  Biso   1.000  C
  C118     1.0000 0.41770  0.93220  0.81670  Biso   1.000  C
  C119     1.0000 0.55340  0.93810  0.79390  Biso   1.000  C
  C120     1.0000 0.59800  0.94510  0.87120  Biso   1.000  C
  C121     1.0000 0.91330  0.93700  0.87130  Biso   1.000  C
  C122     1.0000 0.93990  0.93620  0.79250  Biso   1.000  C
  C123     1.0000 0.08130  0.93460  0.80740  Biso   1.000  C
  C124     1.0000 0.05550  0.93680  0.88770  Biso   1.000  C
  C125     1.0000 0.32470  0.93860  0.13400  Biso   1.000  C
  C126     1.0000 0.18460  0.94490  0.13770  Biso   1.000  C
  C127     1.0000 0.18450  0.94570  0.05580  Biso   1.000  C
  C128     1.0000 0.32730  0.94150  0.05300  Biso   1.000  C
  N113     1.0000 0.90740  0.94140  0.10030  Biso   1.000  N
  N114     1.0000 0.75340  0.93940  0.00600  Biso   1.000  N
  N115     1.0000 0.58560  0.93650  0.09070  Biso   1.000  N
  N116     1.0000 0.73840  0.92930  0.18620  Biso   1.000  N
  N117     1.0000 0.43010  0.93650  0.92310  Biso   1.000  N
  N118     1.0000 0.36950  0.93220  0.79950  Biso   1.000  N
  N119     1.0000 0.57680  0.94070  0.76280  Biso   1.000  N
  N120     1.0000 0.64900  0.94810  0.88790  Biso   1.000  N
  N121     1.0000 0.86400  0.93700  0.88800  Biso   1.000  N
  N122     1.0000 0.90840  0.93450  0.76560  Biso   1.000  N
  N123     1.0000 0.13100  0.93240  0.78670  Biso   1.000  N
  N124     1.0000 0.08540  0.93820  0.91510  Biso   1.000  N
  N125     1.0000 0.36850  0.93860  0.15740  Biso   1.000  N
  N126     1.0000 0.15040  0.94730  0.16270  Biso   1.000  N
  N127     1.0000 0.14160  0.95160  0.03200  Biso   1.000  N
  N128     1.0000 0.37230  0.94110  0.03130  Biso   1.000  N
  O8       1.0000 0.04090  0.94310  0.48390  Biso   1.000  O
  K9       1.0000 0.81064  0.61518  0.73373  Biso   1.000  K
  Nd17     1.0000 0.99386  0.69186  0.18202  Biso   1.000  Nd
  Nd18     1.0000 0.99277  0.68105  0.50988  Biso   1.000  Nd
  Pt33     1.0000 0.00291  0.68556  0.34628  Biso   1.000  Pt
  Pt34     1.0000 0.24205  0.68834  0.09474  Biso   1.000  Pt
  Pt35     1.0000 0.75065  0.68638  0.08943  Biso   1.000  Pt
  Pt36     1.0000 0.49478  0.69235  0.34495  Biso   1.000  Pt
  C129     1.0000 0.90180  0.68510  0.34840  Biso   1.000  C
  C130     1.0000 0.99890  0.68800  0.28920  Biso   1.000  C
  C131     1.0000 0.10550  0.68780  0.34420  Biso   1.000  C
  C132     1.0000 0.00760  0.68130  0.40300  Biso   1.000  C
  C133     1.0000 0.28950  0.68950  0.14510  Biso   1.000  C
  C134     1.0000 0.33230  0.68220  0.06670  Biso   1.000  C
  C135     1.0000 0.19660  0.68810  0.04390  Biso   1.000  C
  C136     1.0000 0.15200  0.69510  0.12120  Biso   1.000  C
  C137     1.0000 0.83670  0.68700  0.12130  Biso   1.000  C
  C138     1.0000 0.81010  0.68620  0.04250  Biso   1.000  C
  C139     1.0000 0.66870  0.68460  0.05740  Biso   1.000  C
  C140     1.0000 0.69450  0.68680  0.13770  Biso   1.000  C
  C141     1.0000 0.42530  0.68860  0.38400  Biso   1.000  C
  C142     1.0000 0.56540  0.69490  0.38770  Biso   1.000  C
  C143     1.0000 0.56550  0.69570  0.30580  Biso   1.000  C
  C144     1.0000 0.42270  0.69150  0.30300  Biso   1.000  C
  N129     1.0000 0.84260  0.69140  0.35030  Biso   1.000  N
  N130     1.0000 0.99660  0.68940  0.25600  Biso   1.000  N
  N131     1.0000 0.16440  0.68650  0.34070  Biso   1.000  N
  N132     1.0000 0.01160  0.67930  0.43620  Biso   1.000  N
  N133     1.0000 0.31990  0.68650  0.17310  Biso   1.000  N
  N134     1.0000 0.38050  0.68220  0.04950  Biso   1.000  N
  N135     1.0000 0.17320  0.69070  0.01280  Biso   1.000  N
  N136     1.0000 0.10100  0.69810  0.13790  Biso   1.000  N
  N137     1.0000 0.88600  0.68700  0.13800  Biso   1.000  N
  N138     1.0000 0.84160  0.68450  0.01560  Biso   1.000  N
  N139     1.0000 0.61900  0.68240  0.03670  Biso   1.000  N
  N140     1.0000 0.66460  0.68820  0.16510  Biso   1.000  N
  N141     1.0000 0.38150  0.68860  0.40740  Biso   1.000  N
  N142     1.0000 0.59960  0.69730  0.41270  Biso   1.000  N
  N143     1.0000 0.60840  0.70160  0.28200  Biso   1.000  N
  N144     1.0000 0.37770  0.69110  0.28130  Biso   1.000  N
  O9       1.0000 0.70910  0.69310  0.73390  Biso   1.000  O
  K10      1.0000 0.81064  0.11518  0.23373  Biso   1.000  K
  Nd19     1.0000 0.99386  0.19186  0.68202  Biso   1.000  Nd
  Nd20     1.0000 0.99277  0.18105  0.00988  Biso   1.000  Nd
  Pt37     1.0000 0.00291  0.18556  0.84628  Biso   1.000  Pt
  Pt38     1.0000 0.24205  0.18834  0.59474  Biso   1.000  Pt
  Pt39     1.0000 0.75065  0.18638  0.58943  Biso   1.000  Pt
  Pt40     1.0000 0.49478  0.19235  0.84495  Biso   1.000  Pt
  C145     1.0000 0.90180  0.18510  0.84840  Biso   1.000  C
  C146     1.0000 0.99890  0.18800  0.78920  Biso   1.000  C
  C147     1.0000 0.10550  0.18780  0.84420  Biso   1.000  C
  C148     1.0000 0.00760  0.18130  0.90300  Biso   1.000  C
  C149     1.0000 0.28950  0.18950  0.64510  Biso   1.000  C
  C150     1.0000 0.33230  0.18220  0.56670  Biso   1.000  C
  C151     1.0000 0.19660  0.18810  0.54390  Biso   1.000  C
  C152     1.0000 0.15200  0.19510  0.62120  Biso   1.000  C
  C153     1.0000 0.83670  0.18700  0.62130  Biso   1.000  C
  C154     1.0000 0.81010  0.18620  0.54250  Biso   1.000  C
  C155     1.0000 0.66870  0.18460  0.55740  Biso   1.000  C
  C156     1.0000 0.69450  0.18680  0.63770  Biso   1.000  C
  C157     1.0000 0.42530  0.18860  0.88400  Biso   1.000  C
  C158     1.0000 0.56540  0.19490  0.88770  Biso   1.000  C
  C159     1.0000 0.56550  0.19570  0.80580  Biso   1.000  C
  C160     1.0000 0.42270  0.19150  0.80300  Biso   1.000  C
  N145     1.0000 0.84260  0.19140  0.85030  Biso   1.000  N
  N146     1.0000 0.99660  0.18940  0.75600  Biso   1.000  N
  N147     1.0000 0.16440  0.18650  0.84070  Biso   1.000  N
  N148     1.0000 0.01160  0.17930  0.93620  Biso   1.000  N
  N149     1.0000 0.31990  0.18650  0.67310  Biso   1.000  N
  N150     1.0000 0.38050  0.18220  0.54950  Biso   1.000  N
  N151     1.0000 0.17320  0.19070  0.51280  Biso   1.000  N
  N152     1.0000 0.10100  0.19810  0.63790  Biso   1.000  N
  N153     1.0000 0.88600  0.18700  0.63800  Biso   1.000  N
  N154     1.0000 0.84160  0.18450  0.51560  Biso   1.000  N
  N155     1.0000 0.61900  0.18240  0.53670  Biso   1.000  N
  N156     1.0000 0.66460  0.18820  0.66510  Biso   1.000  N
  N157     1.0000 0.38150  0.18860  0.90740  Biso   1.000  N
  N158     1.0000 0.59960  0.19730  0.91270  Biso   1.000  N
  N159     1.0000 0.60840  0.20160  0.78200  Biso   1.000  N
  N160     1.0000 0.37770  0.19110  0.78130  Biso   1.000  N
  O10      1.0000 0.70910  0.19310  0.23390  Biso   1.000  O
  K11      1.0000 0.31064  0.61518  0.23373  Biso   1.000  K
  Nd21     1.0000 0.49386  0.69186  0.68202  Biso   1.000  Nd
  Nd22     1.0000 0.49277  0.68105  0.00988  Biso   1.000  Nd
  Pt41     1.0000 0.50291  0.68556  0.84628  Biso   1.000  Pt
  Pt42     1.0000 0.74205  0.68834  0.59474  Biso   1.000  Pt
  Pt43     1.0000 0.25065  0.68638  0.58943  Biso   1.000  Pt
  Pt44     1.0000 0.99478  0.69235  0.84495  Biso   1.000  Pt
  C161     1.0000 0.40180  0.68510  0.84840  Biso   1.000  C
  C162     1.0000 0.49890  0.68800  0.78920  Biso   1.000  C
  C163     1.0000 0.60550  0.68780  0.84420  Biso   1.000  C
  C164     1.0000 0.50760  0.68130  0.90300  Biso   1.000  C
  C165     1.0000 0.78950  0.68950  0.64510  Biso   1.000  C
  C166     1.0000 0.83230  0.68220  0.56670  Biso   1.000  C
  C167     1.0000 0.69660  0.68810  0.54390  Biso   1.000  C
  C168     1.0000 0.65200  0.69510  0.62120  Biso   1.000  C
  C169     1.0000 0.33670  0.68700  0.62130  Biso   1.000  C
  C170     1.0000 0.31010  0.68620  0.54250  Biso   1.000  C
  C171     1.0000 0.16870  0.68460  0.55740  Biso   1.000  C
  C172     1.0000 0.19450  0.68680  0.63770  Biso   1.000  C
  C173     1.0000 0.92530  0.68860  0.88400  Biso   1.000  C
  C174     1.0000 0.06540  0.69490  0.88770  Biso   1.000  C
  C175     1.0000 0.06550  0.69570  0.80580  Biso   1.000  C
  C176     1.0000 0.92270  0.69150  0.80300  Biso   1.000  C
  N161     1.0000 0.34260  0.69140  0.85030  Biso   1.000  N
  N162     1.0000 0.49660  0.68940  0.75600  Biso   1.000  N
  N163     1.0000 0.66440  0.68650  0.84070  Biso   1.000  N
  N164     1.0000 0.51160  0.67930  0.93620  Biso   1.000  N
  N165     1.0000 0.81990  0.68650  0.67310  Biso   1.000  N
  N166     1.0000 0.88050  0.68220  0.54950  Biso   1.000  N
  N167     1.0000 0.67320  0.69070  0.51280  Biso   1.000  N
  N168     1.0000 0.60100  0.69810  0.63790  Biso   1.000  N
  N169     1.0000 0.38600  0.68700  0.63800  Biso   1.000  N
  N170     1.0000 0.34160  0.68450  0.51560  Biso   1.000  N
  N171     1.0000 0.11900  0.68240  0.53670  Biso   1.000  N
  N172     1.0000 0.16460  0.68820  0.66510  Biso   1.000  N
  N173     1.0000 0.88150  0.68860  0.90740  Biso   1.000  N
  N174     1.0000 0.09960  0.69730  0.91270  Biso   1.000  N
  N175     1.0000 0.10840  0.70160  0.78200  Biso   1.000  N
  N176     1.0000 0.87770  0.69110  0.78130  Biso   1.000  N
  O11      1.0000 0.20910  0.69310  0.23390  Biso   1.000  O
  K12      1.0000 0.31064  0.11518  0.73373  Biso   1.000  K
  Nd23     1.0000 0.49386  0.19186  0.18202  Biso   1.000  Nd
  Nd24     1.0000 0.49277  0.18105  0.50988  Biso   1.000  Nd
  Pt45     1.0000 0.50291  0.18556  0.34628  Biso   1.000  Pt
  Pt46     1.0000 0.74205  0.18834  0.09474  Biso   1.000  Pt
  Pt47     1.0000 0.25065  0.18638  0.08943  Biso   1.000  Pt
  Pt48     1.0000 0.99478  0.19235  0.34495  Biso   1.000  Pt
  C177     1.0000 0.40180  0.18510  0.34840  Biso   1.000  C
  C178     1.0000 0.49890  0.18800  0.28920  Biso   1.000  C
  C179     1.0000 0.60550  0.18780  0.34420  Biso   1.000  C
  C180     1.0000 0.50760  0.18130  0.40300  Biso   1.000  C
  C181     1.0000 0.78950  0.18950  0.14510  Biso   1.000  C
  C182     1.0000 0.83230  0.18220  0.06670  Biso   1.000  C
  C183     1.0000 0.69660  0.18810  0.04390  Biso   1.000  C
  C184     1.0000 0.65200  0.19510  0.12120  Biso   1.000  C
  C185     1.0000 0.33670  0.18700  0.12130  Biso   1.000  C
  C186     1.0000 0.31010  0.18620  0.04250  Biso   1.000  C
  C187     1.0000 0.16870  0.18460  0.05740  Biso   1.000  C
  C188     1.0000 0.19450  0.18680  0.13770  Biso   1.000  C
  C189     1.0000 0.92530  0.18860  0.38400  Biso   1.000  C
  C190     1.0000 0.06540  0.19490  0.38770  Biso   1.000  C
  C191     1.0000 0.06550  0.19570  0.30580  Biso   1.000  C
  C192     1.0000 0.92270  0.19150  0.30300  Biso   1.000  C
  N177     1.0000 0.34260  0.19140  0.35030  Biso   1.000  N
  N178     1.0000 0.49660  0.18940  0.25600  Biso   1.000  N
  N179     1.0000 0.66440  0.18650  0.34070  Biso   1.000  N
  N180     1.0000 0.51160  0.17930  0.43620  Biso   1.000  N
  N181     1.0000 0.81990  0.18650  0.17310  Biso   1.000  N
  N182     1.0000 0.88050  0.18220  0.04950  Biso   1.000  N
  N183     1.0000 0.67320  0.19070  0.01280  Biso   1.000  N
  N184     1.0000 0.60100  0.19810  0.13790  Biso   1.000  N
  N185     1.0000 0.38600  0.18700  0.13800  Biso   1.000  N
  N186     1.0000 0.34160  0.18450  0.01560  Biso   1.000  N
  N187     1.0000 0.11900  0.18240  0.03670  Biso   1.000  N
  N188     1.0000 0.16460  0.18820  0.16510  Biso   1.000  N
  N189     1.0000 0.88150  0.18860  0.40740  Biso   1.000  N
  N190     1.0000 0.09960  0.19730  0.41270  Biso   1.000  N
  N191     1.0000 0.10840  0.20160  0.28200  Biso   1.000  N
  N192     1.0000 0.87770  0.19110  0.28130  Biso   1.000  N
  O12      1.0000 0.20910  0.19310  0.73390  Biso   1.000  O
  K13      1.0000 0.68936  0.88482  0.73373  Biso   1.000  K
  Nd25     1.0000 0.50614  0.80814  0.18202  Biso   1.000  Nd
  Nd26     1.0000 0.50723  0.81895  0.50988  Biso   1.000  Nd
  Pt49     1.0000 0.49709  0.81444  0.34628  Biso   1.000  Pt
  Pt50     1.0000 0.25795  0.81166  0.09474  Biso   1.000  Pt
  Pt51     1.0000 0.74935  0.81362  0.08943  Biso   1.000  Pt
  Pt52     1.0000 0.00522  0.80765  0.34495  Biso   1.000  Pt
  C193     1.0000 0.59820  0.81490  0.34840  Biso   1.000  C
  C194     1.0000 0.50110  0.81200  0.28920  Biso   1.000  C
  C195     1.0000 0.39450  0.81220  0.34420  Biso   1.000  C
  C196     1.0000 0.49240  0.81870  0.40300  Biso   1.000  C
  C197     1.0000 0.21050  0.81050  0.14510  Biso   1.000  C
  C198     1.0000 0.16770  0.81780  0.06670  Biso   1.000  C
  C199     1.0000 0.30340  0.81190  0.04390  Biso   1.000  C
  C200     1.0000 0.34800  0.80490  0.12120  Biso   1.000  C
  C201     1.0000 0.66330  0.81300  0.12130  Biso   1.000  C
  C202     1.0000 0.68990  0.81380  0.04250  Biso   1.000  C
  C203     1.0000 0.83130  0.81540  0.05740  Biso   1.000  C
  C204     1.0000 0.80550  0.81320  0.13770  Biso   1.000  C
  C205     1.0000 0.07470  0.81140  0.38400  Biso   1.000  C
  C206     1.0000 0.93460  0.80510  0.38770  Biso   1.000  C
  C207     1.0000 0.93450  0.80430  0.30580  Biso   1.000  C
  C208     1.0000 0.07730  0.80850  0.30300  Biso   1.000  C
  N193     1.0000 0.65740  0.80860  0.35030  Biso   1.000  N
  N194     1.0000 0.50340  0.81060  0.25600  Biso   1.000  N
  N195     1.0000 0.33560  0.81350  0.34070  Biso   1.000  N
  N196     1.0000 0.48840  0.82070  0.43620  Biso   1.000  N
  N197     1.0000 0.18010  0.81350  0.17310  Biso   1.000  N
  N198     1.0000 0.11950  0.81780  0.04950  Biso   1.000  N
  N199     1.0000 0.32680  0.80930  0.01280  Biso   1.000  N
  N200     1.0000 0.39900  0.80190  0.13790  Biso   1.000  N
  N201     1.0000 0.61400  0.81300  0.13800  Biso   1.000  N
  N202     1.0000 0.65840  0.81550  0.01560  Biso   1.000  N
  N203     1.0000 0.88100  0.81760  0.03670  Biso   1.000  N
  N204     1.0000 0.83540  0.81180  0.16510  Biso   1.000  N
  N205     1.0000 0.11850  0.81140  0.40740  Biso   1.000  N
  N206     1.0000 0.90040  0.80270  0.41270  Biso   1.000  N
  N207     1.0000 0.89160  0.79840  0.28200  Biso   1.000  N
  N208     1.0000 0.12230  0.80890  0.28130  Biso   1.000  N
  O13      1.0000 0.79090  0.80690  0.73390  Biso   1.000  O
  K14      1.0000 0.68936  0.38482  0.23373  Biso   1.000  K
  Nd27     1.0000 0.50614  0.30814  0.68202  Biso   1.000  Nd
  Nd28     1.0000 0.50723  0.31895  0.00988  Biso   1.000  Nd
  Pt53     1.0000 0.49709  0.31444  0.84628  Biso   1.000  Pt
  Pt54     1.0000 0.25795  0.31166  0.59474  Biso   1.000  Pt
  Pt55     1.0000 0.74935  0.31362  0.58943  Biso   1.000  Pt
  Pt56     1.0000 0.00522  0.30765  0.84495  Biso   1.000  Pt
  C209     1.0000 0.59820  0.31490  0.84840  Biso   1.000  C
  C210     1.0000 0.50110  0.31200  0.78920  Biso   1.000  C
  C211     1.0000 0.39450  0.31220  0.84420  Biso   1.000  C
  C212     1.0000 0.49240  0.31870  0.90300  Biso   1.000  C
  C213     1.0000 0.21050  0.31050  0.64510  Biso   1.000  C
  C214     1.0000 0.16770  0.31780  0.56670  Biso   1.000  C
  C215     1.0000 0.30340  0.31190  0.54390  Biso   1.000  C
  C216     1.0000 0.34800  0.30490  0.62120  Biso   1.000  C
  C217     1.0000 0.66330  0.31300  0.62130  Biso   1.000  C
  C218     1.0000 0.68990  0.31380  0.54250  Biso   1.000  C
  C219     1.0000 0.83130  0.31540  0.55740  Biso   1.000  C
  C220     1.0000 0.80550  0.31320  0.63770  Biso   1.000  C
  C221     1.0000 0.07470  0.31140  0.88400  Biso   1.000  C
  C222     1.0000 0.93460  0.30510  0.88770  Biso   1.000  C
  C223     1.0000 0.93450  0.30430  0.80580  Biso   1.000  C
  C224     1.0000 0.07730  0.30850  0.80300  Biso   1.000  C
  N209     1.0000 0.65740  0.30860  0.85030  Biso   1.000  N
  N210     1.0000 0.50340  0.31060  0.75600  Biso   1.000  N
  N211     1.0000 0.33560  0.31350  0.84070  Biso   1.000  N
  N212     1.0000 0.48840  0.32070  0.93620  Biso   1.000  N
  N213     1.0000 0.18010  0.31350  0.67310  Biso   1.000  N
  N214     1.0000 0.11950  0.31780  0.54950  Biso   1.000  N
  N215     1.0000 0.32680  0.30930  0.51280  Biso   1.000  N
  N216     1.0000 0.39900  0.30190  0.63790  Biso   1.000  N
  N217     1.0000 0.61400  0.31300  0.63800  Biso   1.000  N
  N218     1.0000 0.65840  0.31550  0.51560  Biso   1.000  N
  N219     1.0000 0.88100  0.31760  0.53670  Biso   1.000  N
  N220     1.0000 0.83540  0.31180  0.66510  Biso   1.000  N
  N221     1.0000 0.11850  0.31140  0.90740  Biso   1.000  N
  N222     1.0000 0.90040  0.30270  0.91270  Biso   1.000  N
  N223     1.0000 0.89160  0.29840  0.78200  Biso   1.000  N
  N224     1.0000 0.12230  0.30890  0.78130  Biso   1.000  N
  O14      1.0000 0.79090  0.30690  0.23390  Biso   1.000  O
  K15      1.0000 0.18936  0.88482  0.23373  Biso   1.000  K
  Nd29     1.0000 0.00614  0.80814  0.68202  Biso   1.000  Nd
  Nd30     1.0000 0.00723  0.81895  0.00988  Biso   1.000  Nd
  Pt57     1.0000 0.99709  0.81444  0.84628  Biso   1.000  Pt
  Pt58     1.0000 0.75795  0.81166  0.59474  Biso   1.000  Pt
  Pt59     1.0000 0.24935  0.81362  0.58943  Biso   1.000  Pt
  Pt60     1.0000 0.50522  0.80765  0.84495  Biso   1.000  Pt
  C225     1.0000 0.09820  0.81490  0.84840  Biso   1.000  C
  C226     1.0000 0.00110  0.81200  0.78920  Biso   1.000  C
  C227     1.0000 0.89450  0.81220  0.84420  Biso   1.000  C
  C228     1.0000 0.99240  0.81870  0.90300  Biso   1.000  C
  C229     1.0000 0.71050  0.81050  0.64510  Biso   1.000  C
  C230     1.0000 0.66770  0.81780  0.56670  Biso   1.000  C
  C231     1.0000 0.80340  0.81190  0.54390  Biso   1.000  C
  C232     1.0000 0.84800  0.80490  0.62120  Biso   1.000  C
  C233     1.0000 0.16330  0.81300  0.62130  Biso   1.000  C
  C234     1.0000 0.18990  0.81380  0.54250  Biso   1.000  C
  C235     1.0000 0.33130  0.81540  0.55740  Biso   1.000  C
  C236     1.0000 0.30550  0.81320  0.63770  Biso   1.000  C
  C237     1.0000 0.57470  0.81140  0.88400  Biso   1.000  C
  C238     1.0000 0.43460  0.80510  0.88770  Biso   1.000  C
  C239     1.0000 0.43450  0.80430  0.80580  Biso   1.000  C
  C240     1.0000 0.57730  0.80850  0.80300  Biso   1.000  C
  N225     1.0000 0.15740  0.80860  0.85030  Biso   1.000  N
  N226     1.0000 0.00340  0.81060  0.75600  Biso   1.000  N
  N227     1.0000 0.83560  0.81350  0.84070  Biso   1.000  N
  N228     1.0000 0.98840  0.82070  0.93620  Biso   1.000  N
  N229     1.0000 0.68010  0.81350  0.67310  Biso   1.000  N
  N230     1.0000 0.61950  0.81780  0.54950  Biso   1.000  N
  N231     1.0000 0.82680  0.80930  0.51280  Biso   1.000  N
  N232     1.0000 0.89900  0.80190  0.63790  Biso   1.000  N
  N233     1.0000 0.11400  0.81300  0.63800  Biso   1.000  N
  N234     1.0000 0.15840  0.81550  0.51560  Biso   1.000  N
  N235     1.0000 0.38100  0.81760  0.53670  Biso   1.000  N
  N236     1.0000 0.33540  0.81180  0.66510  Biso   1.000  N
  N237     1.0000 0.61850  0.81140  0.90740  Biso   1.000  N
  N238     1.0000 0.40040  0.80270  0.91270  Biso   1.000  N
  N239     1.0000 0.39160  0.79840  0.78200  Biso   1.000  N
  N240     1.0000 0.62230  0.80890  0.78130  Biso   1.000  N
  O15      1.0000 0.29090  0.80690  0.23390  Biso   1.000  O
  K16      1.0000 0.18936  0.38482  0.73373  Biso   1.000  K
  Nd31     1.0000 0.00614  0.30814  0.18202  Biso   1.000  Nd
  Nd32     1.0000 0.00723  0.31895  0.50988  Biso   1.000  Nd
  Pt61     1.0000 0.99709  0.31444  0.34628  Biso   1.000  Pt
  Pt62     1.0000 0.75795  0.31166  0.09474  Biso   1.000  Pt
  Pt63     1.0000 0.24935  0.31362  0.08943  Biso   1.000  Pt
  Pt64     1.0000 0.50522  0.30765  0.34495  Biso   1.000  Pt
  C241     1.0000 0.09820  0.31490  0.34840  Biso   1.000  C
  C242     1.0000 0.00110  0.31200  0.28920  Biso   1.000  C
  C243     1.0000 0.89450  0.31220  0.34420  Biso   1.000  C
  C244     1.0000 0.99240  0.31870  0.40300  Biso   1.000  C
  C245     1.0000 0.71050  0.31050  0.14510  Biso   1.000  C
  C246     1.0000 0.66770  0.31780  0.06670  Biso   1.000  C
  C247     1.0000 0.80340  0.31190  0.04390  Biso   1.000  C
  C248     1.0000 0.84800  0.30490  0.12120  Biso   1.000  C
  C249     1.0000 0.16330  0.31300  0.12130  Biso   1.000  C
  C250     1.0000 0.18990  0.31380  0.04250  Biso   1.000  C
  C251     1.0000 0.33130  0.31540  0.05740  Biso   1.000  C
  C252     1.0000 0.30550  0.31320  0.13770  Biso   1.000  C
  C253     1.0000 0.57470  0.31140  0.38400  Biso   1.000  C
  C254     1.0000 0.43460  0.30510  0.38770  Biso   1.000  C
  C255     1.0000 0.43450  0.30430  0.30580  Biso   1.000  C
  C256     1.0000 0.57730  0.30850  0.30300  Biso   1.000  C
  N241     1.0000 0.15740  0.30860  0.35030  Biso   1.000  N
  N242     1.0000 0.00340  0.31060  0.25600  Biso   1.000  N
  N243     1.0000 0.83560  0.31350  0.34070  Biso   1.000  N
  N244     1.0000 0.98840  0.32070  0.43620  Biso   1.000  N
  N245     1.0000 0.68010  0.31350  0.17310  Biso   1.000  N
  N246     1.0000 0.61950  0.31780  0.04950  Biso   1.000  N
  N247     1.0000 0.82680  0.30930  0.01280  Biso   1.000  N
  N248     1.0000 0.89900  0.30190  0.13790  Biso   1.000  N
  N249     1.0000 0.11400  0.31300  0.13800  Biso   1.000  N
  N250     1.0000 0.15840  0.31550  0.01560  Biso   1.000  N
  N251     1.0000 0.38100  0.31760  0.03670  Biso   1.000  N
  N252     1.0000 0.33540  0.31180  0.16510  Biso   1.000  N
  N253     1.0000 0.61850  0.31140  0.40740  Biso   1.000  N
  N254     1.0000 0.40040  0.30270  0.41270  Biso   1.000  N
  N255     1.0000 0.39160  0.29840  0.28200  Biso   1.000  N
  N256     1.0000 0.62230  0.30890  0.28130  Biso   1.000  N
  O16      1.0000 0.29090  0.30690  0.73390  Biso   1.000  O
  K17      1.0000 0.50000  0.50000  0.14436  Biso   1.000  K
  K18      1.0000 0.50000  0.50000  0.54515  Biso   1.000  K
  K19      1.0000 0.50000  0.00000  0.64436  Biso   1.000  K
  K20      1.0000 0.50000  0.00000  0.04515  Biso   1.000  K
  K21      1.0000 0.00000  0.50000  0.64436  Biso   1.000  K
  K22      1.0000 0.00000  0.50000  0.04515  Biso   1.000  K
  K23      1.0000 0.00000  0.00000  0.14436  Biso   1.000  K
  K24      1.0000 0.00000  0.00000  0.54515  Biso   1.000  K
  K25      1.0000 0.75000  0.75000  0.39436  Biso   1.000  K
  K26      1.0000 0.75000  0.75000  0.79515  Biso   1.000  K
  K27      1.0000 0.75000  0.25000  0.89436  Biso   1.000  K
  K28      1.0000 0.75000  0.25000  0.29515  Biso   1.000  K
  K29      1.0000 0.25000  0.75000  0.89436  Biso   1.000  K
  K30      1.0000 0.25000  0.75000  0.29515  Biso   1.000  K
  K31      1.0000 0.25000  0.25000  0.39436  Biso   1.000  K
  K32      1.0000 0.25000  0.25000  0.79515  Biso   1.000  K
