data_image0
_cell_length_a       53.68
_cell_length_b       53.68
_cell_length_c       53.68
_cell_angle_alpha    90
_cell_angle_beta     90
_cell_angle_gamma    90

_symmetry_space_group_name_H-M    "P 1"
_symmetry_int_tables_number       1

loop_
  _symmetry_equiv_pos_as_xyz
  'x, y, z'

loop_
  _atom_site_label
  _atom_site_occupancy
  _atom_site_fract_x
  _atom_site_fract_y
  _atom_site_fract_z
  _atom_site_thermal_displace_type
  _atom_site_B_iso_or_equiv
  _atom_site_type_symbol
  Zr1      1.0000 0.36217  0.40871  0.21244  Biso   1.000  Zr
  Zr2      1.0000 0.33279  0.37957  0.16122  Biso   1.000  Zr
  S1       1.0000 0.32049  0.43424  0.08554  Biso   1.000  S
  O1       1.0000 0.37880  0.41471  0.12457  Biso   1.000  O
  O2       1.0000 0.33768  0.40663  0.12884  Biso   1.000  O
  O3       1.0000 0.28807  0.45769  0.04951  Biso   1.000  O
  O4       1.0000 0.31740  0.47566  0.02587  Biso   1.000  O
  O5       1.0000 0.29785  0.35911  0.17285  Biso   1.000  O
  O6       1.0000 0.30549  0.33958  0.20939  Biso   1.000  O
  O7       1.0000 0.32708  0.36260  0.24907  Biso   1.000  O
  O8       1.0000 0.33925  0.40284  0.24779  Biso   1.000  O
  O9       1.0000 0.37684  0.44537  0.19641  Biso   1.000  O
  O10      1.0000 0.40044  0.43558  0.16299  Biso   1.000  O
  O11      1.0000 0.36168  0.40157  0.17440  Biso   1.000  O
  O12      1.0000 0.33066  0.38340  0.20276  Biso   1.000  O
  C1       1.0000 0.35625  0.41657  0.11815  Biso   1.000  C
  C2       1.0000 0.35056  0.43201  0.09619  Biso   1.000  C
  C3       1.0000 0.36660  0.44567  0.08208  Biso   1.000  C
  H1       1.0000 0.38370  0.44660  0.08490  Biso   1.000  H
  C4       1.0000 0.35384  0.45843  0.06235  Biso   1.000  C
  H2       1.0000 0.36170  0.46900  0.05110  Biso   1.000  H
  C5       1.0000 0.32930  0.45354  0.06179  Biso   1.000  C
  C6       1.0000 0.31003  0.46330  0.04429  Biso   1.000  C
  C7       1.0000 0.29284  0.34391  0.18993  Biso   1.000  C
  C8       1.0000 0.26946  0.32945  0.18673  Biso   1.000  C
  C9       1.0000 0.26120  0.30944  0.19987  Biso   1.000  C
  H3       1.0000 0.26950  0.30270  0.21350  Biso   1.000  H
  C10      1.0000 0.32705  0.38468  0.25655  Biso   1.000  C
  C11      1.0000 0.31055  0.39101  0.27822  Biso   1.000  C
  C12      1.0000 0.30704  0.41352  0.28857  Biso   1.000  C
  H4       1.0000 0.31590  0.42760  0.28400  Biso   1.000  H
  C13      1.0000 0.39047  0.45064  0.17816  Biso   1.000  C
  C14      1.0000 0.39471  0.47727  0.17279  Biso   1.000  C
  C15      1.0000 0.40690  0.48680  0.15280  Biso   1.000  C
  H5       1.0000 0.41440  0.47710  0.14050  Biso   1.000  H
  O13      1.0000 0.31772  0.36107  0.12811  Biso   1.000  O
  S2       1.0000 0.26566  0.32120  0.09880  Biso   1.000  S
  C16      1.0000 0.24370  0.36420  0.10330  Biso   1.000  C
  C17      1.0000 0.28270  0.34610  0.10930  Biso   1.000  C
  C18      1.0000 0.30890  0.34030  0.12210  Biso   1.000  C
  C19      1.0000 0.26620  0.36790  0.10970  Biso   1.000  C
  C20      1.0000 0.23940  0.33850  0.09480  Biso   1.000  C
  Zr3      1.0000 0.86217  0.90871  0.71244  Biso   1.000  Zr
  Zr4      1.0000 0.83279  0.87957  0.66122  Biso   1.000  Zr
  S3       1.0000 0.82049  0.93424  0.58554  Biso   1.000  S
  O14      1.0000 0.87880  0.91471  0.62457  Biso   1.000  O
  O15      1.0000 0.83768  0.90663  0.62884  Biso   1.000  O
  O16      1.0000 0.78807  0.95769  0.54951  Biso   1.000  O
  O17      1.0000 0.81740  0.97566  0.52587  Biso   1.000  O
  O18      1.0000 0.79785  0.85911  0.67285  Biso   1.000  O
  O19      1.0000 0.80549  0.83958  0.70939  Biso   1.000  O
  O20      1.0000 0.82708  0.86260  0.74907  Biso   1.000  O
  O21      1.0000 0.83925  0.90284  0.74779  Biso   1.000  O
  O22      1.0000 0.87684  0.94537  0.69641  Biso   1.000  O
  O23      1.0000 0.90044  0.93558  0.66299  Biso   1.000  O
  O24      1.0000 0.86168  0.90157  0.67440  Biso   1.000  O
  O25      1.0000 0.83066  0.88340  0.70276  Biso   1.000  O
  C21      1.0000 0.85625  0.91657  0.61815  Biso   1.000  C
  C22      1.0000 0.85056  0.93201  0.59619  Biso   1.000  C
  C23      1.0000 0.86660  0.94567  0.58208  Biso   1.000  C
  H6       1.0000 0.88370  0.94660  0.58490  Biso   1.000  H
  C24      1.0000 0.85384  0.95843  0.56235  Biso   1.000  C
  H7       1.0000 0.86170  0.96900  0.55110  Biso   1.000  H
  C25      1.0000 0.82930  0.95354  0.56179  Biso   1.000  C
  C26      1.0000 0.81003  0.96330  0.54429  Biso   1.000  C
  C27      1.0000 0.79284  0.84391  0.68993  Biso   1.000  C
  C28      1.0000 0.76946  0.82945  0.68673  Biso   1.000  C
  C29      1.0000 0.76120  0.80944  0.69987  Biso   1.000  C
  H8       1.0000 0.76950  0.80270  0.71350  Biso   1.000  H
  C30      1.0000 0.82705  0.88468  0.75655  Biso   1.000  C
  C31      1.0000 0.81055  0.89101  0.77822  Biso   1.000  C
  C32      1.0000 0.80704  0.91352  0.78857  Biso   1.000  C
  H9       1.0000 0.81590  0.92760  0.78400  Biso   1.000  H
  C33      1.0000 0.89047  0.95064  0.67816  Biso   1.000  C
  C34      1.0000 0.89471  0.97727  0.67279  Biso   1.000  C
  C35      1.0000 0.90690  0.98680  0.65280  Biso   1.000  C
  H10      1.0000 0.91440  0.97710  0.64050  Biso   1.000  H
  O26      1.0000 0.81772  0.86107  0.62811  Biso   1.000  O
  S4       1.0000 0.76566  0.82120  0.59880  Biso   1.000  S
  C36      1.0000 0.74370  0.86420  0.60330  Biso   1.000  C
  C37      1.0000 0.78270  0.84610  0.60930  Biso   1.000  C
  C38      1.0000 0.80890  0.84030  0.62210  Biso   1.000  C
  C39      1.0000 0.76620  0.86790  0.60970  Biso   1.000  C
  C40      1.0000 0.73940  0.83850  0.59480  Biso   1.000  C
  Zr5      1.0000 0.63783  0.59129  0.21244  Biso   1.000  Zr
  Zr6      1.0000 0.66721  0.62043  0.16122  Biso   1.000  Zr
  S5       1.0000 0.67951  0.56576  0.08554  Biso   1.000  S
  O27      1.0000 0.62120  0.58529  0.12457  Biso   1.000  O
  O28      1.0000 0.66232  0.59337  0.12884  Biso   1.000  O
  O29      1.0000 0.71193  0.54231  0.04951  Biso   1.000  O
  O30      1.0000 0.68260  0.52434  0.02587  Biso   1.000  O
  O31      1.0000 0.70215  0.64089  0.17285  Biso   1.000  O
  O32      1.0000 0.69451  0.66042  0.20939  Biso   1.000  O
  O33      1.0000 0.67292  0.63740  0.24907  Biso   1.000  O
  O34      1.0000 0.66075  0.59716  0.24779  Biso   1.000  O
  O35      1.0000 0.62316  0.55463  0.19641  Biso   1.000  O
  O36      1.0000 0.59956  0.56442  0.16299  Biso   1.000  O
  O37      1.0000 0.63832  0.59843  0.17440  Biso   1.000  O
  O38      1.0000 0.66934  0.61660  0.20276  Biso   1.000  O
  C41      1.0000 0.64375  0.58343  0.11815  Biso   1.000  C
  C42      1.0000 0.64944  0.56799  0.09619  Biso   1.000  C
  C43      1.0000 0.63340  0.55433  0.08208  Biso   1.000  C
  H11      1.0000 0.61630  0.55340  0.08490  Biso   1.000  H
  C44      1.0000 0.64616  0.54157  0.06235  Biso   1.000  C
  H12      1.0000 0.63830  0.53100  0.05110  Biso   1.000  H
  C45      1.0000 0.67070  0.54646  0.06179  Biso   1.000  C
  C46      1.0000 0.68997  0.53670  0.04429  Biso   1.000  C
  C47      1.0000 0.70716  0.65609  0.18993  Biso   1.000  C
  C48      1.0000 0.73054  0.67055  0.18673  Biso   1.000  C
  C49      1.0000 0.73880  0.69056  0.19987  Biso   1.000  C
  H13      1.0000 0.73050  0.69730  0.21350  Biso   1.000  H
  C50      1.0000 0.67295  0.61532  0.25655  Biso   1.000  C
  C51      1.0000 0.68945  0.60899  0.27822  Biso   1.000  C
  C52      1.0000 0.69296  0.58648  0.28857  Biso   1.000  C
  H14      1.0000 0.68410  0.57240  0.28400  Biso   1.000  H
  C53      1.0000 0.60953  0.54936  0.17816  Biso   1.000  C
  C54      1.0000 0.60529  0.52273  0.17279  Biso   1.000  C
  C55      1.0000 0.59310  0.51320  0.15280  Biso   1.000  C
  H15      1.0000 0.58560  0.52290  0.14050  Biso   1.000  H
  O39      1.0000 0.68228  0.63893  0.12811  Biso   1.000  O
  S6       1.0000 0.73434  0.67880  0.09880  Biso   1.000  S
  C56      1.0000 0.75630  0.63580  0.10330  Biso   1.000  C
  C57      1.0000 0.71730  0.65390  0.10930  Biso   1.000  C
  C58      1.0000 0.69110  0.65970  0.12210  Biso   1.000  C
  C59      1.0000 0.73380  0.63210  0.10970  Biso   1.000  C
  C60      1.0000 0.76060  0.66150  0.09480  Biso   1.000  C
  Zr7      1.0000 0.13783  0.09129  0.71244  Biso   1.000  Zr
  Zr8      1.0000 0.16721  0.12043  0.66122  Biso   1.000  Zr
  S7       1.0000 0.17951  0.06576  0.58554  Biso   1.000  S
  O40      1.0000 0.12120  0.08529  0.62457  Biso   1.000  O
  O41      1.0000 0.16232  0.09337  0.62884  Biso   1.000  O
  O42      1.0000 0.21193  0.04231  0.54951  Biso   1.000  O
  O43      1.0000 0.18260  0.02434  0.52587  Biso   1.000  O
  O44      1.0000 0.20215  0.14089  0.67285  Biso   1.000  O
  O45      1.0000 0.19451  0.16042  0.70939  Biso   1.000  O
  O46      1.0000 0.17292  0.13740  0.74907  Biso   1.000  O
  O47      1.0000 0.16075  0.09716  0.74779  Biso   1.000  O
  O48      1.0000 0.12316  0.05463  0.69641  Biso   1.000  O
  O49      1.0000 0.09956  0.06442  0.66299  Biso   1.000  O
  O50      1.0000 0.13832  0.09843  0.67440  Biso   1.000  O
  O51      1.0000 0.16934  0.11660  0.70276  Biso   1.000  O
  C61      1.0000 0.14375  0.08343  0.61815  Biso   1.000  C
  C62      1.0000 0.14944  0.06799  0.59619  Biso   1.000  C
  C63      1.0000 0.13340  0.05433  0.58208  Biso   1.000  C
  H16      1.0000 0.11630  0.05340  0.58490  Biso   1.000  H
  C64      1.0000 0.14616  0.04157  0.56235  Biso   1.000  C
  H17      1.0000 0.13830  0.03100  0.55110  Biso   1.000  H
  C65      1.0000 0.17070  0.04646  0.56179  Biso   1.000  C
  C66      1.0000 0.18997  0.03670  0.54429  Biso   1.000  C
  C67      1.0000 0.20716  0.15609  0.68993  Biso   1.000  C
  C68      1.0000 0.23054  0.17055  0.68673  Biso   1.000  C
  C69      1.0000 0.23880  0.19056  0.69987  Biso   1.000  C
  H18      1.0000 0.23050  0.19730  0.71350  Biso   1.000  H
  C70      1.0000 0.17295  0.11532  0.75655  Biso   1.000  C
  C71      1.0000 0.18945  0.10899  0.77822  Biso   1.000  C
  C72      1.0000 0.19296  0.08648  0.78857  Biso   1.000  C
  H19      1.0000 0.18410  0.07240  0.78400  Biso   1.000  H
  C73      1.0000 0.10953  0.04936  0.67816  Biso   1.000  C
  C74      1.0000 0.10529  0.02273  0.67279  Biso   1.000  C
  C75      1.0000 0.09310  0.01320  0.65280  Biso   1.000  C
  H20      1.0000 0.08560  0.02290  0.64050  Biso   1.000  H
  O52      1.0000 0.18228  0.13893  0.62811  Biso   1.000  O
  S8       1.0000 0.23434  0.17880  0.59880  Biso   1.000  S
  C76      1.0000 0.25630  0.13580  0.60330  Biso   1.000  C
  C77      1.0000 0.21730  0.15390  0.60930  Biso   1.000  C
  C78      1.0000 0.19110  0.15970  0.62210  Biso   1.000  C
  C79      1.0000 0.23380  0.13210  0.60970  Biso   1.000  C
  C80      1.0000 0.26060  0.16150  0.59480  Biso   1.000  C
  Zr9      1.0000 0.63783  0.40871  0.78756  Biso   1.000  Zr
  Zr10     1.0000 0.66721  0.37957  0.83878  Biso   1.000  Zr
  S9       1.0000 0.67951  0.43424  0.91446  Biso   1.000  S
  O53      1.0000 0.62120  0.41471  0.87543  Biso   1.000  O
  O54      1.0000 0.66232  0.40663  0.87116  Biso   1.000  O
  O55      1.0000 0.71193  0.45769  0.95049  Biso   1.000  O
  O56      1.0000 0.68260  0.47566  0.97413  Biso   1.000  O
  O57      1.0000 0.70215  0.35911  0.82715  Biso   1.000  O
  O58      1.0000 0.69451  0.33958  0.79061  Biso   1.000  O
  O59      1.0000 0.67292  0.36260  0.75093  Biso   1.000  O
  O60      1.0000 0.66075  0.40284  0.75221  Biso   1.000  O
  O61      1.0000 0.62316  0.44537  0.80359  Biso   1.000  O
  O62      1.0000 0.59956  0.43558  0.83701  Biso   1.000  O
  O63      1.0000 0.63832  0.40157  0.82560  Biso   1.000  O
  O64      1.0000 0.66934  0.38340  0.79724  Biso   1.000  O
  C81      1.0000 0.64375  0.41657  0.88185  Biso   1.000  C
  C82      1.0000 0.64944  0.43201  0.90381  Biso   1.000  C
  C83      1.0000 0.63340  0.44567  0.91792  Biso   1.000  C
  H21      1.0000 0.61630  0.44660  0.91510  Biso   1.000  H
  C84      1.0000 0.64616  0.45843  0.93765  Biso   1.000  C
  H22      1.0000 0.63830  0.46900  0.94890  Biso   1.000  H
  C85      1.0000 0.67070  0.45354  0.93821  Biso   1.000  C
  C86      1.0000 0.68997  0.46330  0.95571  Biso   1.000  C
  C87      1.0000 0.70716  0.34391  0.81007  Biso   1.000  C
  C88      1.0000 0.73054  0.32945  0.81327  Biso   1.000  C
  C89      1.0000 0.73880  0.30944  0.80013  Biso   1.000  C
  H23      1.0000 0.73050  0.30270  0.78650  Biso   1.000  H
  C90      1.0000 0.67295  0.38468  0.74345  Biso   1.000  C
  C91      1.0000 0.68945  0.39101  0.72178  Biso   1.000  C
  C92      1.0000 0.69296  0.41352  0.71143  Biso   1.000  C
  H24      1.0000 0.68410  0.42760  0.71600  Biso   1.000  H
  C93      1.0000 0.60953  0.45064  0.82184  Biso   1.000  C
  C94      1.0000 0.60529  0.47727  0.82721  Biso   1.000  C
  C95      1.0000 0.59310  0.48680  0.84720  Biso   1.000  C
  H25      1.0000 0.58560  0.47710  0.85950  Biso   1.000  H
  O65      1.0000 0.68228  0.36107  0.87189  Biso   1.000  O
  S10      1.0000 0.73434  0.32120  0.90120  Biso   1.000  S
  C96      1.0000 0.75630  0.36420  0.89670  Biso   1.000  C
  C97      1.0000 0.71730  0.34610  0.89070  Biso   1.000  C
  C98      1.0000 0.69110  0.34030  0.87790  Biso   1.000  C
  C99      1.0000 0.73380  0.36790  0.89030  Biso   1.000  C
  C100     1.0000 0.76060  0.33850  0.90520  Biso   1.000  C
  Zr11     1.0000 0.13783  0.90871  0.28756  Biso   1.000  Zr
  Zr12     1.0000 0.16721  0.87957  0.33878  Biso   1.000  Zr
  S11      1.0000 0.17951  0.93424  0.41446  Biso   1.000  S
  O66      1.0000 0.12120  0.91471  0.37543  Biso   1.000  O
  O67      1.0000 0.16232  0.90663  0.37116  Biso   1.000  O
  O68      1.0000 0.21193  0.95769  0.45049  Biso   1.000  O
  O69      1.0000 0.18260  0.97566  0.47413  Biso   1.000  O
  O70      1.0000 0.20215  0.85911  0.32715  Biso   1.000  O
  O71      1.0000 0.19451  0.83958  0.29061  Biso   1.000  O
  O72      1.0000 0.17292  0.86260  0.25093  Biso   1.000  O
  O73      1.0000 0.16075  0.90284  0.25221  Biso   1.000  O
  O74      1.0000 0.12316  0.94537  0.30359  Biso   1.000  O
  O75      1.0000 0.09956  0.93558  0.33701  Biso   1.000  O
  O76      1.0000 0.13832  0.90157  0.32560  Biso   1.000  O
  O77      1.0000 0.16934  0.88340  0.29724  Biso   1.000  O
  C101     1.0000 0.14375  0.91657  0.38185  Biso   1.000  C
  C102     1.0000 0.14944  0.93201  0.40381  Biso   1.000  C
  C103     1.0000 0.13340  0.94567  0.41792  Biso   1.000  C
  H26      1.0000 0.11630  0.94660  0.41510  Biso   1.000  H
  C104     1.0000 0.14616  0.95843  0.43765  Biso   1.000  C
  H27      1.0000 0.13830  0.96900  0.44890  Biso   1.000  H
  C105     1.0000 0.17070  0.95354  0.43821  Biso   1.000  C
  C106     1.0000 0.18997  0.96330  0.45571  Biso   1.000  C
  C107     1.0000 0.20716  0.84391  0.31007  Biso   1.000  C
  C108     1.0000 0.23054  0.82945  0.31327  Biso   1.000  C
  C109     1.0000 0.23880  0.80944  0.30013  Biso   1.000  C
  H28      1.0000 0.23050  0.80270  0.28650  Biso   1.000  H
  C110     1.0000 0.17295  0.88468  0.24345  Biso   1.000  C
  C111     1.0000 0.18945  0.89101  0.22178  Biso   1.000  C
  C112     1.0000 0.19296  0.91352  0.21143  Biso   1.000  C
  H29      1.0000 0.18410  0.92760  0.21600  Biso   1.000  H
  C113     1.0000 0.10953  0.95064  0.32184  Biso   1.000  C
  C114     1.0000 0.10529  0.97727  0.32721  Biso   1.000  C
  C115     1.0000 0.09310  0.98680  0.34720  Biso   1.000  C
  H30      1.0000 0.08560  0.97710  0.35950  Biso   1.000  H
  O78      1.0000 0.18228  0.86107  0.37189  Biso   1.000  O
  S12      1.0000 0.23434  0.82120  0.40120  Biso   1.000  S
  C116     1.0000 0.25630  0.86420  0.39670  Biso   1.000  C
  C117     1.0000 0.21730  0.84610  0.39070  Biso   1.000  C
  C118     1.0000 0.19110  0.84030  0.37790  Biso   1.000  C
  C119     1.0000 0.23380  0.86790  0.39030  Biso   1.000  C
  C120     1.0000 0.26060  0.83850  0.40520  Biso   1.000  C
  Zr13     1.0000 0.36217  0.59129  0.78756  Biso   1.000  Zr
  Zr14     1.0000 0.33279  0.62043  0.83878  Biso   1.000  Zr
  S13      1.0000 0.32049  0.56576  0.91446  Biso   1.000  S
  O79      1.0000 0.37880  0.58529  0.87543  Biso   1.000  O
  O80      1.0000 0.33768  0.59337  0.87116  Biso   1.000  O
  O81      1.0000 0.28807  0.54231  0.95049  Biso   1.000  O
  O82      1.0000 0.31740  0.52434  0.97413  Biso   1.000  O
  O83      1.0000 0.29785  0.64089  0.82715  Biso   1.000  O
  O84      1.0000 0.30549  0.66042  0.79061  Biso   1.000  O
  O85      1.0000 0.32708  0.63740  0.75093  Biso   1.000  O
  O86      1.0000 0.33925  0.59716  0.75221  Biso   1.000  O
  O87      1.0000 0.37684  0.55463  0.80359  Biso   1.000  O
  O88      1.0000 0.40044  0.56442  0.83701  Biso   1.000  O
  O89      1.0000 0.36168  0.59843  0.82560  Biso   1.000  O
  O90      1.0000 0.33066  0.61660  0.79724  Biso   1.000  O
  C121     1.0000 0.35625  0.58343  0.88185  Biso   1.000  C
  C122     1.0000 0.35056  0.56799  0.90381  Biso   1.000  C
  C123     1.0000 0.36660  0.55433  0.91792  Biso   1.000  C
  H31      1.0000 0.38370  0.55340  0.91510  Biso   1.000  H
  C124     1.0000 0.35384  0.54157  0.93765  Biso   1.000  C
  H32      1.0000 0.36170  0.53100  0.94890  Biso   1.000  H
  C125     1.0000 0.32930  0.54646  0.93821  Biso   1.000  C
  C126     1.0000 0.31003  0.53670  0.95571  Biso   1.000  C
  C127     1.0000 0.29284  0.65609  0.81007  Biso   1.000  C
  C128     1.0000 0.26946  0.67055  0.81327  Biso   1.000  C
  C129     1.0000 0.26120  0.69056  0.80013  Biso   1.000  C
  H33      1.0000 0.26950  0.69730  0.78650  Biso   1.000  H
  C130     1.0000 0.32705  0.61532  0.74345  Biso   1.000  C
  C131     1.0000 0.31055  0.60899  0.72178  Biso   1.000  C
  C132     1.0000 0.30704  0.58648  0.71143  Biso   1.000  C
  H34      1.0000 0.31590  0.57240  0.71600  Biso   1.000  H
  C133     1.0000 0.39047  0.54936  0.82184  Biso   1.000  C
  C134     1.0000 0.39471  0.52273  0.82721  Biso   1.000  C
  C135     1.0000 0.40690  0.51320  0.84720  Biso   1.000  C
  H35      1.0000 0.41440  0.52290  0.85950  Biso   1.000  H
  O91      1.0000 0.31772  0.63893  0.87189  Biso   1.000  O
  S14      1.0000 0.26566  0.67880  0.90120  Biso   1.000  S
  C136     1.0000 0.24370  0.63580  0.89670  Biso   1.000  C
  C137     1.0000 0.28270  0.65390  0.89070  Biso   1.000  C
  C138     1.0000 0.30890  0.65970  0.87790  Biso   1.000  C
  C139     1.0000 0.26620  0.63210  0.89030  Biso   1.000  C
  C140     1.0000 0.23940  0.66150  0.90520  Biso   1.000  C
  Zr15     1.0000 0.86217  0.09129  0.28756  Biso   1.000  Zr
  Zr16     1.0000 0.83279  0.12043  0.33878  Biso   1.000  Zr
  S15      1.0000 0.82049  0.06576  0.41446  Biso   1.000  S
  O92      1.0000 0.87880  0.08529  0.37543  Biso   1.000  O
  O93      1.0000 0.83768  0.09337  0.37116  Biso   1.000  O
  O94      1.0000 0.78807  0.04231  0.45049  Biso   1.000  O
  O95      1.0000 0.81740  0.02434  0.47413  Biso   1.000  O
  O96      1.0000 0.79785  0.14089  0.32715  Biso   1.000  O
  O97      1.0000 0.80549  0.16042  0.29061  Biso   1.000  O
  O98      1.0000 0.82708  0.13740  0.25093  Biso   1.000  O
  O99      1.0000 0.83925  0.09716  0.25221  Biso   1.000  O
  O100     1.0000 0.87684  0.05463  0.30359  Biso   1.000  O
  O101     1.0000 0.90044  0.06442  0.33701  Biso   1.000  O
  O102     1.0000 0.86168  0.09843  0.32560  Biso   1.000  O
  O103     1.0000 0.83066  0.11660  0.29724  Biso   1.000  O
  C141     1.0000 0.85625  0.08343  0.38185  Biso   1.000  C
  C142     1.0000 0.85056  0.06799  0.40381  Biso   1.000  C
  C143     1.0000 0.86660  0.05433  0.41792  Biso   1.000  C
  H36      1.0000 0.88370  0.05340  0.41510  Biso   1.000  H
  C144     1.0000 0.85384  0.04157  0.43765  Biso   1.000  C
  H37      1.0000 0.86170  0.03100  0.44890  Biso   1.000  H
  C145     1.0000 0.82930  0.04646  0.43821  Biso   1.000  C
  C146     1.0000 0.81003  0.03670  0.45571  Biso   1.000  C
  C147     1.0000 0.79284  0.15609  0.31007  Biso   1.000  C
  C148     1.0000 0.76946  0.17055  0.31327  Biso   1.000  C
  C149     1.0000 0.76120  0.19056  0.30013  Biso   1.000  C
  H38      1.0000 0.76950  0.19730  0.28650  Biso   1.000  H
  C150     1.0000 0.82705  0.11532  0.24345  Biso   1.000  C
  C151     1.0000 0.81055  0.10899  0.22178  Biso   1.000  C
  C152     1.0000 0.80704  0.08648  0.21143  Biso   1.000  C
  H39      1.0000 0.81590  0.07240  0.21600  Biso   1.000  H
  C153     1.0000 0.89047  0.04936  0.32184  Biso   1.000  C
  C154     1.0000 0.89471  0.02273  0.32721  Biso   1.000  C
  C155     1.0000 0.90690  0.01320  0.34720  Biso   1.000  C
  H40      1.0000 0.91440  0.02290  0.35950  Biso   1.000  H
  O104     1.0000 0.81772  0.13893  0.37189  Biso   1.000  O
  S16      1.0000 0.76566  0.17880  0.40120  Biso   1.000  S
  C156     1.0000 0.74370  0.13580  0.39670  Biso   1.000  C
  C157     1.0000 0.78270  0.15390  0.39070  Biso   1.000  C
  C158     1.0000 0.80890  0.15970  0.37790  Biso   1.000  C
  C159     1.0000 0.76620  0.13210  0.39030  Biso   1.000  C
  C160     1.0000 0.73940  0.16150  0.40520  Biso   1.000  C
  Zr17     1.0000 0.21244  0.36217  0.40871  Biso   1.000  Zr
  Zr18     1.0000 0.16122  0.33279  0.37957  Biso   1.000  Zr
  S17      1.0000 0.08554  0.32049  0.43424  Biso   1.000  S
  O105     1.0000 0.12457  0.37880  0.41471  Biso   1.000  O
  O106     1.0000 0.12884  0.33768  0.40663  Biso   1.000  O
  O107     1.0000 0.04951  0.28807  0.45769  Biso   1.000  O
  O108     1.0000 0.02587  0.31740  0.47566  Biso   1.000  O
  O109     1.0000 0.17285  0.29785  0.35911  Biso   1.000  O
  O110     1.0000 0.20939  0.30549  0.33958  Biso   1.000  O
  O111     1.0000 0.24907  0.32708  0.36260  Biso   1.000  O
  O112     1.0000 0.24779  0.33925  0.40284  Biso   1.000  O
  O113     1.0000 0.19641  0.37684  0.44537  Biso   1.000  O
  O114     1.0000 0.16299  0.40044  0.43558  Biso   1.000  O
  O115     1.0000 0.17440  0.36168  0.40157  Biso   1.000  O
  O116     1.0000 0.20276  0.33066  0.38340  Biso   1.000  O
  C161     1.0000 0.11815  0.35625  0.41657  Biso   1.000  C
  C162     1.0000 0.09619  0.35056  0.43201  Biso   1.000  C
  C163     1.0000 0.08208  0.36660  0.44567  Biso   1.000  C
  H41      1.0000 0.08490  0.38370  0.44660  Biso   1.000  H
  C164     1.0000 0.06235  0.35384  0.45843  Biso   1.000  C
  H42      1.0000 0.05110  0.36170  0.46900  Biso   1.000  H
  C165     1.0000 0.06179  0.32930  0.45354  Biso   1.000  C
  C166     1.0000 0.04429  0.31003  0.46330  Biso   1.000  C
  C167     1.0000 0.18993  0.29284  0.34391  Biso   1.000  C
  C168     1.0000 0.18673  0.26946  0.32945  Biso   1.000  C
  C169     1.0000 0.19987  0.26120  0.30944  Biso   1.000  C
  H43      1.0000 0.21350  0.26950  0.30270  Biso   1.000  H
  C170     1.0000 0.25655  0.32705  0.38468  Biso   1.000  C
  C171     1.0000 0.27822  0.31055  0.39101  Biso   1.000  C
  C172     1.0000 0.28857  0.30704  0.41352  Biso   1.000  C
  H44      1.0000 0.28400  0.31590  0.42760  Biso   1.000  H
  C173     1.0000 0.17816  0.39047  0.45064  Biso   1.000  C
  C174     1.0000 0.17279  0.39471  0.47727  Biso   1.000  C
  C175     1.0000 0.15280  0.40690  0.48680  Biso   1.000  C
  H45      1.0000 0.14050  0.41440  0.47710  Biso   1.000  H
  O117     1.0000 0.12811  0.31772  0.36107  Biso   1.000  O
  S18      1.0000 0.09880  0.26566  0.32120  Biso   1.000  S
  C176     1.0000 0.10330  0.24370  0.36420  Biso   1.000  C
  C177     1.0000 0.10930  0.28270  0.34610  Biso   1.000  C
  C178     1.0000 0.12210  0.30890  0.34030  Biso   1.000  C
  C179     1.0000 0.10970  0.26620  0.36790  Biso   1.000  C
  C180     1.0000 0.09480  0.23940  0.33850  Biso   1.000  C
  Zr19     1.0000 0.71244  0.86217  0.90871  Biso   1.000  Zr
  Zr20     1.0000 0.66122  0.83279  0.87957  Biso   1.000  Zr
  S19      1.0000 0.58554  0.82049  0.93424  Biso   1.000  S
  O118     1.0000 0.62457  0.87880  0.91471  Biso   1.000  O
  O119     1.0000 0.62884  0.83768  0.90663  Biso   1.000  O
  O120     1.0000 0.54951  0.78807  0.95769  Biso   1.000  O
  O121     1.0000 0.52587  0.81740  0.97566  Biso   1.000  O
  O122     1.0000 0.67285  0.79785  0.85911  Biso   1.000  O
  O123     1.0000 0.70939  0.80549  0.83958  Biso   1.000  O
  O124     1.0000 0.74907  0.82708  0.86260  Biso   1.000  O
  O125     1.0000 0.74779  0.83925  0.90284  Biso   1.000  O
  O126     1.0000 0.69641  0.87684  0.94537  Biso   1.000  O
  O127     1.0000 0.66299  0.90044  0.93558  Biso   1.000  O
  O128     1.0000 0.67440  0.86168  0.90157  Biso   1.000  O
  O129     1.0000 0.70276  0.83066  0.88340  Biso   1.000  O
  C181     1.0000 0.61815  0.85625  0.91657  Biso   1.000  C
  C182     1.0000 0.59619  0.85056  0.93201  Biso   1.000  C
  C183     1.0000 0.58208  0.86660  0.94567  Biso   1.000  C
  H46      1.0000 0.58490  0.88370  0.94660  Biso   1.000  H
  C184     1.0000 0.56235  0.85384  0.95843  Biso   1.000  C
  H47      1.0000 0.55110  0.86170  0.96900  Biso   1.000  H
  C185     1.0000 0.56179  0.82930  0.95354  Biso   1.000  C
  C186     1.0000 0.54429  0.81003  0.96330  Biso   1.000  C
  C187     1.0000 0.68993  0.79284  0.84391  Biso   1.000  C
  C188     1.0000 0.68673  0.76946  0.82945  Biso   1.000  C
  C189     1.0000 0.69987  0.76120  0.80944  Biso   1.000  C
  H48      1.0000 0.71350  0.76950  0.80270  Biso   1.000  H
  C190     1.0000 0.75655  0.82705  0.88468  Biso   1.000  C
  C191     1.0000 0.77822  0.81055  0.89101  Biso   1.000  C
  C192     1.0000 0.78857  0.80704  0.91352  Biso   1.000  C
  H49      1.0000 0.78400  0.81590  0.92760  Biso   1.000  H
  C193     1.0000 0.67816  0.89047  0.95064  Biso   1.000  C
  C194     1.0000 0.67279  0.89471  0.97727  Biso   1.000  C
  C195     1.0000 0.65280  0.90690  0.98680  Biso   1.000  C
  H50      1.0000 0.64050  0.91440  0.97710  Biso   1.000  H
  O130     1.0000 0.62811  0.81772  0.86107  Biso   1.000  O
  S20      1.0000 0.59880  0.76566  0.82120  Biso   1.000  S
  C196     1.0000 0.60330  0.74370  0.86420  Biso   1.000  C
  C197     1.0000 0.60930  0.78270  0.84610  Biso   1.000  C
  C198     1.0000 0.62210  0.80890  0.84030  Biso   1.000  C
  C199     1.0000 0.60970  0.76620  0.86790  Biso   1.000  C
  C200     1.0000 0.59480  0.73940  0.83850  Biso   1.000  C
  Zr21     1.0000 0.21244  0.63783  0.59129  Biso   1.000  Zr
  Zr22     1.0000 0.16122  0.66721  0.62043  Biso   1.000  Zr
  S21      1.0000 0.08554  0.67951  0.56576  Biso   1.000  S
  O131     1.0000 0.12457  0.62120  0.58529  Biso   1.000  O
  O132     1.0000 0.12884  0.66232  0.59337  Biso   1.000  O
  O133     1.0000 0.04951  0.71193  0.54231  Biso   1.000  O
  O134     1.0000 0.02587  0.68260  0.52434  Biso   1.000  O
  O135     1.0000 0.17285  0.70215  0.64089  Biso   1.000  O
  O136     1.0000 0.20939  0.69451  0.66042  Biso   1.000  O
  O137     1.0000 0.24907  0.67292  0.63740  Biso   1.000  O
  O138     1.0000 0.24779  0.66075  0.59716  Biso   1.000  O
  O139     1.0000 0.19641  0.62316  0.55463  Biso   1.000  O
  O140     1.0000 0.16299  0.59956  0.56442  Biso   1.000  O
  O141     1.0000 0.17440  0.63832  0.59843  Biso   1.000  O
  O142     1.0000 0.20276  0.66934  0.61660  Biso   1.000  O
  C201     1.0000 0.11815  0.64375  0.58343  Biso   1.000  C
  C202     1.0000 0.09619  0.64944  0.56799  Biso   1.000  C
  C203     1.0000 0.08208  0.63340  0.55433  Biso   1.000  C
  H51      1.0000 0.08490  0.61630  0.55340  Biso   1.000  H
  C204     1.0000 0.06235  0.64616  0.54157  Biso   1.000  C
  H52      1.0000 0.05110  0.63830  0.53100  Biso   1.000  H
  C205     1.0000 0.06179  0.67070  0.54646  Biso   1.000  C
  C206     1.0000 0.04429  0.68997  0.53670  Biso   1.000  C
  C207     1.0000 0.18993  0.70716  0.65609  Biso   1.000  C
  C208     1.0000 0.18673  0.73054  0.67055  Biso   1.000  C
  C209     1.0000 0.19987  0.73880  0.69056  Biso   1.000  C
  H53      1.0000 0.21350  0.73050  0.69730  Biso   1.000  H
  C210     1.0000 0.25655  0.67295  0.61532  Biso   1.000  C
  C211     1.0000 0.27822  0.68945  0.60899  Biso   1.000  C
  C212     1.0000 0.28857  0.69296  0.58648  Biso   1.000  C
  H54      1.0000 0.28400  0.68410  0.57240  Biso   1.000  H
  C213     1.0000 0.17816  0.60953  0.54936  Biso   1.000  C
  C214     1.0000 0.17279  0.60529  0.52273  Biso   1.000  C
  C215     1.0000 0.15280  0.59310  0.51320  Biso   1.000  C
  H55      1.0000 0.14050  0.58560  0.52290  Biso   1.000  H
  O143     1.0000 0.12811  0.68228  0.63893  Biso   1.000  O
  S22      1.0000 0.09880  0.73434  0.67880  Biso   1.000  S
  C216     1.0000 0.10330  0.75630  0.63580  Biso   1.000  C
  C217     1.0000 0.10930  0.71730  0.65390  Biso   1.000  C
  C218     1.0000 0.12210  0.69110  0.65970  Biso   1.000  C
  C219     1.0000 0.10970  0.73380  0.63210  Biso   1.000  C
  C220     1.0000 0.09480  0.76060  0.66150  Biso   1.000  C
  Zr23     1.0000 0.71244  0.13783  0.09129  Biso   1.000  Zr
  Zr24     1.0000 0.66122  0.16721  0.12043  Biso   1.000  Zr
  S23      1.0000 0.58554  0.17951  0.06576  Biso   1.000  S
  O144     1.0000 0.62457  0.12120  0.08529  Biso   1.000  O
  O145     1.0000 0.62884  0.16232  0.09337  Biso   1.000  O
  O146     1.0000 0.54951  0.21193  0.04231  Biso   1.000  O
  O147     1.0000 0.52587  0.18260  0.02434  Biso   1.000  O
  O148     1.0000 0.67285  0.20215  0.14089  Biso   1.000  O
  O149     1.0000 0.70939  0.19451  0.16042  Biso   1.000  O
  O150     1.0000 0.74907  0.17292  0.13740  Biso   1.000  O
  O151     1.0000 0.74779  0.16075  0.09716  Biso   1.000  O
  O152     1.0000 0.69641  0.12316  0.05463  Biso   1.000  O
  O153     1.0000 0.66299  0.09956  0.06442  Biso   1.000  O
  O154     1.0000 0.67440  0.13832  0.09843  Biso   1.000  O
  O155     1.0000 0.70276  0.16934  0.11660  Biso   1.000  O
  C221     1.0000 0.61815  0.14375  0.08343  Biso   1.000  C
  C222     1.0000 0.59619  0.14944  0.06799  Biso   1.000  C
  C223     1.0000 0.58208  0.13340  0.05433  Biso   1.000  C
  H56      1.0000 0.58490  0.11630  0.05340  Biso   1.000  H
  C224     1.0000 0.56235  0.14616  0.04157  Biso   1.000  C
  H57      1.0000 0.55110  0.13830  0.03100  Biso   1.000  H
  C225     1.0000 0.56179  0.17070  0.04646  Biso   1.000  C
  C226     1.0000 0.54429  0.18997  0.03670  Biso   1.000  C
  C227     1.0000 0.68993  0.20716  0.15609  Biso   1.000  C
  C228     1.0000 0.68673  0.23054  0.17055  Biso   1.000  C
  C229     1.0000 0.69987  0.23880  0.19056  Biso   1.000  C
  H58      1.0000 0.71350  0.23050  0.19730  Biso   1.000  H
  C230     1.0000 0.75655  0.17295  0.11532  Biso   1.000  C
  C231     1.0000 0.77822  0.18945  0.10899  Biso   1.000  C
  C232     1.0000 0.78857  0.19296  0.08648  Biso   1.000  C
  H59      1.0000 0.78400  0.18410  0.07240  Biso   1.000  H
  C233     1.0000 0.67816  0.10953  0.04936  Biso   1.000  C
  C234     1.0000 0.67279  0.10529  0.02273  Biso   1.000  C
  C235     1.0000 0.65280  0.09310  0.01320  Biso   1.000  C
  H60      1.0000 0.64050  0.08560  0.02290  Biso   1.000  H
  O156     1.0000 0.62811  0.18228  0.13893  Biso   1.000  O
  S24      1.0000 0.59880  0.23434  0.17880  Biso   1.000  S
  C236     1.0000 0.60330  0.25630  0.13580  Biso   1.000  C
  C237     1.0000 0.60930  0.21730  0.15390  Biso   1.000  C
  C238     1.0000 0.62210  0.19110  0.15970  Biso   1.000  C
  C239     1.0000 0.60970  0.23380  0.13210  Biso   1.000  C
  C240     1.0000 0.59480  0.26060  0.16150  Biso   1.000  C
  Zr25     1.0000 0.78756  0.63783  0.40871  Biso   1.000  Zr
  Zr26     1.0000 0.83878  0.66721  0.37957  Biso   1.000  Zr
  S25      1.0000 0.91446  0.67951  0.43424  Biso   1.000  S
  O157     1.0000 0.87543  0.62120  0.41471  Biso   1.000  O
  O158     1.0000 0.87116  0.66232  0.40663  Biso   1.000  O
  O159     1.0000 0.95049  0.71193  0.45769  Biso   1.000  O
  O160     1.0000 0.97413  0.68260  0.47566  Biso   1.000  O
  O161     1.0000 0.82715  0.70215  0.35911  Biso   1.000  O
  O162     1.0000 0.79061  0.69451  0.33958  Biso   1.000  O
  O163     1.0000 0.75093  0.67292  0.36260  Biso   1.000  O
  O164     1.0000 0.75221  0.66075  0.40284  Biso   1.000  O
  O165     1.0000 0.80359  0.62316  0.44537  Biso   1.000  O
  O166     1.0000 0.83701  0.59956  0.43558  Biso   1.000  O
  O167     1.0000 0.82560  0.63832  0.40157  Biso   1.000  O
  O168     1.0000 0.79724  0.66934  0.38340  Biso   1.000  O
  C241     1.0000 0.88185  0.64375  0.41657  Biso   1.000  C
  C242     1.0000 0.90381  0.64944  0.43201  Biso   1.000  C
  C243     1.0000 0.91792  0.63340  0.44567  Biso   1.000  C
  H61      1.0000 0.91510  0.61630  0.44660  Biso   1.000  H
  C244     1.0000 0.93765  0.64616  0.45843  Biso   1.000  C
  H62      1.0000 0.94890  0.63830  0.46900  Biso   1.000  H
  C245     1.0000 0.93821  0.67070  0.45354  Biso   1.000  C
  C246     1.0000 0.95571  0.68997  0.46330  Biso   1.000  C
  C247     1.0000 0.81007  0.70716  0.34391  Biso   1.000  C
  C248     1.0000 0.81327  0.73054  0.32945  Biso   1.000  C
  C249     1.0000 0.80013  0.73880  0.30944  Biso   1.000  C
  H63      1.0000 0.78650  0.73050  0.30270  Biso   1.000  H
  C250     1.0000 0.74345  0.67295  0.38468  Biso   1.000  C
  C251     1.0000 0.72178  0.68945  0.39101  Biso   1.000  C
  C252     1.0000 0.71143  0.69296  0.41352  Biso   1.000  C
  H64      1.0000 0.71600  0.68410  0.42760  Biso   1.000  H
  C253     1.0000 0.82184  0.60953  0.45064  Biso   1.000  C
  C254     1.0000 0.82721  0.60529  0.47727  Biso   1.000  C
  C255     1.0000 0.84720  0.59310  0.48680  Biso   1.000  C
  H65      1.0000 0.85950  0.58560  0.47710  Biso   1.000  H
  O169     1.0000 0.87189  0.68228  0.36107  Biso   1.000  O
  S26      1.0000 0.90120  0.73434  0.32120  Biso   1.000  S
  C256     1.0000 0.89670  0.75630  0.36420  Biso   1.000  C
  C257     1.0000 0.89070  0.71730  0.34610  Biso   1.000  C
  C258     1.0000 0.87790  0.69110  0.34030  Biso   1.000  C
  C259     1.0000 0.89030  0.73380  0.36790  Biso   1.000  C
  C260     1.0000 0.90520  0.76060  0.33850  Biso   1.000  C
  Zr27     1.0000 0.28756  0.13783  0.90871  Biso   1.000  Zr
  Zr28     1.0000 0.33878  0.16721  0.87957  Biso   1.000  Zr
  S27      1.0000 0.41446  0.17951  0.93424  Biso   1.000  S
  O170     1.0000 0.37543  0.12120  0.91471  Biso   1.000  O
  O171     1.0000 0.37116  0.16232  0.90663  Biso   1.000  O
  O172     1.0000 0.45049  0.21193  0.95769  Biso   1.000  O
  O173     1.0000 0.47413  0.18260  0.97566  Biso   1.000  O
  O174     1.0000 0.32715  0.20215  0.85911  Biso   1.000  O
  O175     1.0000 0.29061  0.19451  0.83958  Biso   1.000  O
  O176     1.0000 0.25093  0.17292  0.86260  Biso   1.000  O
  O177     1.0000 0.25221  0.16075  0.90284  Biso   1.000  O
  O178     1.0000 0.30359  0.12316  0.94537  Biso   1.000  O
  O179     1.0000 0.33701  0.09956  0.93558  Biso   1.000  O
  O180     1.0000 0.32560  0.13832  0.90157  Biso   1.000  O
  O181     1.0000 0.29724  0.16934  0.88340  Biso   1.000  O
  C261     1.0000 0.38185  0.14375  0.91657  Biso   1.000  C
  C262     1.0000 0.40381  0.14944  0.93201  Biso   1.000  C
  C263     1.0000 0.41792  0.13340  0.94567  Biso   1.000  C
  H66      1.0000 0.41510  0.11630  0.94660  Biso   1.000  H
  C264     1.0000 0.43765  0.14616  0.95843  Biso   1.000  C
  H67      1.0000 0.44890  0.13830  0.96900  Biso   1.000  H
  C265     1.0000 0.43821  0.17070  0.95354  Biso   1.000  C
  C266     1.0000 0.45571  0.18997  0.96330  Biso   1.000  C
  C267     1.0000 0.31007  0.20716  0.84391  Biso   1.000  C
  C268     1.0000 0.31327  0.23054  0.82945  Biso   1.000  C
  C269     1.0000 0.30013  0.23880  0.80944  Biso   1.000  C
  H68      1.0000 0.28650  0.23050  0.80270  Biso   1.000  H
  C270     1.0000 0.24345  0.17295  0.88468  Biso   1.000  C
  C271     1.0000 0.22178  0.18945  0.89101  Biso   1.000  C
  C272     1.0000 0.21143  0.19296  0.91352  Biso   1.000  C
  H69      1.0000 0.21600  0.18410  0.92760  Biso   1.000  H
  C273     1.0000 0.32184  0.10953  0.95064  Biso   1.000  C
  C274     1.0000 0.32721  0.10529  0.97727  Biso   1.000  C
  C275     1.0000 0.34720  0.09310  0.98680  Biso   1.000  C
  H70      1.0000 0.35950  0.08560  0.97710  Biso   1.000  H
  O182     1.0000 0.37189  0.18228  0.86107  Biso   1.000  O
  S28      1.0000 0.40120  0.23434  0.82120  Biso   1.000  S
  C276     1.0000 0.39670  0.25630  0.86420  Biso   1.000  C
  C277     1.0000 0.39070  0.21730  0.84610  Biso   1.000  C
  C278     1.0000 0.37790  0.19110  0.84030  Biso   1.000  C
  C279     1.0000 0.39030  0.23380  0.86790  Biso   1.000  C
  C280     1.0000 0.40520  0.26060  0.83850  Biso   1.000  C
  Zr29     1.0000 0.78756  0.36217  0.59129  Biso   1.000  Zr
  Zr30     1.0000 0.83878  0.33279  0.62043  Biso   1.000  Zr
  S29      1.0000 0.91446  0.32049  0.56576  Biso   1.000  S
  O183     1.0000 0.87543  0.37880  0.58529  Biso   1.000  O
  O184     1.0000 0.87116  0.33768  0.59337  Biso   1.000  O
  O185     1.0000 0.95049  0.28807  0.54231  Biso   1.000  O
  O186     1.0000 0.97413  0.31740  0.52434  Biso   1.000  O
  O187     1.0000 0.82715  0.29785  0.64089  Biso   1.000  O
  O188     1.0000 0.79061  0.30549  0.66042  Biso   1.000  O
  O189     1.0000 0.75093  0.32708  0.63740  Biso   1.000  O
  O190     1.0000 0.75221  0.33925  0.59716  Biso   1.000  O
  O191     1.0000 0.80359  0.37684  0.55463  Biso   1.000  O
  O192     1.0000 0.83701  0.40044  0.56442  Biso   1.000  O
  O193     1.0000 0.82560  0.36168  0.59843  Biso   1.000  O
  O194     1.0000 0.79724  0.33066  0.61660  Biso   1.000  O
  C281     1.0000 0.88185  0.35625  0.58343  Biso   1.000  C
  C282     1.0000 0.90381  0.35056  0.56799  Biso   1.000  C
  C283     1.0000 0.91792  0.36660  0.55433  Biso   1.000  C
  H71      1.0000 0.91510  0.38370  0.55340  Biso   1.000  H
  C284     1.0000 0.93765  0.35384  0.54157  Biso   1.000  C
  H72      1.0000 0.94890  0.36170  0.53100  Biso   1.000  H
  C285     1.0000 0.93821  0.32930  0.54646  Biso   1.000  C
  C286     1.0000 0.95571  0.31003  0.53670  Biso   1.000  C
  C287     1.0000 0.81007  0.29284  0.65609  Biso   1.000  C
  C288     1.0000 0.81327  0.26946  0.67055  Biso   1.000  C
  C289     1.0000 0.80013  0.26120  0.69056  Biso   1.000  C
  H73      1.0000 0.78650  0.26950  0.69730  Biso   1.000  H
  C290     1.0000 0.74345  0.32705  0.61532  Biso   1.000  C
  C291     1.0000 0.72178  0.31055  0.60899  Biso   1.000  C
  C292     1.0000 0.71143  0.30704  0.58648  Biso   1.000  C
  H74      1.0000 0.71600  0.31590  0.57240  Biso   1.000  H
  C293     1.0000 0.82184  0.39047  0.54936  Biso   1.000  C
  C294     1.0000 0.82721  0.39471  0.52273  Biso   1.000  C
  C295     1.0000 0.84720  0.40690  0.51320  Biso   1.000  C
  H75      1.0000 0.85950  0.41440  0.52290  Biso   1.000  H
  O195     1.0000 0.87189  0.31772  0.63893  Biso   1.000  O
  S30      1.0000 0.90120  0.26566  0.67880  Biso   1.000  S
  C296     1.0000 0.89670  0.24370  0.63580  Biso   1.000  C
  C297     1.0000 0.89070  0.28270  0.65390  Biso   1.000  C
  C298     1.0000 0.87790  0.30890  0.65970  Biso   1.000  C
  C299     1.0000 0.89030  0.26620  0.63210  Biso   1.000  C
  C300     1.0000 0.90520  0.23940  0.66150  Biso   1.000  C
  Zr31     1.0000 0.28756  0.86217  0.09129  Biso   1.000  Zr
  Zr32     1.0000 0.33878  0.83279  0.12043  Biso   1.000  Zr
  S31      1.0000 0.41446  0.82049  0.06576  Biso   1.000  S
  O196     1.0000 0.37543  0.87880  0.08529  Biso   1.000  O
  O197     1.0000 0.37116  0.83768  0.09337  Biso   1.000  O
  O198     1.0000 0.45049  0.78807  0.04231  Biso   1.000  O
  O199     1.0000 0.47413  0.81740  0.02434  Biso   1.000  O
  O200     1.0000 0.32715  0.79785  0.14089  Biso   1.000  O
  O201     1.0000 0.29061  0.80549  0.16042  Biso   1.000  O
  O202     1.0000 0.25093  0.82708  0.13740  Biso   1.000  O
  O203     1.0000 0.25221  0.83925  0.09716  Biso   1.000  O
  O204     1.0000 0.30359  0.87684  0.05463  Biso   1.000  O
  O205     1.0000 0.33701  0.90044  0.06442  Biso   1.000  O
  O206     1.0000 0.32560  0.86168  0.09843  Biso   1.000  O
  O207     1.0000 0.29724  0.83066  0.11660  Biso   1.000  O
  C301     1.0000 0.38185  0.85625  0.08343  Biso   1.000  C
  C302     1.0000 0.40381  0.85056  0.06799  Biso   1.000  C
  C303     1.0000 0.41792  0.86660  0.05433  Biso   1.000  C
  H76      1.0000 0.41510  0.88370  0.05340  Biso   1.000  H
  C304     1.0000 0.43765  0.85384  0.04157  Biso   1.000  C
  H77      1.0000 0.44890  0.86170  0.03100  Biso   1.000  H
  C305     1.0000 0.43821  0.82930  0.04646  Biso   1.000  C
  C306     1.0000 0.45571  0.81003  0.03670  Biso   1.000  C
  C307     1.0000 0.31007  0.79284  0.15609  Biso   1.000  C
  C308     1.0000 0.31327  0.76946  0.17055  Biso   1.000  C
  C309     1.0000 0.30013  0.76120  0.19056  Biso   1.000  C
  H78      1.0000 0.28650  0.76950  0.19730  Biso   1.000  H
  C310     1.0000 0.24345  0.82705  0.11532  Biso   1.000  C
  C311     1.0000 0.22178  0.81055  0.10899  Biso   1.000  C
  C312     1.0000 0.21143  0.80704  0.08648  Biso   1.000  C
  H79      1.0000 0.21600  0.81590  0.07240  Biso   1.000  H
  C313     1.0000 0.32184  0.89047  0.04936  Biso   1.000  C
  C314     1.0000 0.32721  0.89471  0.02273  Biso   1.000  C
  C315     1.0000 0.34720  0.90690  0.01320  Biso   1.000  C
  H80      1.0000 0.35950  0.91440  0.02290  Biso   1.000  H
  O208     1.0000 0.37189  0.81772  0.13893  Biso   1.000  O
  S32      1.0000 0.40120  0.76566  0.17880  Biso   1.000  S
  C316     1.0000 0.39670  0.74370  0.13580  Biso   1.000  C
  C317     1.0000 0.39070  0.78270  0.15390  Biso   1.000  C
  C318     1.0000 0.37790  0.80890  0.15970  Biso   1.000  C
  C319     1.0000 0.39030  0.76620  0.13210  Biso   1.000  C
  C320     1.0000 0.40520  0.73940  0.16150  Biso   1.000  C
  Zr33     1.0000 0.40871  0.21244  0.36217  Biso   1.000  Zr
  Zr34     1.0000 0.37957  0.16122  0.33279  Biso   1.000  Zr
  S33      1.0000 0.43424  0.08554  0.32049  Biso   1.000  S
  O209     1.0000 0.41471  0.12457  0.37880  Biso   1.000  O
  O210     1.0000 0.40663  0.12884  0.33768  Biso   1.000  O
  O211     1.0000 0.45769  0.04951  0.28807  Biso   1.000  O
  O212     1.0000 0.47566  0.02587  0.31740  Biso   1.000  O
  O213     1.0000 0.35911  0.17285  0.29785  Biso   1.000  O
  O214     1.0000 0.33958  0.20939  0.30549  Biso   1.000  O
  O215     1.0000 0.36260  0.24907  0.32708  Biso   1.000  O
  O216     1.0000 0.40284  0.24779  0.33925  Biso   1.000  O
  O217     1.0000 0.44537  0.19641  0.37684  Biso   1.000  O
  O218     1.0000 0.43558  0.16299  0.40044  Biso   1.000  O
  O219     1.0000 0.40157  0.17440  0.36168  Biso   1.000  O
  O220     1.0000 0.38340  0.20276  0.33066  Biso   1.000  O
  C321     1.0000 0.41657  0.11815  0.35625  Biso   1.000  C
  C322     1.0000 0.43201  0.09619  0.35056  Biso   1.000  C
  C323     1.0000 0.44567  0.08208  0.36660  Biso   1.000  C
  H81      1.0000 0.44660  0.08490  0.38370  Biso   1.000  H
  C324     1.0000 0.45843  0.06235  0.35384  Biso   1.000  C
  H82      1.0000 0.46900  0.05110  0.36170  Biso   1.000  H
  C325     1.0000 0.45354  0.06179  0.32930  Biso   1.000  C
  C326     1.0000 0.46330  0.04429  0.31003  Biso   1.000  C
  C327     1.0000 0.34391  0.18993  0.29284  Biso   1.000  C
  C328     1.0000 0.32945  0.18673  0.26946  Biso   1.000  C
  C329     1.0000 0.30944  0.19987  0.26120  Biso   1.000  C
  H83      1.0000 0.30270  0.21350  0.26950  Biso   1.000  H
  C330     1.0000 0.38468  0.25655  0.32705  Biso   1.000  C
  C331     1.0000 0.39101  0.27822  0.31055  Biso   1.000  C
  C332     1.0000 0.41352  0.28857  0.30704  Biso   1.000  C
  H84      1.0000 0.42760  0.28400  0.31590  Biso   1.000  H
  C333     1.0000 0.45064  0.17816  0.39047  Biso   1.000  C
  C334     1.0000 0.47727  0.17279  0.39471  Biso   1.000  C
  C335     1.0000 0.48680  0.15280  0.40690  Biso   1.000  C
  H85      1.0000 0.47710  0.14050  0.41440  Biso   1.000  H
  O221     1.0000 0.36107  0.12811  0.31772  Biso   1.000  O
  S34      1.0000 0.32120  0.09880  0.26566  Biso   1.000  S
  C336     1.0000 0.36420  0.10330  0.24370  Biso   1.000  C
  C337     1.0000 0.34610  0.10930  0.28270  Biso   1.000  C
  C338     1.0000 0.34030  0.12210  0.30890  Biso   1.000  C
  C339     1.0000 0.36790  0.10970  0.26620  Biso   1.000  C
  C340     1.0000 0.33850  0.09480  0.23940  Biso   1.000  C
  Zr35     1.0000 0.90871  0.71244  0.86217  Biso   1.000  Zr
  Zr36     1.0000 0.87957  0.66122  0.83279  Biso   1.000  Zr
  S35      1.0000 0.93424  0.58554  0.82049  Biso   1.000  S
  O222     1.0000 0.91471  0.62457  0.87880  Biso   1.000  O
  O223     1.0000 0.90663  0.62884  0.83768  Biso   1.000  O
  O224     1.0000 0.95769  0.54951  0.78807  Biso   1.000  O
  O225     1.0000 0.97566  0.52587  0.81740  Biso   1.000  O
  O226     1.0000 0.85911  0.67285  0.79785  Biso   1.000  O
  O227     1.0000 0.83958  0.70939  0.80549  Biso   1.000  O
  O228     1.0000 0.86260  0.74907  0.82708  Biso   1.000  O
  O229     1.0000 0.90284  0.74779  0.83925  Biso   1.000  O
  O230     1.0000 0.94537  0.69641  0.87684  Biso   1.000  O
  O231     1.0000 0.93558  0.66299  0.90044  Biso   1.000  O
  O232     1.0000 0.90157  0.67440  0.86168  Biso   1.000  O
  O233     1.0000 0.88340  0.70276  0.83066  Biso   1.000  O
  C341     1.0000 0.91657  0.61815  0.85625  Biso   1.000  C
  C342     1.0000 0.93201  0.59619  0.85056  Biso   1.000  C
  C343     1.0000 0.94567  0.58208  0.86660  Biso   1.000  C
  H86      1.0000 0.94660  0.58490  0.88370  Biso   1.000  H
  C344     1.0000 0.95843  0.56235  0.85384  Biso   1.000  C
  H87      1.0000 0.96900  0.55110  0.86170  Biso   1.000  H
  C345     1.0000 0.95354  0.56179  0.82930  Biso   1.000  C
  C346     1.0000 0.96330  0.54429  0.81003  Biso   1.000  C
  C347     1.0000 0.84391  0.68993  0.79284  Biso   1.000  C
  C348     1.0000 0.82945  0.68673  0.76946  Biso   1.000  C
  C349     1.0000 0.80944  0.69987  0.76120  Biso   1.000  C
  H88      1.0000 0.80270  0.71350  0.76950  Biso   1.000  H
  C350     1.0000 0.88468  0.75655  0.82705  Biso   1.000  C
  C351     1.0000 0.89101  0.77822  0.81055  Biso   1.000  C
  C352     1.0000 0.91352  0.78857  0.80704  Biso   1.000  C
  H89      1.0000 0.92760  0.78400  0.81590  Biso   1.000  H
  C353     1.0000 0.95064  0.67816  0.89047  Biso   1.000  C
  C354     1.0000 0.97727  0.67279  0.89471  Biso   1.000  C
  C355     1.0000 0.98680  0.65280  0.90690  Biso   1.000  C
  H90      1.0000 0.97710  0.64050  0.91440  Biso   1.000  H
  O234     1.0000 0.86107  0.62811  0.81772  Biso   1.000  O
  S36      1.0000 0.82120  0.59880  0.76566  Biso   1.000  S
  C356     1.0000 0.86420  0.60330  0.74370  Biso   1.000  C
  C357     1.0000 0.84610  0.60930  0.78270  Biso   1.000  C
  C358     1.0000 0.84030  0.62210  0.80890  Biso   1.000  C
  C359     1.0000 0.86790  0.60970  0.76620  Biso   1.000  C
  C360     1.0000 0.83850  0.59480  0.73940  Biso   1.000  C
  Zr37     1.0000 0.59129  0.21244  0.63783  Biso   1.000  Zr
  Zr38     1.0000 0.62043  0.16122  0.66721  Biso   1.000  Zr
  S37      1.0000 0.56576  0.08554  0.67951  Biso   1.000  S
  O235     1.0000 0.58529  0.12457  0.62120  Biso   1.000  O
  O236     1.0000 0.59337  0.12884  0.66232  Biso   1.000  O
  O237     1.0000 0.54231  0.04951  0.71193  Biso   1.000  O
  O238     1.0000 0.52434  0.02587  0.68260  Biso   1.000  O
  O239     1.0000 0.64089  0.17285  0.70215  Biso   1.000  O
  O240     1.0000 0.66042  0.20939  0.69451  Biso   1.000  O
  O241     1.0000 0.63740  0.24907  0.67292  Biso   1.000  O
  O242     1.0000 0.59716  0.24779  0.66075  Biso   1.000  O
  O243     1.0000 0.55463  0.19641  0.62316  Biso   1.000  O
  O244     1.0000 0.56442  0.16299  0.59956  Biso   1.000  O
  O245     1.0000 0.59843  0.17440  0.63832  Biso   1.000  O
  O246     1.0000 0.61660  0.20276  0.66934  Biso   1.000  O
  C361     1.0000 0.58343  0.11815  0.64375  Biso   1.000  C
  C362     1.0000 0.56799  0.09619  0.64944  Biso   1.000  C
  C363     1.0000 0.55433  0.08208  0.63340  Biso   1.000  C
  H91      1.0000 0.55340  0.08490  0.61630  Biso   1.000  H
  C364     1.0000 0.54157  0.06235  0.64616  Biso   1.000  C
  H92      1.0000 0.53100  0.05110  0.63830  Biso   1.000  H
  C365     1.0000 0.54646  0.06179  0.67070  Biso   1.000  C
  C366     1.0000 0.53670  0.04429  0.68997  Biso   1.000  C
  C367     1.0000 0.65609  0.18993  0.70716  Biso   1.000  C
  C368     1.0000 0.67055  0.18673  0.73054  Biso   1.000  C
  C369     1.0000 0.69056  0.19987  0.73880  Biso   1.000  C
  H93      1.0000 0.69730  0.21350  0.73050  Biso   1.000  H
  C370     1.0000 0.61532  0.25655  0.67295  Biso   1.000  C
  C371     1.0000 0.60899  0.27822  0.68945  Biso   1.000  C
  C372     1.0000 0.58648  0.28857  0.69296  Biso   1.000  C
  H94      1.0000 0.57240  0.28400  0.68410  Biso   1.000  H
  C373     1.0000 0.54936  0.17816  0.60953  Biso   1.000  C
  C374     1.0000 0.52273  0.17279  0.60529  Biso   1.000  C
  C375     1.0000 0.51320  0.15280  0.59310  Biso   1.000  C
  H95      1.0000 0.52290  0.14050  0.58560  Biso   1.000  H
  O247     1.0000 0.63893  0.12811  0.68228  Biso   1.000  O
  S38      1.0000 0.67880  0.09880  0.73434  Biso   1.000  S
  C376     1.0000 0.63580  0.10330  0.75630  Biso   1.000  C
  C377     1.0000 0.65390  0.10930  0.71730  Biso   1.000  C
  C378     1.0000 0.65970  0.12210  0.69110  Biso   1.000  C
  C379     1.0000 0.63210  0.10970  0.73380  Biso   1.000  C
  C380     1.0000 0.66150  0.09480  0.76060  Biso   1.000  C
  Zr39     1.0000 0.09129  0.71244  0.13783  Biso   1.000  Zr
  Zr40     1.0000 0.12043  0.66122  0.16721  Biso   1.000  Zr
  S39      1.0000 0.06576  0.58554  0.17951  Biso   1.000  S
  O248     1.0000 0.08529  0.62457  0.12120  Biso   1.000  O
  O249     1.0000 0.09337  0.62884  0.16232  Biso   1.000  O
  O250     1.0000 0.04231  0.54951  0.21193  Biso   1.000  O
  O251     1.0000 0.02434  0.52587  0.18260  Biso   1.000  O
  O252     1.0000 0.14089  0.67285  0.20215  Biso   1.000  O
  O253     1.0000 0.16042  0.70939  0.19451  Biso   1.000  O
  O254     1.0000 0.13740  0.74907  0.17292  Biso   1.000  O
  O255     1.0000 0.09716  0.74779  0.16075  Biso   1.000  O
  O256     1.0000 0.05463  0.69641  0.12316  Biso   1.000  O
  O257     1.0000 0.06442  0.66299  0.09956  Biso   1.000  O
  O258     1.0000 0.09843  0.67440  0.13832  Biso   1.000  O
  O259     1.0000 0.11660  0.70276  0.16934  Biso   1.000  O
  C381     1.0000 0.08343  0.61815  0.14375  Biso   1.000  C
  C382     1.0000 0.06799  0.59619  0.14944  Biso   1.000  C
  C383     1.0000 0.05433  0.58208  0.13340  Biso   1.000  C
  H96      1.0000 0.05340  0.58490  0.11630  Biso   1.000  H
  C384     1.0000 0.04157  0.56235  0.14616  Biso   1.000  C
  H97      1.0000 0.03100  0.55110  0.13830  Biso   1.000  H
  C385     1.0000 0.04646  0.56179  0.17070  Biso   1.000  C
  C386     1.0000 0.03670  0.54429  0.18997  Biso   1.000  C
  C387     1.0000 0.15609  0.68993  0.20716  Biso   1.000  C
  C388     1.0000 0.17055  0.68673  0.23054  Biso   1.000  C
  C389     1.0000 0.19056  0.69987  0.23880  Biso   1.000  C
  H98      1.0000 0.19730  0.71350  0.23050  Biso   1.000  H
  C390     1.0000 0.11532  0.75655  0.17295  Biso   1.000  C
  C391     1.0000 0.10899  0.77822  0.18945  Biso   1.000  C
  C392     1.0000 0.08648  0.78857  0.19296  Biso   1.000  C
  H99      1.0000 0.07240  0.78400  0.18410  Biso   1.000  H
  C393     1.0000 0.04936  0.67816  0.10953  Biso   1.000  C
  C394     1.0000 0.02273  0.67279  0.10529  Biso   1.000  C
  C395     1.0000 0.01320  0.65280  0.09310  Biso   1.000  C
  H100     1.0000 0.02290  0.64050  0.08560  Biso   1.000  H
  O260     1.0000 0.13893  0.62811  0.18228  Biso   1.000  O
  S40      1.0000 0.17880  0.59880  0.23434  Biso   1.000  S
  C396     1.0000 0.13580  0.60330  0.25630  Biso   1.000  C
  C397     1.0000 0.15390  0.60930  0.21730  Biso   1.000  C
  C398     1.0000 0.15970  0.62210  0.19110  Biso   1.000  C
  C399     1.0000 0.13210  0.60970  0.23380  Biso   1.000  C
  C400     1.0000 0.16150  0.59480  0.26060  Biso   1.000  C
  Zr41     1.0000 0.40871  0.78756  0.63783  Biso   1.000  Zr
  Zr42     1.0000 0.37957  0.83878  0.66721  Biso   1.000  Zr
  S41      1.0000 0.43424  0.91446  0.67951  Biso   1.000  S
  O261     1.0000 0.41471  0.87543  0.62120  Biso   1.000  O
  O262     1.0000 0.40663  0.87116  0.66232  Biso   1.000  O
  O263     1.0000 0.45769  0.95049  0.71193  Biso   1.000  O
  O264     1.0000 0.47566  0.97413  0.68260  Biso   1.000  O
  O265     1.0000 0.35911  0.82715  0.70215  Biso   1.000  O
  O266     1.0000 0.33958  0.79061  0.69451  Biso   1.000  O
  O267     1.0000 0.36260  0.75093  0.67292  Biso   1.000  O
  O268     1.0000 0.40284  0.75221  0.66075  Biso   1.000  O
  O269     1.0000 0.44537  0.80359  0.62316  Biso   1.000  O
  O270     1.0000 0.43558  0.83701  0.59956  Biso   1.000  O
  O271     1.0000 0.40157  0.82560  0.63832  Biso   1.000  O
  O272     1.0000 0.38340  0.79724  0.66934  Biso   1.000  O
  C401     1.0000 0.41657  0.88185  0.64375  Biso   1.000  C
  C402     1.0000 0.43201  0.90381  0.64944  Biso   1.000  C
  C403     1.0000 0.44567  0.91792  0.63340  Biso   1.000  C
  H101     1.0000 0.44660  0.91510  0.61630  Biso   1.000  H
  C404     1.0000 0.45843  0.93765  0.64616  Biso   1.000  C
  H102     1.0000 0.46900  0.94890  0.63830  Biso   1.000  H
  C405     1.0000 0.45354  0.93821  0.67070  Biso   1.000  C
  C406     1.0000 0.46330  0.95571  0.68997  Biso   1.000  C
  C407     1.0000 0.34391  0.81007  0.70716  Biso   1.000  C
  C408     1.0000 0.32945  0.81327  0.73054  Biso   1.000  C
  C409     1.0000 0.30944  0.80013  0.73880  Biso   1.000  C
  H103     1.0000 0.30270  0.78650  0.73050  Biso   1.000  H
  C410     1.0000 0.38468  0.74345  0.67295  Biso   1.000  C
  C411     1.0000 0.39101  0.72178  0.68945  Biso   1.000  C
  C412     1.0000 0.41352  0.71143  0.69296  Biso   1.000  C
  H104     1.0000 0.42760  0.71600  0.68410  Biso   1.000  H
  C413     1.0000 0.45064  0.82184  0.60953  Biso   1.000  C
  C414     1.0000 0.47727  0.82721  0.60529  Biso   1.000  C
  C415     1.0000 0.48680  0.84720  0.59310  Biso   1.000  C
  H105     1.0000 0.47710  0.85950  0.58560  Biso   1.000  H
  O273     1.0000 0.36107  0.87189  0.68228  Biso   1.000  O
  S42      1.0000 0.32120  0.90120  0.73434  Biso   1.000  S
  C416     1.0000 0.36420  0.89670  0.75630  Biso   1.000  C
  C417     1.0000 0.34610  0.89070  0.71730  Biso   1.000  C
  C418     1.0000 0.34030  0.87790  0.69110  Biso   1.000  C
  C419     1.0000 0.36790  0.89030  0.73380  Biso   1.000  C
  C420     1.0000 0.33850  0.90520  0.76060  Biso   1.000  C
  Zr43     1.0000 0.90871  0.28756  0.13783  Biso   1.000  Zr
  Zr44     1.0000 0.87957  0.33878  0.16721  Biso   1.000  Zr
  S43      1.0000 0.93424  0.41446  0.17951  Biso   1.000  S
  O274     1.0000 0.91471  0.37543  0.12120  Biso   1.000  O
  O275     1.0000 0.90663  0.37116  0.16232  Biso   1.000  O
  O276     1.0000 0.95769  0.45049  0.21193  Biso   1.000  O
  O277     1.0000 0.97566  0.47413  0.18260  Biso   1.000  O
  O278     1.0000 0.85911  0.32715  0.20215  Biso   1.000  O
  O279     1.0000 0.83958  0.29061  0.19451  Biso   1.000  O
  O280     1.0000 0.86260  0.25093  0.17292  Biso   1.000  O
  O281     1.0000 0.90284  0.25221  0.16075  Biso   1.000  O
  O282     1.0000 0.94537  0.30359  0.12316  Biso   1.000  O
  O283     1.0000 0.93558  0.33701  0.09956  Biso   1.000  O
  O284     1.0000 0.90157  0.32560  0.13832  Biso   1.000  O
  O285     1.0000 0.88340  0.29724  0.16934  Biso   1.000  O
  C421     1.0000 0.91657  0.38185  0.14375  Biso   1.000  C
  C422     1.0000 0.93201  0.40381  0.14944  Biso   1.000  C
  C423     1.0000 0.94567  0.41792  0.13340  Biso   1.000  C
  H106     1.0000 0.94660  0.41510  0.11630  Biso   1.000  H
  C424     1.0000 0.95843  0.43765  0.14616  Biso   1.000  C
  H107     1.0000 0.96900  0.44890  0.13830  Biso   1.000  H
  C425     1.0000 0.95354  0.43821  0.17070  Biso   1.000  C
  C426     1.0000 0.96330  0.45571  0.18997  Biso   1.000  C
  C427     1.0000 0.84391  0.31007  0.20716  Biso   1.000  C
  C428     1.0000 0.82945  0.31327  0.23054  Biso   1.000  C
  C429     1.0000 0.80944  0.30013  0.23880  Biso   1.000  C
  H108     1.0000 0.80270  0.28650  0.23050  Biso   1.000  H
  C430     1.0000 0.88468  0.24345  0.17295  Biso   1.000  C
  C431     1.0000 0.89101  0.22178  0.18945  Biso   1.000  C
  C432     1.0000 0.91352  0.21143  0.19296  Biso   1.000  C
  H109     1.0000 0.92760  0.21600  0.18410  Biso   1.000  H
  C433     1.0000 0.95064  0.32184  0.10953  Biso   1.000  C
  C434     1.0000 0.97727  0.32721  0.10529  Biso   1.000  C
  C435     1.0000 0.98680  0.34720  0.09310  Biso   1.000  C
  H110     1.0000 0.97710  0.35950  0.08560  Biso   1.000  H
  O286     1.0000 0.86107  0.37189  0.18228  Biso   1.000  O
  S44      1.0000 0.82120  0.40120  0.23434  Biso   1.000  S
  C436     1.0000 0.86420  0.39670  0.25630  Biso   1.000  C
  C437     1.0000 0.84610  0.39070  0.21730  Biso   1.000  C
  C438     1.0000 0.84030  0.37790  0.19110  Biso   1.000  C
  C439     1.0000 0.86790  0.39030  0.23380  Biso   1.000  C
  C440     1.0000 0.83850  0.40520  0.26060  Biso   1.000  C
  Zr45     1.0000 0.59129  0.78756  0.36217  Biso   1.000  Zr
  Zr46     1.0000 0.62043  0.83878  0.33279  Biso   1.000  Zr
  S45      1.0000 0.56576  0.91446  0.32049  Biso   1.000  S
  O287     1.0000 0.58529  0.87543  0.37880  Biso   1.000  O
  O288     1.0000 0.59337  0.87116  0.33768  Biso   1.000  O
  O289     1.0000 0.54231  0.95049  0.28807  Biso   1.000  O
  O290     1.0000 0.52434  0.97413  0.31740  Biso   1.000  O
  O291     1.0000 0.64089  0.82715  0.29785  Biso   1.000  O
  O292     1.0000 0.66042  0.79061  0.30549  Biso   1.000  O
  O293     1.0000 0.63740  0.75093  0.32708  Biso   1.000  O
  O294     1.0000 0.59716  0.75221  0.33925  Biso   1.000  O
  O295     1.0000 0.55463  0.80359  0.37684  Biso   1.000  O
  O296     1.0000 0.56442  0.83701  0.40044  Biso   1.000  O
  O297     1.0000 0.59843  0.82560  0.36168  Biso   1.000  O
  O298     1.0000 0.61660  0.79724  0.33066  Biso   1.000  O
  C441     1.0000 0.58343  0.88185  0.35625  Biso   1.000  C
  C442     1.0000 0.56799  0.90381  0.35056  Biso   1.000  C
  C443     1.0000 0.55433  0.91792  0.36660  Biso   1.000  C
  H111     1.0000 0.55340  0.91510  0.38370  Biso   1.000  H
  C444     1.0000 0.54157  0.93765  0.35384  Biso   1.000  C
  H112     1.0000 0.53100  0.94890  0.36170  Biso   1.000  H
  C445     1.0000 0.54646  0.93821  0.32930  Biso   1.000  C
  C446     1.0000 0.53670  0.95571  0.31003  Biso   1.000  C
  C447     1.0000 0.65609  0.81007  0.29284  Biso   1.000  C
  C448     1.0000 0.67055  0.81327  0.26946  Biso   1.000  C
  C449     1.0000 0.69056  0.80013  0.26120  Biso   1.000  C
  H113     1.0000 0.69730  0.78650  0.26950  Biso   1.000  H
  C450     1.0000 0.61532  0.74345  0.32705  Biso   1.000  C
  C451     1.0000 0.60899  0.72178  0.31055  Biso   1.000  C
  C452     1.0000 0.58648  0.71143  0.30704  Biso   1.000  C
  H114     1.0000 0.57240  0.71600  0.31590  Biso   1.000  H
  C453     1.0000 0.54936  0.82184  0.39047  Biso   1.000  C
  C454     1.0000 0.52273  0.82721  0.39471  Biso   1.000  C
  C455     1.0000 0.51320  0.84720  0.40690  Biso   1.000  C
  H115     1.0000 0.52290  0.85950  0.41440  Biso   1.000  H
  O299     1.0000 0.63893  0.87189  0.31772  Biso   1.000  O
  S46      1.0000 0.67880  0.90120  0.26566  Biso   1.000  S
  C456     1.0000 0.63580  0.89670  0.24370  Biso   1.000  C
  C457     1.0000 0.65390  0.89070  0.28270  Biso   1.000  C
  C458     1.0000 0.65970  0.87790  0.30890  Biso   1.000  C
  C459     1.0000 0.63210  0.89030  0.26620  Biso   1.000  C
  C460     1.0000 0.66150  0.90520  0.23940  Biso   1.000  C
  Zr47     1.0000 0.09129  0.28756  0.86217  Biso   1.000  Zr
  Zr48     1.0000 0.12043  0.33878  0.83279  Biso   1.000  Zr
  S47      1.0000 0.06576  0.41446  0.82049  Biso   1.000  S
  O300     1.0000 0.08529  0.37543  0.87880  Biso   1.000  O
  O301     1.0000 0.09337  0.37116  0.83768  Biso   1.000  O
  O302     1.0000 0.04231  0.45049  0.78807  Biso   1.000  O
  O303     1.0000 0.02434  0.47413  0.81740  Biso   1.000  O
  O304     1.0000 0.14089  0.32715  0.79785  Biso   1.000  O
  O305     1.0000 0.16042  0.29061  0.80549  Biso   1.000  O
  O306     1.0000 0.13740  0.25093  0.82708  Biso   1.000  O
  O307     1.0000 0.09716  0.25221  0.83925  Biso   1.000  O
  O308     1.0000 0.05463  0.30359  0.87684  Biso   1.000  O
  O309     1.0000 0.06442  0.33701  0.90044  Biso   1.000  O
  O310     1.0000 0.09843  0.32560  0.86168  Biso   1.000  O
  O311     1.0000 0.11660  0.29724  0.83066  Biso   1.000  O
  C461     1.0000 0.08343  0.38185  0.85625  Biso   1.000  C
  C462     1.0000 0.06799  0.40381  0.85056  Biso   1.000  C
  C463     1.0000 0.05433  0.41792  0.86660  Biso   1.000  C
  H116     1.0000 0.05340  0.41510  0.88370  Biso   1.000  H
  C464     1.0000 0.04157  0.43765  0.85384  Biso   1.000  C
  H117     1.0000 0.03100  0.44890  0.86170  Biso   1.000  H
  C465     1.0000 0.04646  0.43821  0.82930  Biso   1.000  C
  C466     1.0000 0.03670  0.45571  0.81003  Biso   1.000  C
  C467     1.0000 0.15609  0.31007  0.79284  Biso   1.000  C
  C468     1.0000 0.17055  0.31327  0.76946  Biso   1.000  C
  C469     1.0000 0.19056  0.30013  0.76120  Biso   1.000  C
  H118     1.0000 0.19730  0.28650  0.76950  Biso   1.000  H
  C470     1.0000 0.11532  0.24345  0.82705  Biso   1.000  C
  C471     1.0000 0.10899  0.22178  0.81055  Biso   1.000  C
  C472     1.0000 0.08648  0.21143  0.80704  Biso   1.000  C
  H119     1.0000 0.07240  0.21600  0.81590  Biso   1.000  H
  C473     1.0000 0.04936  0.32184  0.89047  Biso   1.000  C
  C474     1.0000 0.02273  0.32721  0.89471  Biso   1.000  C
  C475     1.0000 0.01320  0.34720  0.90690  Biso   1.000  C
  H120     1.0000 0.02290  0.35950  0.91440  Biso   1.000  H
  O312     1.0000 0.13893  0.37189  0.81772  Biso   1.000  O
  S48      1.0000 0.17880  0.40120  0.76566  Biso   1.000  S
  C476     1.0000 0.13580  0.39670  0.74370  Biso   1.000  C
  C477     1.0000 0.15390  0.39070  0.78270  Biso   1.000  C
  C478     1.0000 0.15970  0.37790  0.80890  Biso   1.000  C
  C479     1.0000 0.13210  0.39030  0.76620  Biso   1.000  C
  C480     1.0000 0.16150  0.40520  0.73940  Biso   1.000  C
  Zr49     1.0000 0.40871  0.36217  0.78756  Biso   1.000  Zr
  Zr50     1.0000 0.37957  0.33279  0.83878  Biso   1.000  Zr
  S49      1.0000 0.43424  0.32049  0.91446  Biso   1.000  S
  O313     1.0000 0.41471  0.37880  0.87543  Biso   1.000  O
  O314     1.0000 0.40663  0.33768  0.87116  Biso   1.000  O
  O315     1.0000 0.45769  0.28807  0.95049  Biso   1.000  O
  O316     1.0000 0.47566  0.31740  0.97413  Biso   1.000  O
  O317     1.0000 0.35911  0.29785  0.82715  Biso   1.000  O
  O318     1.0000 0.33958  0.30549  0.79061  Biso   1.000  O
  O319     1.0000 0.36260  0.32708  0.75093  Biso   1.000  O
  O320     1.0000 0.40284  0.33925  0.75221  Biso   1.000  O
  O321     1.0000 0.44537  0.37684  0.80359  Biso   1.000  O
  O322     1.0000 0.43558  0.40044  0.83701  Biso   1.000  O
  O323     1.0000 0.40157  0.36168  0.82560  Biso   1.000  O
  O324     1.0000 0.38340  0.33066  0.79724  Biso   1.000  O
  C481     1.0000 0.41657  0.35625  0.88185  Biso   1.000  C
  C482     1.0000 0.43201  0.35056  0.90381  Biso   1.000  C
  C483     1.0000 0.44567  0.36660  0.91792  Biso   1.000  C
  H121     1.0000 0.44660  0.38370  0.91510  Biso   1.000  H
  C484     1.0000 0.45843  0.35384  0.93765  Biso   1.000  C
  H122     1.0000 0.46900  0.36170  0.94890  Biso   1.000  H
  C485     1.0000 0.45354  0.32930  0.93821  Biso   1.000  C
  C486     1.0000 0.46330  0.31003  0.95571  Biso   1.000  C
  C487     1.0000 0.34391  0.29284  0.81007  Biso   1.000  C
  C488     1.0000 0.32945  0.26946  0.81327  Biso   1.000  C
  C489     1.0000 0.30944  0.26120  0.80013  Biso   1.000  C
  H123     1.0000 0.30270  0.26950  0.78650  Biso   1.000  H
  C490     1.0000 0.38468  0.32705  0.74345  Biso   1.000  C
  C491     1.0000 0.39101  0.31055  0.72178  Biso   1.000  C
  C492     1.0000 0.41352  0.30704  0.71143  Biso   1.000  C
  H124     1.0000 0.42760  0.31590  0.71600  Biso   1.000  H
  C493     1.0000 0.45064  0.39047  0.82184  Biso   1.000  C
  C494     1.0000 0.47727  0.39471  0.82721  Biso   1.000  C
  C495     1.0000 0.48680  0.40690  0.84720  Biso   1.000  C
  H125     1.0000 0.47710  0.41440  0.85950  Biso   1.000  H
  O325     1.0000 0.36107  0.31772  0.87189  Biso   1.000  O
  S50      1.0000 0.32120  0.26566  0.90120  Biso   1.000  S
  C496     1.0000 0.36420  0.24370  0.89670  Biso   1.000  C
  C497     1.0000 0.34610  0.28270  0.89070  Biso   1.000  C
  C498     1.0000 0.34030  0.30890  0.87790  Biso   1.000  C
  C499     1.0000 0.36790  0.26620  0.89030  Biso   1.000  C
  C500     1.0000 0.33850  0.23940  0.90520  Biso   1.000  C
  Zr51     1.0000 0.90871  0.86217  0.28756  Biso   1.000  Zr
  Zr52     1.0000 0.87957  0.83279  0.33878  Biso   1.000  Zr
  S51      1.0000 0.93424  0.82049  0.41446  Biso   1.000  S
  O326     1.0000 0.91471  0.87880  0.37543  Biso   1.000  O
  O327     1.0000 0.90663  0.83768  0.37116  Biso   1.000  O
  O328     1.0000 0.95769  0.78807  0.45049  Biso   1.000  O
  O329     1.0000 0.97566  0.81740  0.47413  Biso   1.000  O
  O330     1.0000 0.85911  0.79785  0.32715  Biso   1.000  O
  O331     1.0000 0.83958  0.80549  0.29061  Biso   1.000  O
  O332     1.0000 0.86260  0.82708  0.25093  Biso   1.000  O
  O333     1.0000 0.90284  0.83925  0.25221  Biso   1.000  O
  O334     1.0000 0.94537  0.87684  0.30359  Biso   1.000  O
  O335     1.0000 0.93558  0.90044  0.33701  Biso   1.000  O
  O336     1.0000 0.90157  0.86168  0.32560  Biso   1.000  O
  O337     1.0000 0.88340  0.83066  0.29724  Biso   1.000  O
  C501     1.0000 0.91657  0.85625  0.38185  Biso   1.000  C
  C502     1.0000 0.93201  0.85056  0.40381  Biso   1.000  C
  C503     1.0000 0.94567  0.86660  0.41792  Biso   1.000  C
  H126     1.0000 0.94660  0.88370  0.41510  Biso   1.000  H
  C504     1.0000 0.95843  0.85384  0.43765  Biso   1.000  C
  H127     1.0000 0.96900  0.86170  0.44890  Biso   1.000  H
  C505     1.0000 0.95354  0.82930  0.43821  Biso   1.000  C
  C506     1.0000 0.96330  0.81003  0.45571  Biso   1.000  C
  C507     1.0000 0.84391  0.79284  0.31007  Biso   1.000  C
  C508     1.0000 0.82945  0.76946  0.31327  Biso   1.000  C
  C509     1.0000 0.80944  0.76120  0.30013  Biso   1.000  C
  H128     1.0000 0.80270  0.76950  0.28650  Biso   1.000  H
  C510     1.0000 0.88468  0.82705  0.24345  Biso   1.000  C
  C511     1.0000 0.89101  0.81055  0.22178  Biso   1.000  C
  C512     1.0000 0.91352  0.80704  0.21143  Biso   1.000  C
  H129     1.0000 0.92760  0.81590  0.21600  Biso   1.000  H
  C513     1.0000 0.95064  0.89047  0.32184  Biso   1.000  C
  C514     1.0000 0.97727  0.89471  0.32721  Biso   1.000  C
  C515     1.0000 0.98680  0.90690  0.34720  Biso   1.000  C
  H130     1.0000 0.97710  0.91440  0.35950  Biso   1.000  H
  O338     1.0000 0.86107  0.81772  0.37189  Biso   1.000  O
  S52      1.0000 0.82120  0.76566  0.40120  Biso   1.000  S
  C516     1.0000 0.86420  0.74370  0.39670  Biso   1.000  C
  C517     1.0000 0.84610  0.78270  0.39070  Biso   1.000  C
  C518     1.0000 0.84030  0.80890  0.37790  Biso   1.000  C
  C519     1.0000 0.86790  0.76620  0.39030  Biso   1.000  C
  C520     1.0000 0.83850  0.73940  0.40520  Biso   1.000  C
  Zr53     1.0000 0.59129  0.63783  0.78756  Biso   1.000  Zr
  Zr54     1.0000 0.62043  0.66721  0.83878  Biso   1.000  Zr
  S53      1.0000 0.56576  0.67951  0.91446  Biso   1.000  S
  O339     1.0000 0.58529  0.62120  0.87543  Biso   1.000  O
  O340     1.0000 0.59337  0.66232  0.87116  Biso   1.000  O
  O341     1.0000 0.54231  0.71193  0.95049  Biso   1.000  O
  O342     1.0000 0.52434  0.68260  0.97413  Biso   1.000  O
  O343     1.0000 0.64089  0.70215  0.82715  Biso   1.000  O
  O344     1.0000 0.66042  0.69451  0.79061  Biso   1.000  O
  O345     1.0000 0.63740  0.67292  0.75093  Biso   1.000  O
  O346     1.0000 0.59716  0.66075  0.75221  Biso   1.000  O
  O347     1.0000 0.55463  0.62316  0.80359  Biso   1.000  O
  O348     1.0000 0.56442  0.59956  0.83701  Biso   1.000  O
  O349     1.0000 0.59843  0.63832  0.82560  Biso   1.000  O
  O350     1.0000 0.61660  0.66934  0.79724  Biso   1.000  O
  C521     1.0000 0.58343  0.64375  0.88185  Biso   1.000  C
  C522     1.0000 0.56799  0.64944  0.90381  Biso   1.000  C
  C523     1.0000 0.55433  0.63340  0.91792  Biso   1.000  C
  H131     1.0000 0.55340  0.61630  0.91510  Biso   1.000  H
  C524     1.0000 0.54157  0.64616  0.93765  Biso   1.000  C
  H132     1.0000 0.53100  0.63830  0.94890  Biso   1.000  H
  C525     1.0000 0.54646  0.67070  0.93821  Biso   1.000  C
  C526     1.0000 0.53670  0.68997  0.95571  Biso   1.000  C
  C527     1.0000 0.65609  0.70716  0.81007  Biso   1.000  C
  C528     1.0000 0.67055  0.73054  0.81327  Biso   1.000  C
  C529     1.0000 0.69056  0.73880  0.80013  Biso   1.000  C
  H133     1.0000 0.69730  0.73050  0.78650  Biso   1.000  H
  C530     1.0000 0.61532  0.67295  0.74345  Biso   1.000  C
  C531     1.0000 0.60899  0.68945  0.72178  Biso   1.000  C
  C532     1.0000 0.58648  0.69296  0.71143  Biso   1.000  C
  H134     1.0000 0.57240  0.68410  0.71600  Biso   1.000  H
  C533     1.0000 0.54936  0.60953  0.82184  Biso   1.000  C
  C534     1.0000 0.52273  0.60529  0.82721  Biso   1.000  C
  C535     1.0000 0.51320  0.59310  0.84720  Biso   1.000  C
  H135     1.0000 0.52290  0.58560  0.85950  Biso   1.000  H
  O351     1.0000 0.63893  0.68228  0.87189  Biso   1.000  O
  S54      1.0000 0.67880  0.73434  0.90120  Biso   1.000  S
  C536     1.0000 0.63580  0.75630  0.89670  Biso   1.000  C
  C537     1.0000 0.65390  0.71730  0.89070  Biso   1.000  C
  C538     1.0000 0.65970  0.69110  0.87790  Biso   1.000  C
  C539     1.0000 0.63210  0.73380  0.89030  Biso   1.000  C
  C540     1.0000 0.66150  0.76060  0.90520  Biso   1.000  C
  Zr55     1.0000 0.09129  0.13783  0.28756  Biso   1.000  Zr
  Zr56     1.0000 0.12043  0.16721  0.33878  Biso   1.000  Zr
  S55      1.0000 0.06576  0.17951  0.41446  Biso   1.000  S
  O352     1.0000 0.08529  0.12120  0.37543  Biso   1.000  O
  O353     1.0000 0.09337  0.16232  0.37116  Biso   1.000  O
  O354     1.0000 0.04231  0.21193  0.45049  Biso   1.000  O
  O355     1.0000 0.02434  0.18260  0.47413  Biso   1.000  O
  O356     1.0000 0.14089  0.20215  0.32715  Biso   1.000  O
  O357     1.0000 0.16042  0.19451  0.29061  Biso   1.000  O
  O358     1.0000 0.13740  0.17292  0.25093  Biso   1.000  O
  O359     1.0000 0.09716  0.16075  0.25221  Biso   1.000  O
  O360     1.0000 0.05463  0.12316  0.30359  Biso   1.000  O
  O361     1.0000 0.06442  0.09956  0.33701  Biso   1.000  O
  O362     1.0000 0.09843  0.13832  0.32560  Biso   1.000  O
  O363     1.0000 0.11660  0.16934  0.29724  Biso   1.000  O
  C541     1.0000 0.08343  0.14375  0.38185  Biso   1.000  C
  C542     1.0000 0.06799  0.14944  0.40381  Biso   1.000  C
  C543     1.0000 0.05433  0.13340  0.41792  Biso   1.000  C
  H136     1.0000 0.05340  0.11630  0.41510  Biso   1.000  H
  C544     1.0000 0.04157  0.14616  0.43765  Biso   1.000  C
  H137     1.0000 0.03100  0.13830  0.44890  Biso   1.000  H
  C545     1.0000 0.04646  0.17070  0.43821  Biso   1.000  C
  C546     1.0000 0.03670  0.18997  0.45571  Biso   1.000  C
  C547     1.0000 0.15609  0.20716  0.31007  Biso   1.000  C
  C548     1.0000 0.17055  0.23054  0.31327  Biso   1.000  C
  C549     1.0000 0.19056  0.23880  0.30013  Biso   1.000  C
  H138     1.0000 0.19730  0.23050  0.28650  Biso   1.000  H
  C550     1.0000 0.11532  0.17295  0.24345  Biso   1.000  C
  C551     1.0000 0.10899  0.18945  0.22178  Biso   1.000  C
  C552     1.0000 0.08648  0.19296  0.21143  Biso   1.000  C
  H139     1.0000 0.07240  0.18410  0.21600  Biso   1.000  H
  C553     1.0000 0.04936  0.10953  0.32184  Biso   1.000  C
  C554     1.0000 0.02273  0.10529  0.32721  Biso   1.000  C
  C555     1.0000 0.01320  0.09310  0.34720  Biso   1.000  C
  H140     1.0000 0.02290  0.08560  0.35950  Biso   1.000  H
  O364     1.0000 0.13893  0.18228  0.37189  Biso   1.000  O
  S56      1.0000 0.17880  0.23434  0.40120  Biso   1.000  S
  C556     1.0000 0.13580  0.25630  0.39670  Biso   1.000  C
  C557     1.0000 0.15390  0.21730  0.39070  Biso   1.000  C
  C558     1.0000 0.15970  0.19110  0.37790  Biso   1.000  C
  C559     1.0000 0.13210  0.23380  0.39030  Biso   1.000  C
  C560     1.0000 0.16150  0.26060  0.40520  Biso   1.000  C
  Zr57     1.0000 0.40871  0.63783  0.21244  Biso   1.000  Zr
  Zr58     1.0000 0.37957  0.66721  0.16122  Biso   1.000  Zr
  S57      1.0000 0.43424  0.67951  0.08554  Biso   1.000  S
  O365     1.0000 0.41471  0.62120  0.12457  Biso   1.000  O
  O366     1.0000 0.40663  0.66232  0.12884  Biso   1.000  O
  O367     1.0000 0.45769  0.71193  0.04951  Biso   1.000  O
  O368     1.0000 0.47566  0.68260  0.02587  Biso   1.000  O
  O369     1.0000 0.35911  0.70215  0.17285  Biso   1.000  O
  O370     1.0000 0.33958  0.69451  0.20939  Biso   1.000  O
  O371     1.0000 0.36260  0.67292  0.24907  Biso   1.000  O
  O372     1.0000 0.40284  0.66075  0.24779  Biso   1.000  O
  O373     1.0000 0.44537  0.62316  0.19641  Biso   1.000  O
  O374     1.0000 0.43558  0.59956  0.16299  Biso   1.000  O
  O375     1.0000 0.40157  0.63832  0.17440  Biso   1.000  O
  O376     1.0000 0.38340  0.66934  0.20276  Biso   1.000  O
  C561     1.0000 0.41657  0.64375  0.11815  Biso   1.000  C
  C562     1.0000 0.43201  0.64944  0.09619  Biso   1.000  C
  C563     1.0000 0.44567  0.63340  0.08208  Biso   1.000  C
  H141     1.0000 0.44660  0.61630  0.08490  Biso   1.000  H
  C564     1.0000 0.45843  0.64616  0.06235  Biso   1.000  C
  H142     1.0000 0.46900  0.63830  0.05110  Biso   1.000  H
  C565     1.0000 0.45354  0.67070  0.06179  Biso   1.000  C
  C566     1.0000 0.46330  0.68997  0.04429  Biso   1.000  C
  C567     1.0000 0.34391  0.70716  0.18993  Biso   1.000  C
  C568     1.0000 0.32945  0.73054  0.18673  Biso   1.000  C
  C569     1.0000 0.30944  0.73880  0.19987  Biso   1.000  C
  H143     1.0000 0.30270  0.73050  0.21350  Biso   1.000  H
  C570     1.0000 0.38468  0.67295  0.25655  Biso   1.000  C
  C571     1.0000 0.39101  0.68945  0.27822  Biso   1.000  C
  C572     1.0000 0.41352  0.69296  0.28857  Biso   1.000  C
  H144     1.0000 0.42760  0.68410  0.28400  Biso   1.000  H
  C573     1.0000 0.45064  0.60953  0.17816  Biso   1.000  C
  C574     1.0000 0.47727  0.60529  0.17279  Biso   1.000  C
  C575     1.0000 0.48680  0.59310  0.15280  Biso   1.000  C
  H145     1.0000 0.47710  0.58560  0.14050  Biso   1.000  H
  O377     1.0000 0.36107  0.68228  0.12811  Biso   1.000  O
  S58      1.0000 0.32120  0.73434  0.09880  Biso   1.000  S
  C576     1.0000 0.36420  0.75630  0.10330  Biso   1.000  C
  C577     1.0000 0.34610  0.71730  0.10930  Biso   1.000  C
  C578     1.0000 0.34030  0.69110  0.12210  Biso   1.000  C
  C579     1.0000 0.36790  0.73380  0.10970  Biso   1.000  C
  C580     1.0000 0.33850  0.76060  0.09480  Biso   1.000  C
  Zr59     1.0000 0.90871  0.13783  0.71244  Biso   1.000  Zr
  Zr60     1.0000 0.87957  0.16721  0.66122  Biso   1.000  Zr
  S59      1.0000 0.93424  0.17951  0.58554  Biso   1.000  S
  O378     1.0000 0.91471  0.12120  0.62457  Biso   1.000  O
  O379     1.0000 0.90663  0.16232  0.62884  Biso   1.000  O
  O380     1.0000 0.95769  0.21193  0.54951  Biso   1.000  O
  O381     1.0000 0.97566  0.18260  0.52587  Biso   1.000  O
  O382     1.0000 0.85911  0.20215  0.67285  Biso   1.000  O
  O383     1.0000 0.83958  0.19451  0.70939  Biso   1.000  O
  O384     1.0000 0.86260  0.17292  0.74907  Biso   1.000  O
  O385     1.0000 0.90284  0.16075  0.74779  Biso   1.000  O
  O386     1.0000 0.94537  0.12316  0.69641  Biso   1.000  O
  O387     1.0000 0.93558  0.09956  0.66299  Biso   1.000  O
  O388     1.0000 0.90157  0.13832  0.67440  Biso   1.000  O
  O389     1.0000 0.88340  0.16934  0.70276  Biso   1.000  O
  C581     1.0000 0.91657  0.14375  0.61815  Biso   1.000  C
  C582     1.0000 0.93201  0.14944  0.59619  Biso   1.000  C
  C583     1.0000 0.94567  0.13340  0.58208  Biso   1.000  C
  H146     1.0000 0.94660  0.11630  0.58490  Biso   1.000  H
  C584     1.0000 0.95843  0.14616  0.56235  Biso   1.000  C
  H147     1.0000 0.96900  0.13830  0.55110  Biso   1.000  H
  C585     1.0000 0.95354  0.17070  0.56179  Biso   1.000  C
  C586     1.0000 0.96330  0.18997  0.54429  Biso   1.000  C
  C587     1.0000 0.84391  0.20716  0.68993  Biso   1.000  C
  C588     1.0000 0.82945  0.23054  0.68673  Biso   1.000  C
  C589     1.0000 0.80944  0.23880  0.69987  Biso   1.000  C
  H148     1.0000 0.80270  0.23050  0.71350  Biso   1.000  H
  C590     1.0000 0.88468  0.17295  0.75655  Biso   1.000  C
  C591     1.0000 0.89101  0.18945  0.77822  Biso   1.000  C
  C592     1.0000 0.91352  0.19296  0.78857  Biso   1.000  C
  H149     1.0000 0.92760  0.18410  0.78400  Biso   1.000  H
  C593     1.0000 0.95064  0.10953  0.67816  Biso   1.000  C
  C594     1.0000 0.97727  0.10529  0.67279  Biso   1.000  C
  C595     1.0000 0.98680  0.09310  0.65280  Biso   1.000  C
  H150     1.0000 0.97710  0.08560  0.64050  Biso   1.000  H
  O390     1.0000 0.86107  0.18228  0.62811  Biso   1.000  O
  S60      1.0000 0.82120  0.23434  0.59880  Biso   1.000  S
  C596     1.0000 0.86420  0.25630  0.60330  Biso   1.000  C
  C597     1.0000 0.84610  0.21730  0.60930  Biso   1.000  C
  C598     1.0000 0.84030  0.19110  0.62210  Biso   1.000  C
  C599     1.0000 0.86790  0.23380  0.60970  Biso   1.000  C
  C600     1.0000 0.83850  0.26060  0.59480  Biso   1.000  C
  Zr61     1.0000 0.59129  0.36217  0.21244  Biso   1.000  Zr
  Zr62     1.0000 0.62043  0.33279  0.16122  Biso   1.000  Zr
  S61      1.0000 0.56576  0.32049  0.08554  Biso   1.000  S
  O391     1.0000 0.58529  0.37880  0.12457  Biso   1.000  O
  O392     1.0000 0.59337  0.33768  0.12884  Biso   1.000  O
  O393     1.0000 0.54231  0.28807  0.04951  Biso   1.000  O
  O394     1.0000 0.52434  0.31740  0.02587  Biso   1.000  O
  O395     1.0000 0.64089  0.29785  0.17285  Biso   1.000  O
  O396     1.0000 0.66042  0.30549  0.20939  Biso   1.000  O
  O397     1.0000 0.63740  0.32708  0.24907  Biso   1.000  O
  O398     1.0000 0.59716  0.33925  0.24779  Biso   1.000  O
  O399     1.0000 0.55463  0.37684  0.19641  Biso   1.000  O
  O400     1.0000 0.56442  0.40044  0.16299  Biso   1.000  O
  O401     1.0000 0.59843  0.36168  0.17440  Biso   1.000  O
  O402     1.0000 0.61660  0.33066  0.20276  Biso   1.000  O
  C601     1.0000 0.58343  0.35625  0.11815  Biso   1.000  C
  C602     1.0000 0.56799  0.35056  0.09619  Biso   1.000  C
  C603     1.0000 0.55433  0.36660  0.08208  Biso   1.000  C
  H151     1.0000 0.55340  0.38370  0.08490  Biso   1.000  H
  C604     1.0000 0.54157  0.35384  0.06235  Biso   1.000  C
  H152     1.0000 0.53100  0.36170  0.05110  Biso   1.000  H
  C605     1.0000 0.54646  0.32930  0.06179  Biso   1.000  C
  C606     1.0000 0.53670  0.31003  0.04429  Biso   1.000  C
  C607     1.0000 0.65609  0.29284  0.18993  Biso   1.000  C
  C608     1.0000 0.67055  0.26946  0.18673  Biso   1.000  C
  C609     1.0000 0.69056  0.26120  0.19987  Biso   1.000  C
  H153     1.0000 0.69730  0.26950  0.21350  Biso   1.000  H
  C610     1.0000 0.61532  0.32705  0.25655  Biso   1.000  C
  C611     1.0000 0.60899  0.31055  0.27822  Biso   1.000  C
  C612     1.0000 0.58648  0.30704  0.28857  Biso   1.000  C
  H154     1.0000 0.57240  0.31590  0.28400  Biso   1.000  H
  C613     1.0000 0.54936  0.39047  0.17816  Biso   1.000  C
  C614     1.0000 0.52273  0.39471  0.17279  Biso   1.000  C
  C615     1.0000 0.51320  0.40690  0.15280  Biso   1.000  C
  H155     1.0000 0.52290  0.41440  0.14050  Biso   1.000  H
  O403     1.0000 0.63893  0.31772  0.12811  Biso   1.000  O
  S62      1.0000 0.67880  0.26566  0.09880  Biso   1.000  S
  C616     1.0000 0.63580  0.24370  0.10330  Biso   1.000  C
  C617     1.0000 0.65390  0.28270  0.10930  Biso   1.000  C
  C618     1.0000 0.65970  0.30890  0.12210  Biso   1.000  C
  C619     1.0000 0.63210  0.26620  0.10970  Biso   1.000  C
  C620     1.0000 0.66150  0.23940  0.09480  Biso   1.000  C
  Zr63     1.0000 0.09129  0.86217  0.71244  Biso   1.000  Zr
  Zr64     1.0000 0.12043  0.83279  0.66122  Biso   1.000  Zr
  S63      1.0000 0.06576  0.82049  0.58554  Biso   1.000  S
  O404     1.0000 0.08529  0.87880  0.62457  Biso   1.000  O
  O405     1.0000 0.09337  0.83768  0.62884  Biso   1.000  O
  O406     1.0000 0.04231  0.78807  0.54951  Biso   1.000  O
  O407     1.0000 0.02434  0.81740  0.52587  Biso   1.000  O
  O408     1.0000 0.14089  0.79785  0.67285  Biso   1.000  O
  O409     1.0000 0.16042  0.80549  0.70939  Biso   1.000  O
  O410     1.0000 0.13740  0.82708  0.74907  Biso   1.000  O
  O411     1.0000 0.09716  0.83925  0.74779  Biso   1.000  O
  O412     1.0000 0.05463  0.87684  0.69641  Biso   1.000  O
  O413     1.0000 0.06442  0.90044  0.66299  Biso   1.000  O
  O414     1.0000 0.09843  0.86168  0.67440  Biso   1.000  O
  O415     1.0000 0.11660  0.83066  0.70276  Biso   1.000  O
  C621     1.0000 0.08343  0.85625  0.61815  Biso   1.000  C
  C622     1.0000 0.06799  0.85056  0.59619  Biso   1.000  C
  C623     1.0000 0.05433  0.86660  0.58208  Biso   1.000  C
  H156     1.0000 0.05340  0.88370  0.58490  Biso   1.000  H
  C624     1.0000 0.04157  0.85384  0.56235  Biso   1.000  C
  H157     1.0000 0.03100  0.86170  0.55110  Biso   1.000  H
  C625     1.0000 0.04646  0.82930  0.56179  Biso   1.000  C
  C626     1.0000 0.03670  0.81003  0.54429  Biso   1.000  C
  C627     1.0000 0.15609  0.79284  0.68993  Biso   1.000  C
  C628     1.0000 0.17055  0.76946  0.68673  Biso   1.000  C
  C629     1.0000 0.19056  0.76120  0.69987  Biso   1.000  C
  H158     1.0000 0.19730  0.76950  0.71350  Biso   1.000  H
  C630     1.0000 0.11532  0.82705  0.75655  Biso   1.000  C
  C631     1.0000 0.10899  0.81055  0.77822  Biso   1.000  C
  C632     1.0000 0.08648  0.80704  0.78857  Biso   1.000  C
  H159     1.0000 0.07240  0.81590  0.78400  Biso   1.000  H
  C633     1.0000 0.04936  0.89047  0.67816  Biso   1.000  C
  C634     1.0000 0.02273  0.89471  0.67279  Biso   1.000  C
  C635     1.0000 0.01320  0.90690  0.65280  Biso   1.000  C
  H160     1.0000 0.02290  0.91440  0.64050  Biso   1.000  H
  O416     1.0000 0.13893  0.81772  0.62811  Biso   1.000  O
  S64      1.0000 0.17880  0.76566  0.59880  Biso   1.000  S
  C636     1.0000 0.13580  0.74370  0.60330  Biso   1.000  C
  C637     1.0000 0.15390  0.78270  0.60930  Biso   1.000  C
  C638     1.0000 0.15970  0.80890  0.62210  Biso   1.000  C
  C639     1.0000 0.13210  0.76620  0.60970  Biso   1.000  C
  C640     1.0000 0.16150  0.73940  0.59480  Biso   1.000  C
  Zr65     1.0000 0.36217  0.21244  0.59129  Biso   1.000  Zr
  Zr66     1.0000 0.33279  0.16122  0.62043  Biso   1.000  Zr
  S65      1.0000 0.32049  0.08554  0.56576  Biso   1.000  S
  O417     1.0000 0.37880  0.12457  0.58529  Biso   1.000  O
  O418     1.0000 0.33768  0.12884  0.59337  Biso   1.000  O
  O419     1.0000 0.28807  0.04951  0.54231  Biso   1.000  O
  O420     1.0000 0.31740  0.02587  0.52434  Biso   1.000  O
  O421     1.0000 0.29785  0.17285  0.64089  Biso   1.000  O
  O422     1.0000 0.30549  0.20939  0.66042  Biso   1.000  O
  O423     1.0000 0.32708  0.24907  0.63740  Biso   1.000  O
  O424     1.0000 0.33925  0.24779  0.59716  Biso   1.000  O
  O425     1.0000 0.37684  0.19641  0.55463  Biso   1.000  O
  O426     1.0000 0.40044  0.16299  0.56442  Biso   1.000  O
  O427     1.0000 0.36168  0.17440  0.59843  Biso   1.000  O
  O428     1.0000 0.33066  0.20276  0.61660  Biso   1.000  O
  C641     1.0000 0.35625  0.11815  0.58343  Biso   1.000  C
  C642     1.0000 0.35056  0.09619  0.56799  Biso   1.000  C
  C643     1.0000 0.36660  0.08208  0.55433  Biso   1.000  C
  H161     1.0000 0.38370  0.08490  0.55340  Biso   1.000  H
  C644     1.0000 0.35384  0.06235  0.54157  Biso   1.000  C
  H162     1.0000 0.36170  0.05110  0.53100  Biso   1.000  H
  C645     1.0000 0.32930  0.06179  0.54646  Biso   1.000  C
  C646     1.0000 0.31003  0.04429  0.53670  Biso   1.000  C
  C647     1.0000 0.29284  0.18993  0.65609  Biso   1.000  C
  C648     1.0000 0.26946  0.18673  0.67055  Biso   1.000  C
  C649     1.0000 0.26120  0.19987  0.69056  Biso   1.000  C
  H163     1.0000 0.26950  0.21350  0.69730  Biso   1.000  H
  C650     1.0000 0.32705  0.25655  0.61532  Biso   1.000  C
  C651     1.0000 0.31055  0.27822  0.60899  Biso   1.000  C
  C652     1.0000 0.30704  0.28857  0.58648  Biso   1.000  C
  H164     1.0000 0.31590  0.28400  0.57240  Biso   1.000  H
  C653     1.0000 0.39047  0.17816  0.54936  Biso   1.000  C
  C654     1.0000 0.39471  0.17279  0.52273  Biso   1.000  C
  C655     1.0000 0.40690  0.15280  0.51320  Biso   1.000  C
  H165     1.0000 0.41440  0.14050  0.52290  Biso   1.000  H
  O429     1.0000 0.31772  0.12811  0.63893  Biso   1.000  O
  S66      1.0000 0.26566  0.09880  0.67880  Biso   1.000  S
  C656     1.0000 0.24370  0.10330  0.63580  Biso   1.000  C
  C657     1.0000 0.28270  0.10930  0.65390  Biso   1.000  C
  C658     1.0000 0.30890  0.12210  0.65970  Biso   1.000  C
  C659     1.0000 0.26620  0.10970  0.63210  Biso   1.000  C
  C660     1.0000 0.23940  0.09480  0.66150  Biso   1.000  C
  Zr67     1.0000 0.86217  0.71244  0.09129  Biso   1.000  Zr
  Zr68     1.0000 0.83279  0.66122  0.12043  Biso   1.000  Zr
  S67      1.0000 0.82049  0.58554  0.06576  Biso   1.000  S
  O430     1.0000 0.87880  0.62457  0.08529  Biso   1.000  O
  O431     1.0000 0.83768  0.62884  0.09337  Biso   1.000  O
  O432     1.0000 0.78807  0.54951  0.04231  Biso   1.000  O
  O433     1.0000 0.81740  0.52587  0.02434  Biso   1.000  O
  O434     1.0000 0.79785  0.67285  0.14089  Biso   1.000  O
  O435     1.0000 0.80549  0.70939  0.16042  Biso   1.000  O
  O436     1.0000 0.82708  0.74907  0.13740  Biso   1.000  O
  O437     1.0000 0.83925  0.74779  0.09716  Biso   1.000  O
  O438     1.0000 0.87684  0.69641  0.05463  Biso   1.000  O
  O439     1.0000 0.90044  0.66299  0.06442  Biso   1.000  O
  O440     1.0000 0.86168  0.67440  0.09843  Biso   1.000  O
  O441     1.0000 0.83066  0.70276  0.11660  Biso   1.000  O
  C661     1.0000 0.85625  0.61815  0.08343  Biso   1.000  C
  C662     1.0000 0.85056  0.59619  0.06799  Biso   1.000  C
  C663     1.0000 0.86660  0.58208  0.05433  Biso   1.000  C
  H166     1.0000 0.88370  0.58490  0.05340  Biso   1.000  H
  C664     1.0000 0.85384  0.56235  0.04157  Biso   1.000  C
  H167     1.0000 0.86170  0.55110  0.03100  Biso   1.000  H
  C665     1.0000 0.82930  0.56179  0.04646  Biso   1.000  C
  C666     1.0000 0.81003  0.54429  0.03670  Biso   1.000  C
  C667     1.0000 0.79284  0.68993  0.15609  Biso   1.000  C
  C668     1.0000 0.76946  0.68673  0.17055  Biso   1.000  C
  C669     1.0000 0.76120  0.69987  0.19056  Biso   1.000  C
  H168     1.0000 0.76950  0.71350  0.19730  Biso   1.000  H
  C670     1.0000 0.82705  0.75655  0.11532  Biso   1.000  C
  C671     1.0000 0.81055  0.77822  0.10899  Biso   1.000  C
  C672     1.0000 0.80704  0.78857  0.08648  Biso   1.000  C
  H169     1.0000 0.81590  0.78400  0.07240  Biso   1.000  H
  C673     1.0000 0.89047  0.67816  0.04936  Biso   1.000  C
  C674     1.0000 0.89471  0.67279  0.02273  Biso   1.000  C
  C675     1.0000 0.90690  0.65280  0.01320  Biso   1.000  C
  H170     1.0000 0.91440  0.64050  0.02290  Biso   1.000  H
  O442     1.0000 0.81772  0.62811  0.13893  Biso   1.000  O
  S68      1.0000 0.76566  0.59880  0.17880  Biso   1.000  S
  C676     1.0000 0.74370  0.60330  0.13580  Biso   1.000  C
  C677     1.0000 0.78270  0.60930  0.15390  Biso   1.000  C
  C678     1.0000 0.80890  0.62210  0.15970  Biso   1.000  C
  C679     1.0000 0.76620  0.60970  0.13210  Biso   1.000  C
  C680     1.0000 0.73940  0.59480  0.16150  Biso   1.000  C
  Zr69     1.0000 0.63783  0.21244  0.40871  Biso   1.000  Zr
  Zr70     1.0000 0.66721  0.16122  0.37957  Biso   1.000  Zr
  S69      1.0000 0.67951  0.08554  0.43424  Biso   1.000  S
  O443     1.0000 0.62120  0.12457  0.41471  Biso   1.000  O
  O444     1.0000 0.66232  0.12884  0.40663  Biso   1.000  O
  O445     1.0000 0.71193  0.04951  0.45769  Biso   1.000  O
  O446     1.0000 0.68260  0.02587  0.47566  Biso   1.000  O
  O447     1.0000 0.70215  0.17285  0.35911  Biso   1.000  O
  O448     1.0000 0.69451  0.20939  0.33958  Biso   1.000  O
  O449     1.0000 0.67292  0.24907  0.36260  Biso   1.000  O
  O450     1.0000 0.66075  0.24779  0.40284  Biso   1.000  O
  O451     1.0000 0.62316  0.19641  0.44537  Biso   1.000  O
  O452     1.0000 0.59956  0.16299  0.43558  Biso   1.000  O
  O453     1.0000 0.63832  0.17440  0.40157  Biso   1.000  O
  O454     1.0000 0.66934  0.20276  0.38340  Biso   1.000  O
  C681     1.0000 0.64375  0.11815  0.41657  Biso   1.000  C
  C682     1.0000 0.64944  0.09619  0.43201  Biso   1.000  C
  C683     1.0000 0.63340  0.08208  0.44567  Biso   1.000  C
  H171     1.0000 0.61630  0.08490  0.44660  Biso   1.000  H
  C684     1.0000 0.64616  0.06235  0.45843  Biso   1.000  C
  H172     1.0000 0.63830  0.05110  0.46900  Biso   1.000  H
  C685     1.0000 0.67070  0.06179  0.45354  Biso   1.000  C
  C686     1.0000 0.68997  0.04429  0.46330  Biso   1.000  C
  C687     1.0000 0.70716  0.18993  0.34391  Biso   1.000  C
  C688     1.0000 0.73054  0.18673  0.32945  Biso   1.000  C
  C689     1.0000 0.73880  0.19987  0.30944  Biso   1.000  C
  H173     1.0000 0.73050  0.21350  0.30270  Biso   1.000  H
  C690     1.0000 0.67295  0.25655  0.38468  Biso   1.000  C
  C691     1.0000 0.68945  0.27822  0.39101  Biso   1.000  C
  C692     1.0000 0.69296  0.28857  0.41352  Biso   1.000  C
  H174     1.0000 0.68410  0.28400  0.42760  Biso   1.000  H
  C693     1.0000 0.60953  0.17816  0.45064  Biso   1.000  C
  C694     1.0000 0.60529  0.17279  0.47727  Biso   1.000  C
  C695     1.0000 0.59310  0.15280  0.48680  Biso   1.000  C
  H175     1.0000 0.58560  0.14050  0.47710  Biso   1.000  H
  O455     1.0000 0.68228  0.12811  0.36107  Biso   1.000  O
  S70      1.0000 0.73434  0.09880  0.32120  Biso   1.000  S
  C696     1.0000 0.75630  0.10330  0.36420  Biso   1.000  C
  C697     1.0000 0.71730  0.10930  0.34610  Biso   1.000  C
  C698     1.0000 0.69110  0.12210  0.34030  Biso   1.000  C
  C699     1.0000 0.73380  0.10970  0.36790  Biso   1.000  C
  C700     1.0000 0.76060  0.09480  0.33850  Biso   1.000  C
  Zr71     1.0000 0.13783  0.71244  0.90871  Biso   1.000  Zr
  Zr72     1.0000 0.16721  0.66122  0.87957  Biso   1.000  Zr
  S71      1.0000 0.17951  0.58554  0.93424  Biso   1.000  S
  O456     1.0000 0.12120  0.62457  0.91471  Biso   1.000  O
  O457     1.0000 0.16232  0.62884  0.90663  Biso   1.000  O
  O458     1.0000 0.21193  0.54951  0.95769  Biso   1.000  O
  O459     1.0000 0.18260  0.52587  0.97566  Biso   1.000  O
  O460     1.0000 0.20215  0.67285  0.85911  Biso   1.000  O
  O461     1.0000 0.19451  0.70939  0.83958  Biso   1.000  O
  O462     1.0000 0.17292  0.74907  0.86260  Biso   1.000  O
  O463     1.0000 0.16075  0.74779  0.90284  Biso   1.000  O
  O464     1.0000 0.12316  0.69641  0.94537  Biso   1.000  O
  O465     1.0000 0.09956  0.66299  0.93558  Biso   1.000  O
  O466     1.0000 0.13832  0.67440  0.90157  Biso   1.000  O
  O467     1.0000 0.16934  0.70276  0.88340  Biso   1.000  O
  C701     1.0000 0.14375  0.61815  0.91657  Biso   1.000  C
  C702     1.0000 0.14944  0.59619  0.93201  Biso   1.000  C
  C703     1.0000 0.13340  0.58208  0.94567  Biso   1.000  C
  H176     1.0000 0.11630  0.58490  0.94660  Biso   1.000  H
  C704     1.0000 0.14616  0.56235  0.95843  Biso   1.000  C
  H177     1.0000 0.13830  0.55110  0.96900  Biso   1.000  H
  C705     1.0000 0.17070  0.56179  0.95354  Biso   1.000  C
  C706     1.0000 0.18997  0.54429  0.96330  Biso   1.000  C
  C707     1.0000 0.20716  0.68993  0.84391  Biso   1.000  C
  C708     1.0000 0.23054  0.68673  0.82945  Biso   1.000  C
  C709     1.0000 0.23880  0.69987  0.80944  Biso   1.000  C
  H178     1.0000 0.23050  0.71350  0.80270  Biso   1.000  H
  C710     1.0000 0.17295  0.75655  0.88468  Biso   1.000  C
  C711     1.0000 0.18945  0.77822  0.89101  Biso   1.000  C
  C712     1.0000 0.19296  0.78857  0.91352  Biso   1.000  C
  H179     1.0000 0.18410  0.78400  0.92760  Biso   1.000  H
  C713     1.0000 0.10953  0.67816  0.95064  Biso   1.000  C
  C714     1.0000 0.10529  0.67279  0.97727  Biso   1.000  C
  C715     1.0000 0.09310  0.65280  0.98680  Biso   1.000  C
  H180     1.0000 0.08560  0.64050  0.97710  Biso   1.000  H
  O468     1.0000 0.18228  0.62811  0.86107  Biso   1.000  O
  S72      1.0000 0.23434  0.59880  0.82120  Biso   1.000  S
  C716     1.0000 0.25630  0.60330  0.86420  Biso   1.000  C
  C717     1.0000 0.21730  0.60930  0.84610  Biso   1.000  C
  C718     1.0000 0.19110  0.62210  0.84030  Biso   1.000  C
  C719     1.0000 0.23380  0.60970  0.86790  Biso   1.000  C
  C720     1.0000 0.26060  0.59480  0.83850  Biso   1.000  C
  Zr73     1.0000 0.63783  0.78756  0.59129  Biso   1.000  Zr
  Zr74     1.0000 0.66721  0.83878  0.62043  Biso   1.000  Zr
  S73      1.0000 0.67951  0.91446  0.56576  Biso   1.000  S
  O469     1.0000 0.62120  0.87543  0.58529  Biso   1.000  O
  O470     1.0000 0.66232  0.87116  0.59337  Biso   1.000  O
  O471     1.0000 0.71193  0.95049  0.54231  Biso   1.000  O
  O472     1.0000 0.68260  0.97413  0.52434  Biso   1.000  O
  O473     1.0000 0.70215  0.82715  0.64089  Biso   1.000  O
  O474     1.0000 0.69451  0.79061  0.66042  Biso   1.000  O
  O475     1.0000 0.67292  0.75093  0.63740  Biso   1.000  O
  O476     1.0000 0.66075  0.75221  0.59716  Biso   1.000  O
  O477     1.0000 0.62316  0.80359  0.55463  Biso   1.000  O
  O478     1.0000 0.59956  0.83701  0.56442  Biso   1.000  O
  O479     1.0000 0.63832  0.82560  0.59843  Biso   1.000  O
  O480     1.0000 0.66934  0.79724  0.61660  Biso   1.000  O
  C721     1.0000 0.64375  0.88185  0.58343  Biso   1.000  C
  C722     1.0000 0.64944  0.90381  0.56799  Biso   1.000  C
  C723     1.0000 0.63340  0.91792  0.55433  Biso   1.000  C
  H181     1.0000 0.61630  0.91510  0.55340  Biso   1.000  H
  C724     1.0000 0.64616  0.93765  0.54157  Biso   1.000  C
  H182     1.0000 0.63830  0.94890  0.53100  Biso   1.000  H
  C725     1.0000 0.67070  0.93821  0.54646  Biso   1.000  C
  C726     1.0000 0.68997  0.95571  0.53670  Biso   1.000  C
  C727     1.0000 0.70716  0.81007  0.65609  Biso   1.000  C
  C728     1.0000 0.73054  0.81327  0.67055  Biso   1.000  C
  C729     1.0000 0.73880  0.80013  0.69056  Biso   1.000  C
  H183     1.0000 0.73050  0.78650  0.69730  Biso   1.000  H
  C730     1.0000 0.67295  0.74345  0.61532  Biso   1.000  C
  C731     1.0000 0.68945  0.72178  0.60899  Biso   1.000  C
  C732     1.0000 0.69296  0.71143  0.58648  Biso   1.000  C
  H184     1.0000 0.68410  0.71600  0.57240  Biso   1.000  H
  C733     1.0000 0.60953  0.82184  0.54936  Biso   1.000  C
  C734     1.0000 0.60529  0.82721  0.52273  Biso   1.000  C
  C735     1.0000 0.59310  0.84720  0.51320  Biso   1.000  C
  H185     1.0000 0.58560  0.85950  0.52290  Biso   1.000  H
  O481     1.0000 0.68228  0.87189  0.63893  Biso   1.000  O
  S74      1.0000 0.73434  0.90120  0.67880  Biso   1.000  S
  C736     1.0000 0.75630  0.89670  0.63580  Biso   1.000  C
  C737     1.0000 0.71730  0.89070  0.65390  Biso   1.000  C
  C738     1.0000 0.69110  0.87790  0.65970  Biso   1.000  C
  C739     1.0000 0.73380  0.89030  0.63210  Biso   1.000  C
  C740     1.0000 0.76060  0.90520  0.66150  Biso   1.000  C
  Zr75     1.0000 0.13783  0.28756  0.09129  Biso   1.000  Zr
  Zr76     1.0000 0.16721  0.33878  0.12043  Biso   1.000  Zr
  S75      1.0000 0.17951  0.41446  0.06576  Biso   1.000  S
  O482     1.0000 0.12120  0.37543  0.08529  Biso   1.000  O
  O483     1.0000 0.16232  0.37116  0.09337  Biso   1.000  O
  O484     1.0000 0.21193  0.45049  0.04231  Biso   1.000  O
  O485     1.0000 0.18260  0.47413  0.02434  Biso   1.000  O
  O486     1.0000 0.20215  0.32715  0.14089  Biso   1.000  O
  O487     1.0000 0.19451  0.29061  0.16042  Biso   1.000  O
  O488     1.0000 0.17292  0.25093  0.13740  Biso   1.000  O
  O489     1.0000 0.16075  0.25221  0.09716  Biso   1.000  O
  O490     1.0000 0.12316  0.30359  0.05463  Biso   1.000  O
  O491     1.0000 0.09956  0.33701  0.06442  Biso   1.000  O
  O492     1.0000 0.13832  0.32560  0.09843  Biso   1.000  O
  O493     1.0000 0.16934  0.29724  0.11660  Biso   1.000  O
  C741     1.0000 0.14375  0.38185  0.08343  Biso   1.000  C
  C742     1.0000 0.14944  0.40381  0.06799  Biso   1.000  C
  C743     1.0000 0.13340  0.41792  0.05433  Biso   1.000  C
  H186     1.0000 0.11630  0.41510  0.05340  Biso   1.000  H
  C744     1.0000 0.14616  0.43765  0.04157  Biso   1.000  C
  H187     1.0000 0.13830  0.44890  0.03100  Biso   1.000  H
  C745     1.0000 0.17070  0.43821  0.04646  Biso   1.000  C
  C746     1.0000 0.18997  0.45571  0.03670  Biso   1.000  C
  C747     1.0000 0.20716  0.31007  0.15609  Biso   1.000  C
  C748     1.0000 0.23054  0.31327  0.17055  Biso   1.000  C
  C749     1.0000 0.23880  0.30013  0.19056  Biso   1.000  C
  H188     1.0000 0.23050  0.28650  0.19730  Biso   1.000  H
  C750     1.0000 0.17295  0.24345  0.11532  Biso   1.000  C
  C751     1.0000 0.18945  0.22178  0.10899  Biso   1.000  C
  C752     1.0000 0.19296  0.21143  0.08648  Biso   1.000  C
  H189     1.0000 0.18410  0.21600  0.07240  Biso   1.000  H
  C753     1.0000 0.10953  0.32184  0.04936  Biso   1.000  C
  C754     1.0000 0.10529  0.32721  0.02273  Biso   1.000  C
  C755     1.0000 0.09310  0.34720  0.01320  Biso   1.000  C
  H190     1.0000 0.08560  0.35950  0.02290  Biso   1.000  H
  O494     1.0000 0.18228  0.37189  0.13893  Biso   1.000  O
  S76      1.0000 0.23434  0.40120  0.17880  Biso   1.000  S
  C756     1.0000 0.25630  0.39670  0.13580  Biso   1.000  C
  C757     1.0000 0.21730  0.39070  0.15390  Biso   1.000  C
  C758     1.0000 0.19110  0.37790  0.15970  Biso   1.000  C
  C759     1.0000 0.23380  0.39030  0.13210  Biso   1.000  C
  C760     1.0000 0.26060  0.40520  0.16150  Biso   1.000  C
  Zr77     1.0000 0.36217  0.78756  0.40871  Biso   1.000  Zr
  Zr78     1.0000 0.33279  0.83878  0.37957  Biso   1.000  Zr
  S77      1.0000 0.32049  0.91446  0.43424  Biso   1.000  S
  O495     1.0000 0.37880  0.87543  0.41471  Biso   1.000  O
  O496     1.0000 0.33768  0.87116  0.40663  Biso   1.000  O
  O497     1.0000 0.28807  0.95049  0.45769  Biso   1.000  O
  O498     1.0000 0.31740  0.97413  0.47566  Biso   1.000  O
  O499     1.0000 0.29785  0.82715  0.35911  Biso   1.000  O
  O500     1.0000 0.30549  0.79061  0.33958  Biso   1.000  O
  O501     1.0000 0.32708  0.75093  0.36260  Biso   1.000  O
  O502     1.0000 0.33925  0.75221  0.40284  Biso   1.000  O
  O503     1.0000 0.37684  0.80359  0.44537  Biso   1.000  O
  O504     1.0000 0.40044  0.83701  0.43558  Biso   1.000  O
  O505     1.0000 0.36168  0.82560  0.40157  Biso   1.000  O
  O506     1.0000 0.33066  0.79724  0.38340  Biso   1.000  O
  C761     1.0000 0.35625  0.88185  0.41657  Biso   1.000  C
  C762     1.0000 0.35056  0.90381  0.43201  Biso   1.000  C
  C763     1.0000 0.36660  0.91792  0.44567  Biso   1.000  C
  H191     1.0000 0.38370  0.91510  0.44660  Biso   1.000  H
  C764     1.0000 0.35384  0.93765  0.45843  Biso   1.000  C
  H192     1.0000 0.36170  0.94890  0.46900  Biso   1.000  H
  C765     1.0000 0.32930  0.93821  0.45354  Biso   1.000  C
  C766     1.0000 0.31003  0.95571  0.46330  Biso   1.000  C
  C767     1.0000 0.29284  0.81007  0.34391  Biso   1.000  C
  C768     1.0000 0.26946  0.81327  0.32945  Biso   1.000  C
  C769     1.0000 0.26120  0.80013  0.30944  Biso   1.000  C
  H193     1.0000 0.26950  0.78650  0.30270  Biso   1.000  H
  C770     1.0000 0.32705  0.74345  0.38468  Biso   1.000  C
  C771     1.0000 0.31055  0.72178  0.39101  Biso   1.000  C
  C772     1.0000 0.30704  0.71143  0.41352  Biso   1.000  C
  H194     1.0000 0.31590  0.71600  0.42760  Biso   1.000  H
  C773     1.0000 0.39047  0.82184  0.45064  Biso   1.000  C
  C774     1.0000 0.39471  0.82721  0.47727  Biso   1.000  C
  C775     1.0000 0.40690  0.84720  0.48680  Biso   1.000  C
  H195     1.0000 0.41440  0.85950  0.47710  Biso   1.000  H
  O507     1.0000 0.31772  0.87189  0.36107  Biso   1.000  O
  S78      1.0000 0.26566  0.90120  0.32120  Biso   1.000  S
  C776     1.0000 0.24370  0.89670  0.36420  Biso   1.000  C
  C777     1.0000 0.28270  0.89070  0.34610  Biso   1.000  C
  C778     1.0000 0.30890  0.87790  0.34030  Biso   1.000  C
  C779     1.0000 0.26620  0.89030  0.36790  Biso   1.000  C
  C780     1.0000 0.23940  0.90520  0.33850  Biso   1.000  C
  Zr79     1.0000 0.86217  0.28756  0.90871  Biso   1.000  Zr
  Zr80     1.0000 0.83279  0.33878  0.87957  Biso   1.000  Zr
  S79      1.0000 0.82049  0.41446  0.93424  Biso   1.000  S
  O508     1.0000 0.87880  0.37543  0.91471  Biso   1.000  O
  O509     1.0000 0.83768  0.37116  0.90663  Biso   1.000  O
  O510     1.0000 0.78807  0.45049  0.95769  Biso   1.000  O
  O511     1.0000 0.81740  0.47413  0.97566  Biso   1.000  O
  O512     1.0000 0.79785  0.32715  0.85911  Biso   1.000  O
  O513     1.0000 0.80549  0.29061  0.83958  Biso   1.000  O
  O514     1.0000 0.82708  0.25093  0.86260  Biso   1.000  O
  O515     1.0000 0.83925  0.25221  0.90284  Biso   1.000  O
  O516     1.0000 0.87684  0.30359  0.94537  Biso   1.000  O
  O517     1.0000 0.90044  0.33701  0.93558  Biso   1.000  O
  O518     1.0000 0.86168  0.32560  0.90157  Biso   1.000  O
  O519     1.0000 0.83066  0.29724  0.88340  Biso   1.000  O
  C781     1.0000 0.85625  0.38185  0.91657  Biso   1.000  C
  C782     1.0000 0.85056  0.40381  0.93201  Biso   1.000  C
  C783     1.0000 0.86660  0.41792  0.94567  Biso   1.000  C
  H196     1.0000 0.88370  0.41510  0.94660  Biso   1.000  H
  C784     1.0000 0.85384  0.43765  0.95843  Biso   1.000  C
  H197     1.0000 0.86170  0.44890  0.96900  Biso   1.000  H
  C785     1.0000 0.82930  0.43821  0.95354  Biso   1.000  C
  C786     1.0000 0.81003  0.45571  0.96330  Biso   1.000  C
  C787     1.0000 0.79284  0.31007  0.84391  Biso   1.000  C
  C788     1.0000 0.76946  0.31327  0.82945  Biso   1.000  C
  C789     1.0000 0.76120  0.30013  0.80944  Biso   1.000  C
  H198     1.0000 0.76950  0.28650  0.80270  Biso   1.000  H
  C790     1.0000 0.82705  0.24345  0.88468  Biso   1.000  C
  C791     1.0000 0.81055  0.22178  0.89101  Biso   1.000  C
  C792     1.0000 0.80704  0.21143  0.91352  Biso   1.000  C
  H199     1.0000 0.81590  0.21600  0.92760  Biso   1.000  H
  C793     1.0000 0.89047  0.32184  0.95064  Biso   1.000  C
  C794     1.0000 0.89471  0.32721  0.97727  Biso   1.000  C
  C795     1.0000 0.90690  0.34720  0.98680  Biso   1.000  C
  H200     1.0000 0.91440  0.35950  0.97710  Biso   1.000  H
  O520     1.0000 0.81772  0.37189  0.86107  Biso   1.000  O
  S80      1.0000 0.76566  0.40120  0.82120  Biso   1.000  S
  C796     1.0000 0.74370  0.39670  0.86420  Biso   1.000  C
  C797     1.0000 0.78270  0.39070  0.84610  Biso   1.000  C
  C798     1.0000 0.80890  0.37790  0.84030  Biso   1.000  C
  C799     1.0000 0.76620  0.39030  0.86790  Biso   1.000  C
  C800     1.0000 0.73940  0.40520  0.83850  Biso   1.000  C
  Zr81     1.0000 0.21244  0.40871  0.63783  Biso   1.000  Zr
  Zr82     1.0000 0.16122  0.37957  0.66721  Biso   1.000  Zr
  S81      1.0000 0.08554  0.43424  0.67951  Biso   1.000  S
  O521     1.0000 0.12457  0.41471  0.62120  Biso   1.000  O
  O522     1.0000 0.12884  0.40663  0.66232  Biso   1.000  O
  O523     1.0000 0.04951  0.45769  0.71193  Biso   1.000  O
  O524     1.0000 0.02587  0.47566  0.68260  Biso   1.000  O
  O525     1.0000 0.17285  0.35911  0.70215  Biso   1.000  O
  O526     1.0000 0.20939  0.33958  0.69451  Biso   1.000  O
  O527     1.0000 0.24907  0.36260  0.67292  Biso   1.000  O
  O528     1.0000 0.24779  0.40284  0.66075  Biso   1.000  O
  O529     1.0000 0.19641  0.44537  0.62316  Biso   1.000  O
  O530     1.0000 0.16299  0.43558  0.59956  Biso   1.000  O
  O531     1.0000 0.17440  0.40157  0.63832  Biso   1.000  O
  O532     1.0000 0.20276  0.38340  0.66934  Biso   1.000  O
  C801     1.0000 0.11815  0.41657  0.64375  Biso   1.000  C
  C802     1.0000 0.09619  0.43201  0.64944  Biso   1.000  C
  C803     1.0000 0.08208  0.44567  0.63340  Biso   1.000  C
  H201     1.0000 0.08490  0.44660  0.61630  Biso   1.000  H
  C804     1.0000 0.06235  0.45843  0.64616  Biso   1.000  C
  H202     1.0000 0.05110  0.46900  0.63830  Biso   1.000  H
  C805     1.0000 0.06179  0.45354  0.67070  Biso   1.000  C
  C806     1.0000 0.04429  0.46330  0.68997  Biso   1.000  C
  C807     1.0000 0.18993  0.34391  0.70716  Biso   1.000  C
  C808     1.0000 0.18673  0.32945  0.73054  Biso   1.000  C
  C809     1.0000 0.19987  0.30944  0.73880  Biso   1.000  C
  H203     1.0000 0.21350  0.30270  0.73050  Biso   1.000  H
  C810     1.0000 0.25655  0.38468  0.67295  Biso   1.000  C
  C811     1.0000 0.27822  0.39101  0.68945  Biso   1.000  C
  C812     1.0000 0.28857  0.41352  0.69296  Biso   1.000  C
  H204     1.0000 0.28400  0.42760  0.68410  Biso   1.000  H
  C813     1.0000 0.17816  0.45064  0.60953  Biso   1.000  C
  C814     1.0000 0.17279  0.47727  0.60529  Biso   1.000  C
  C815     1.0000 0.15280  0.48680  0.59310  Biso   1.000  C
  H205     1.0000 0.14050  0.47710  0.58560  Biso   1.000  H
  O533     1.0000 0.12811  0.36107  0.68228  Biso   1.000  O
  S82      1.0000 0.09880  0.32120  0.73434  Biso   1.000  S
  C816     1.0000 0.10330  0.36420  0.75630  Biso   1.000  C
  C817     1.0000 0.10930  0.34610  0.71730  Biso   1.000  C
  C818     1.0000 0.12210  0.34030  0.69110  Biso   1.000  C
  C819     1.0000 0.10970  0.36790  0.73380  Biso   1.000  C
  C820     1.0000 0.09480  0.33850  0.76060  Biso   1.000  C
  Zr83     1.0000 0.71244  0.90871  0.13783  Biso   1.000  Zr
  Zr84     1.0000 0.66122  0.87957  0.16721  Biso   1.000  Zr
  S83      1.0000 0.58554  0.93424  0.17951  Biso   1.000  S
  O534     1.0000 0.62457  0.91471  0.12120  Biso   1.000  O
  O535     1.0000 0.62884  0.90663  0.16232  Biso   1.000  O
  O536     1.0000 0.54951  0.95769  0.21193  Biso   1.000  O
  O537     1.0000 0.52587  0.97566  0.18260  Biso   1.000  O
  O538     1.0000 0.67285  0.85911  0.20215  Biso   1.000  O
  O539     1.0000 0.70939  0.83958  0.19451  Biso   1.000  O
  O540     1.0000 0.74907  0.86260  0.17292  Biso   1.000  O
  O541     1.0000 0.74779  0.90284  0.16075  Biso   1.000  O
  O542     1.0000 0.69641  0.94537  0.12316  Biso   1.000  O
  O543     1.0000 0.66299  0.93558  0.09956  Biso   1.000  O
  O544     1.0000 0.67440  0.90157  0.13832  Biso   1.000  O
  O545     1.0000 0.70276  0.88340  0.16934  Biso   1.000  O
  C821     1.0000 0.61815  0.91657  0.14375  Biso   1.000  C
  C822     1.0000 0.59619  0.93201  0.14944  Biso   1.000  C
  C823     1.0000 0.58208  0.94567  0.13340  Biso   1.000  C
  H206     1.0000 0.58490  0.94660  0.11630  Biso   1.000  H
  C824     1.0000 0.56235  0.95843  0.14616  Biso   1.000  C
  H207     1.0000 0.55110  0.96900  0.13830  Biso   1.000  H
  C825     1.0000 0.56179  0.95354  0.17070  Biso   1.000  C
  C826     1.0000 0.54429  0.96330  0.18997  Biso   1.000  C
  C827     1.0000 0.68993  0.84391  0.20716  Biso   1.000  C
  C828     1.0000 0.68673  0.82945  0.23054  Biso   1.000  C
  C829     1.0000 0.69987  0.80944  0.23880  Biso   1.000  C
  H208     1.0000 0.71350  0.80270  0.23050  Biso   1.000  H
  C830     1.0000 0.75655  0.88468  0.17295  Biso   1.000  C
  C831     1.0000 0.77822  0.89101  0.18945  Biso   1.000  C
  C832     1.0000 0.78857  0.91352  0.19296  Biso   1.000  C
  H209     1.0000 0.78400  0.92760  0.18410  Biso   1.000  H
  C833     1.0000 0.67816  0.95064  0.10953  Biso   1.000  C
  C834     1.0000 0.67279  0.97727  0.10529  Biso   1.000  C
  C835     1.0000 0.65280  0.98680  0.09310  Biso   1.000  C
  H210     1.0000 0.64050  0.97710  0.08560  Biso   1.000  H
  O546     1.0000 0.62811  0.86107  0.18228  Biso   1.000  O
  S84      1.0000 0.59880  0.82120  0.23434  Biso   1.000  S
  C836     1.0000 0.60330  0.86420  0.25630  Biso   1.000  C
  C837     1.0000 0.60930  0.84610  0.21730  Biso   1.000  C
  C838     1.0000 0.62210  0.84030  0.19110  Biso   1.000  C
  C839     1.0000 0.60970  0.86790  0.23380  Biso   1.000  C
  C840     1.0000 0.59480  0.83850  0.26060  Biso   1.000  C
  Zr85     1.0000 0.21244  0.59129  0.36217  Biso   1.000  Zr
  Zr86     1.0000 0.16122  0.62043  0.33279  Biso   1.000  Zr
  S85      1.0000 0.08554  0.56576  0.32049  Biso   1.000  S
  O547     1.0000 0.12457  0.58529  0.37880  Biso   1.000  O
  O548     1.0000 0.12884  0.59337  0.33768  Biso   1.000  O
  O549     1.0000 0.04951  0.54231  0.28807  Biso   1.000  O
  O550     1.0000 0.02587  0.52434  0.31740  Biso   1.000  O
  O551     1.0000 0.17285  0.64089  0.29785  Biso   1.000  O
  O552     1.0000 0.20939  0.66042  0.30549  Biso   1.000  O
  O553     1.0000 0.24907  0.63740  0.32708  Biso   1.000  O
  O554     1.0000 0.24779  0.59716  0.33925  Biso   1.000  O
  O555     1.0000 0.19641  0.55463  0.37684  Biso   1.000  O
  O556     1.0000 0.16299  0.56442  0.40044  Biso   1.000  O
  O557     1.0000 0.17440  0.59843  0.36168  Biso   1.000  O
  O558     1.0000 0.20276  0.61660  0.33066  Biso   1.000  O
  C841     1.0000 0.11815  0.58343  0.35625  Biso   1.000  C
  C842     1.0000 0.09619  0.56799  0.35056  Biso   1.000  C
  C843     1.0000 0.08208  0.55433  0.36660  Biso   1.000  C
  H211     1.0000 0.08490  0.55340  0.38370  Biso   1.000  H
  C844     1.0000 0.06235  0.54157  0.35384  Biso   1.000  C
  H212     1.0000 0.05110  0.53100  0.36170  Biso   1.000  H
  C845     1.0000 0.06179  0.54646  0.32930  Biso   1.000  C
  C846     1.0000 0.04429  0.53670  0.31003  Biso   1.000  C
  C847     1.0000 0.18993  0.65609  0.29284  Biso   1.000  C
  C848     1.0000 0.18673  0.67055  0.26946  Biso   1.000  C
  C849     1.0000 0.19987  0.69056  0.26120  Biso   1.000  C
  H213     1.0000 0.21350  0.69730  0.26950  Biso   1.000  H
  C850     1.0000 0.25655  0.61532  0.32705  Biso   1.000  C
  C851     1.0000 0.27822  0.60899  0.31055  Biso   1.000  C
  C852     1.0000 0.28857  0.58648  0.30704  Biso   1.000  C
  H214     1.0000 0.28400  0.57240  0.31590  Biso   1.000  H
  C853     1.0000 0.17816  0.54936  0.39047  Biso   1.000  C
  C854     1.0000 0.17279  0.52273  0.39471  Biso   1.000  C
  C855     1.0000 0.15280  0.51320  0.40690  Biso   1.000  C
  H215     1.0000 0.14050  0.52290  0.41440  Biso   1.000  H
  O559     1.0000 0.12811  0.63893  0.31772  Biso   1.000  O
  S86      1.0000 0.09880  0.67880  0.26566  Biso   1.000  S
  C856     1.0000 0.10330  0.63580  0.24370  Biso   1.000  C
  C857     1.0000 0.10930  0.65390  0.28270  Biso   1.000  C
  C858     1.0000 0.12210  0.65970  0.30890  Biso   1.000  C
  C859     1.0000 0.10970  0.63210  0.26620  Biso   1.000  C
  C860     1.0000 0.09480  0.66150  0.23940  Biso   1.000  C
  Zr87     1.0000 0.71244  0.09129  0.86217  Biso   1.000  Zr
  Zr88     1.0000 0.66122  0.12043  0.83279  Biso   1.000  Zr
  S87      1.0000 0.58554  0.06576  0.82049  Biso   1.000  S
  O560     1.0000 0.62457  0.08529  0.87880  Biso   1.000  O
  O561     1.0000 0.62884  0.09337  0.83768  Biso   1.000  O
  O562     1.0000 0.54951  0.04231  0.78807  Biso   1.000  O
  O563     1.0000 0.52587  0.02434  0.81740  Biso   1.000  O
  O564     1.0000 0.67285  0.14089  0.79785  Biso   1.000  O
  O565     1.0000 0.70939  0.16042  0.80549  Biso   1.000  O
  O566     1.0000 0.74907  0.13740  0.82708  Biso   1.000  O
  O567     1.0000 0.74779  0.09716  0.83925  Biso   1.000  O
  O568     1.0000 0.69641  0.05463  0.87684  Biso   1.000  O
  O569     1.0000 0.66299  0.06442  0.90044  Biso   1.000  O
  O570     1.0000 0.67440  0.09843  0.86168  Biso   1.000  O
  O571     1.0000 0.70276  0.11660  0.83066  Biso   1.000  O
  C861     1.0000 0.61815  0.08343  0.85625  Biso   1.000  C
  C862     1.0000 0.59619  0.06799  0.85056  Biso   1.000  C
  C863     1.0000 0.58208  0.05433  0.86660  Biso   1.000  C
  H216     1.0000 0.58490  0.05340  0.88370  Biso   1.000  H
  C864     1.0000 0.56235  0.04157  0.85384  Biso   1.000  C
  H217     1.0000 0.55110  0.03100  0.86170  Biso   1.000  H
  C865     1.0000 0.56179  0.04646  0.82930  Biso   1.000  C
  C866     1.0000 0.54429  0.03670  0.81003  Biso   1.000  C
  C867     1.0000 0.68993  0.15609  0.79284  Biso   1.000  C
  C868     1.0000 0.68673  0.17055  0.76946  Biso   1.000  C
  C869     1.0000 0.69987  0.19056  0.76120  Biso   1.000  C
  H218     1.0000 0.71350  0.19730  0.76950  Biso   1.000  H
  C870     1.0000 0.75655  0.11532  0.82705  Biso   1.000  C
  C871     1.0000 0.77822  0.10899  0.81055  Biso   1.000  C
  C872     1.0000 0.78857  0.08648  0.80704  Biso   1.000  C
  H219     1.0000 0.78400  0.07240  0.81590  Biso   1.000  H
  C873     1.0000 0.67816  0.04936  0.89047  Biso   1.000  C
  C874     1.0000 0.67279  0.02273  0.89471  Biso   1.000  C
  C875     1.0000 0.65280  0.01320  0.90690  Biso   1.000  C
  H220     1.0000 0.64050  0.02290  0.91440  Biso   1.000  H
  O572     1.0000 0.62811  0.13893  0.81772  Biso   1.000  O
  S88      1.0000 0.59880  0.17880  0.76566  Biso   1.000  S
  C876     1.0000 0.60330  0.13580  0.74370  Biso   1.000  C
  C877     1.0000 0.60930  0.15390  0.78270  Biso   1.000  C
  C878     1.0000 0.62210  0.15970  0.80890  Biso   1.000  C
  C879     1.0000 0.60970  0.13210  0.76620  Biso   1.000  C
  C880     1.0000 0.59480  0.16150  0.73940  Biso   1.000  C
  Zr89     1.0000 0.78756  0.40871  0.36217  Biso   1.000  Zr
  Zr90     1.0000 0.83878  0.37957  0.33279  Biso   1.000  Zr
  S89      1.0000 0.91446  0.43424  0.32049  Biso   1.000  S
  O573     1.0000 0.87543  0.41471  0.37880  Biso   1.000  O
  O574     1.0000 0.87116  0.40663  0.33768  Biso   1.000  O
  O575     1.0000 0.95049  0.45769  0.28807  Biso   1.000  O
  O576     1.0000 0.97413  0.47566  0.31740  Biso   1.000  O
  O577     1.0000 0.82715  0.35911  0.29785  Biso   1.000  O
  O578     1.0000 0.79061  0.33958  0.30549  Biso   1.000  O
  O579     1.0000 0.75093  0.36260  0.32708  Biso   1.000  O
  O580     1.0000 0.75221  0.40284  0.33925  Biso   1.000  O
  O581     1.0000 0.80359  0.44537  0.37684  Biso   1.000  O
  O582     1.0000 0.83701  0.43558  0.40044  Biso   1.000  O
  O583     1.0000 0.82560  0.40157  0.36168  Biso   1.000  O
  O584     1.0000 0.79724  0.38340  0.33066  Biso   1.000  O
  C881     1.0000 0.88185  0.41657  0.35625  Biso   1.000  C
  C882     1.0000 0.90381  0.43201  0.35056  Biso   1.000  C
  C883     1.0000 0.91792  0.44567  0.36660  Biso   1.000  C
  H221     1.0000 0.91510  0.44660  0.38370  Biso   1.000  H
  C884     1.0000 0.93765  0.45843  0.35384  Biso   1.000  C
  H222     1.0000 0.94890  0.46900  0.36170  Biso   1.000  H
  C885     1.0000 0.93821  0.45354  0.32930  Biso   1.000  C
  C886     1.0000 0.95571  0.46330  0.31003  Biso   1.000  C
  C887     1.0000 0.81007  0.34391  0.29284  Biso   1.000  C
  C888     1.0000 0.81327  0.32945  0.26946  Biso   1.000  C
  C889     1.0000 0.80013  0.30944  0.26120  Biso   1.000  C
  H223     1.0000 0.78650  0.30270  0.26950  Biso   1.000  H
  C890     1.0000 0.74345  0.38468  0.32705  Biso   1.000  C
  C891     1.0000 0.72178  0.39101  0.31055  Biso   1.000  C
  C892     1.0000 0.71143  0.41352  0.30704  Biso   1.000  C
  H224     1.0000 0.71600  0.42760  0.31590  Biso   1.000  H
  C893     1.0000 0.82184  0.45064  0.39047  Biso   1.000  C
  C894     1.0000 0.82721  0.47727  0.39471  Biso   1.000  C
  C895     1.0000 0.84720  0.48680  0.40690  Biso   1.000  C
  H225     1.0000 0.85950  0.47710  0.41440  Biso   1.000  H
  O585     1.0000 0.87189  0.36107  0.31772  Biso   1.000  O
  S90      1.0000 0.90120  0.32120  0.26566  Biso   1.000  S
  C896     1.0000 0.89670  0.36420  0.24370  Biso   1.000  C
  C897     1.0000 0.89070  0.34610  0.28270  Biso   1.000  C
  C898     1.0000 0.87790  0.34030  0.30890  Biso   1.000  C
  C899     1.0000 0.89030  0.36790  0.26620  Biso   1.000  C
  C900     1.0000 0.90520  0.33850  0.23940  Biso   1.000  C
  Zr91     1.0000 0.28756  0.90871  0.86217  Biso   1.000  Zr
  Zr92     1.0000 0.33878  0.87957  0.83279  Biso   1.000  Zr
  S91      1.0000 0.41446  0.93424  0.82049  Biso   1.000  S
  O586     1.0000 0.37543  0.91471  0.87880  Biso   1.000  O
  O587     1.0000 0.37116  0.90663  0.83768  Biso   1.000  O
  O588     1.0000 0.45049  0.95769  0.78807  Biso   1.000  O
  O589     1.0000 0.47413  0.97566  0.81740  Biso   1.000  O
  O590     1.0000 0.32715  0.85911  0.79785  Biso   1.000  O
  O591     1.0000 0.29061  0.83958  0.80549  Biso   1.000  O
  O592     1.0000 0.25093  0.86260  0.82708  Biso   1.000  O
  O593     1.0000 0.25221  0.90284  0.83925  Biso   1.000  O
  O594     1.0000 0.30359  0.94537  0.87684  Biso   1.000  O
  O595     1.0000 0.33701  0.93558  0.90044  Biso   1.000  O
  O596     1.0000 0.32560  0.90157  0.86168  Biso   1.000  O
  O597     1.0000 0.29724  0.88340  0.83066  Biso   1.000  O
  C901     1.0000 0.38185  0.91657  0.85625  Biso   1.000  C
  C902     1.0000 0.40381  0.93201  0.85056  Biso   1.000  C
  C903     1.0000 0.41792  0.94567  0.86660  Biso   1.000  C
  H226     1.0000 0.41510  0.94660  0.88370  Biso   1.000  H
  C904     1.0000 0.43765  0.95843  0.85384  Biso   1.000  C
  H227     1.0000 0.44890  0.96900  0.86170  Biso   1.000  H
  C905     1.0000 0.43821  0.95354  0.82930  Biso   1.000  C
  C906     1.0000 0.45571  0.96330  0.81003  Biso   1.000  C
  C907     1.0000 0.31007  0.84391  0.79284  Biso   1.000  C
  C908     1.0000 0.31327  0.82945  0.76946  Biso   1.000  C
  C909     1.0000 0.30013  0.80944  0.76120  Biso   1.000  C
  H228     1.0000 0.28650  0.80270  0.76950  Biso   1.000  H
  C910     1.0000 0.24345  0.88468  0.82705  Biso   1.000  C
  C911     1.0000 0.22178  0.89101  0.81055  Biso   1.000  C
  C912     1.0000 0.21143  0.91352  0.80704  Biso   1.000  C
  H229     1.0000 0.21600  0.92760  0.81590  Biso   1.000  H
  C913     1.0000 0.32184  0.95064  0.89047  Biso   1.000  C
  C914     1.0000 0.32721  0.97727  0.89471  Biso   1.000  C
  C915     1.0000 0.34720  0.98680  0.90690  Biso   1.000  C
  H230     1.0000 0.35950  0.97710  0.91440  Biso   1.000  H
  O598     1.0000 0.37189  0.86107  0.81772  Biso   1.000  O
  S92      1.0000 0.40120  0.82120  0.76566  Biso   1.000  S
  C916     1.0000 0.39670  0.86420  0.74370  Biso   1.000  C
  C917     1.0000 0.39070  0.84610  0.78270  Biso   1.000  C
  C918     1.0000 0.37790  0.84030  0.80890  Biso   1.000  C
  C919     1.0000 0.39030  0.86790  0.76620  Biso   1.000  C
  C920     1.0000 0.40520  0.83850  0.73940  Biso   1.000  C
  Zr93     1.0000 0.78756  0.59129  0.63783  Biso   1.000  Zr
  Zr94     1.0000 0.83878  0.62043  0.66721  Biso   1.000  Zr
  S93      1.0000 0.91446  0.56576  0.67951  Biso   1.000  S
  O599     1.0000 0.87543  0.58529  0.62120  Biso   1.000  O
  O600     1.0000 0.87116  0.59337  0.66232  Biso   1.000  O
  O601     1.0000 0.95049  0.54231  0.71193  Biso   1.000  O
  O602     1.0000 0.97413  0.52434  0.68260  Biso   1.000  O
  O603     1.0000 0.82715  0.64089  0.70215  Biso   1.000  O
  O604     1.0000 0.79061  0.66042  0.69451  Biso   1.000  O
  O605     1.0000 0.75093  0.63740  0.67292  Biso   1.000  O
  O606     1.0000 0.75221  0.59716  0.66075  Biso   1.000  O
  O607     1.0000 0.80359  0.55463  0.62316  Biso   1.000  O
  O608     1.0000 0.83701  0.56442  0.59956  Biso   1.000  O
  O609     1.0000 0.82560  0.59843  0.63832  Biso   1.000  O
  O610     1.0000 0.79724  0.61660  0.66934  Biso   1.000  O
  C921     1.0000 0.88185  0.58343  0.64375  Biso   1.000  C
  C922     1.0000 0.90381  0.56799  0.64944  Biso   1.000  C
  C923     1.0000 0.91792  0.55433  0.63340  Biso   1.000  C
  H231     1.0000 0.91510  0.55340  0.61630  Biso   1.000  H
  C924     1.0000 0.93765  0.54157  0.64616  Biso   1.000  C
  H232     1.0000 0.94890  0.53100  0.63830  Biso   1.000  H
  C925     1.0000 0.93821  0.54646  0.67070  Biso   1.000  C
  C926     1.0000 0.95571  0.53670  0.68997  Biso   1.000  C
  C927     1.0000 0.81007  0.65609  0.70716  Biso   1.000  C
  C928     1.0000 0.81327  0.67055  0.73054  Biso   1.000  C
  C929     1.0000 0.80013  0.69056  0.73880  Biso   1.000  C
  H233     1.0000 0.78650  0.69730  0.73050  Biso   1.000  H
  C930     1.0000 0.74345  0.61532  0.67295  Biso   1.000  C
  C931     1.0000 0.72178  0.60899  0.68945  Biso   1.000  C
  C932     1.0000 0.71143  0.58648  0.69296  Biso   1.000  C
  H234     1.0000 0.71600  0.57240  0.68410  Biso   1.000  H
  C933     1.0000 0.82184  0.54936  0.60953  Biso   1.000  C
  C934     1.0000 0.82721  0.52273  0.60529  Biso   1.000  C
  C935     1.0000 0.84720  0.51320  0.59310  Biso   1.000  C
  H235     1.0000 0.85950  0.52290  0.58560  Biso   1.000  H
  O611     1.0000 0.87189  0.63893  0.68228  Biso   1.000  O
  S94      1.0000 0.90120  0.67880  0.73434  Biso   1.000  S
  C936     1.0000 0.89670  0.63580  0.75630  Biso   1.000  C
  C937     1.0000 0.89070  0.65390  0.71730  Biso   1.000  C
  C938     1.0000 0.87790  0.65970  0.69110  Biso   1.000  C
  C939     1.0000 0.89030  0.63210  0.73380  Biso   1.000  C
  C940     1.0000 0.90520  0.66150  0.76060  Biso   1.000  C
  Zr95     1.0000 0.28756  0.09129  0.13783  Biso   1.000  Zr
  Zr96     1.0000 0.33878  0.12043  0.16721  Biso   1.000  Zr
  S95      1.0000 0.41446  0.06576  0.17951  Biso   1.000  S
  O612     1.0000 0.37543  0.08529  0.12120  Biso   1.000  O
  O613     1.0000 0.37116  0.09337  0.16232  Biso   1.000  O
  O614     1.0000 0.45049  0.04231  0.21193  Biso   1.000  O
  O615     1.0000 0.47413  0.02434  0.18260  Biso   1.000  O
  O616     1.0000 0.32715  0.14089  0.20215  Biso   1.000  O
  O617     1.0000 0.29061  0.16042  0.19451  Biso   1.000  O
  O618     1.0000 0.25093  0.13740  0.17292  Biso   1.000  O
  O619     1.0000 0.25221  0.09716  0.16075  Biso   1.000  O
  O620     1.0000 0.30359  0.05463  0.12316  Biso   1.000  O
  O621     1.0000 0.33701  0.06442  0.09956  Biso   1.000  O
  O622     1.0000 0.32560  0.09843  0.13832  Biso   1.000  O
  O623     1.0000 0.29724  0.11660  0.16934  Biso   1.000  O
  C941     1.0000 0.38185  0.08343  0.14375  Biso   1.000  C
  C942     1.0000 0.40381  0.06799  0.14944  Biso   1.000  C
  C943     1.0000 0.41792  0.05433  0.13340  Biso   1.000  C
  H236     1.0000 0.41510  0.05340  0.11630  Biso   1.000  H
  C944     1.0000 0.43765  0.04157  0.14616  Biso   1.000  C
  H237     1.0000 0.44890  0.03100  0.13830  Biso   1.000  H
  C945     1.0000 0.43821  0.04646  0.17070  Biso   1.000  C
  C946     1.0000 0.45571  0.03670  0.18997  Biso   1.000  C
  C947     1.0000 0.31007  0.15609  0.20716  Biso   1.000  C
  C948     1.0000 0.31327  0.17055  0.23054  Biso   1.000  C
  C949     1.0000 0.30013  0.19056  0.23880  Biso   1.000  C
  H238     1.0000 0.28650  0.19730  0.23050  Biso   1.000  H
  C950     1.0000 0.24345  0.11532  0.17295  Biso   1.000  C
  C951     1.0000 0.22178  0.10899  0.18945  Biso   1.000  C
  C952     1.0000 0.21143  0.08648  0.19296  Biso   1.000  C
  H239     1.0000 0.21600  0.07240  0.18410  Biso   1.000  H
  C953     1.0000 0.32184  0.04936  0.10953  Biso   1.000  C
  C954     1.0000 0.32721  0.02273  0.10529  Biso   1.000  C
  C955     1.0000 0.34720  0.01320  0.09310  Biso   1.000  C
  H240     1.0000 0.35950  0.02290  0.08560  Biso   1.000  H
  O624     1.0000 0.37189  0.13893  0.18228  Biso   1.000  O
  S96      1.0000 0.40120  0.17880  0.23434  Biso   1.000  S
  C956     1.0000 0.39670  0.13580  0.25630  Biso   1.000  C
  C957     1.0000 0.39070  0.15390  0.21730  Biso   1.000  C
  C958     1.0000 0.37790  0.15970  0.19110  Biso   1.000  C
  C959     1.0000 0.39030  0.13210  0.23380  Biso   1.000  C
  C960     1.0000 0.40520  0.16150  0.26060  Biso   1.000  C
  Zr97     1.0000 0.63783  0.59129  0.78756  Biso   1.000  Zr
  Zr98     1.0000 0.66721  0.62043  0.83878  Biso   1.000  Zr
  S97      1.0000 0.67951  0.56576  0.91446  Biso   1.000  S
  O625     1.0000 0.62120  0.58529  0.87543  Biso   1.000  O
  O626     1.0000 0.66232  0.59337  0.87116  Biso   1.000  O
  O627     1.0000 0.71193  0.54231  0.95049  Biso   1.000  O
  O628     1.0000 0.68260  0.52434  0.97413  Biso   1.000  O
  O629     1.0000 0.70215  0.64089  0.82715  Biso   1.000  O
  O630     1.0000 0.69451  0.66042  0.79061  Biso   1.000  O
  O631     1.0000 0.67292  0.63740  0.75093  Biso   1.000  O
  O632     1.0000 0.66075  0.59716  0.75221  Biso   1.000  O
  O633     1.0000 0.62316  0.55463  0.80359  Biso   1.000  O
  O634     1.0000 0.59956  0.56442  0.83701  Biso   1.000  O
  O635     1.0000 0.63832  0.59843  0.82560  Biso   1.000  O
  O636     1.0000 0.66934  0.61660  0.79724  Biso   1.000  O
  C961     1.0000 0.64375  0.58343  0.88185  Biso   1.000  C
  C962     1.0000 0.64944  0.56799  0.90381  Biso   1.000  C
  C963     1.0000 0.63340  0.55433  0.91792  Biso   1.000  C
  H241     1.0000 0.61630  0.55340  0.91510  Biso   1.000  H
  C964     1.0000 0.64616  0.54157  0.93765  Biso   1.000  C
  H242     1.0000 0.63830  0.53100  0.94890  Biso   1.000  H
  C965     1.0000 0.67070  0.54646  0.93821  Biso   1.000  C
  C966     1.0000 0.68997  0.53670  0.95571  Biso   1.000  C
  C967     1.0000 0.70716  0.65609  0.81007  Biso   1.000  C
  C968     1.0000 0.73054  0.67055  0.81327  Biso   1.000  C
  C969     1.0000 0.73880  0.69056  0.80013  Biso   1.000  C
  H243     1.0000 0.73050  0.69730  0.78650  Biso   1.000  H
  C970     1.0000 0.67295  0.61532  0.74345  Biso   1.000  C
  C971     1.0000 0.68945  0.60899  0.72178  Biso   1.000  C
  C972     1.0000 0.69296  0.58648  0.71143  Biso   1.000  C
  H244     1.0000 0.68410  0.57240  0.71600  Biso   1.000  H
  C973     1.0000 0.60953  0.54936  0.82184  Biso   1.000  C
  C974     1.0000 0.60529  0.52273  0.82721  Biso   1.000  C
  C975     1.0000 0.59310  0.51320  0.84720  Biso   1.000  C
  H245     1.0000 0.58560  0.52290  0.85950  Biso   1.000  H
  O637     1.0000 0.68228  0.63893  0.87189  Biso   1.000  O
  S98      1.0000 0.73434  0.67880  0.90120  Biso   1.000  S
  C976     1.0000 0.75630  0.63580  0.89670  Biso   1.000  C
  C977     1.0000 0.71730  0.65390  0.89070  Biso   1.000  C
  C978     1.0000 0.69110  0.65970  0.87790  Biso   1.000  C
  C979     1.0000 0.73380  0.63210  0.89030  Biso   1.000  C
  C980     1.0000 0.76060  0.66150  0.90520  Biso   1.000  C
  Zr99     1.0000 0.13783  0.09129  0.28756  Biso   1.000  Zr
  Zr100    1.0000 0.16721  0.12043  0.33878  Biso   1.000  Zr
  S99      1.0000 0.17951  0.06576  0.41446  Biso   1.000  S
  O638     1.0000 0.12120  0.08529  0.37543  Biso   1.000  O
  O639     1.0000 0.16232  0.09337  0.37116  Biso   1.000  O
  O640     1.0000 0.21193  0.04231  0.45049  Biso   1.000  O
  O641     1.0000 0.18260  0.02434  0.47413  Biso   1.000  O
  O642     1.0000 0.20215  0.14089  0.32715  Biso   1.000  O
  O643     1.0000 0.19451  0.16042  0.29061  Biso   1.000  O
  O644     1.0000 0.17292  0.13740  0.25093  Biso   1.000  O
  O645     1.0000 0.16075  0.09716  0.25221  Biso   1.000  O
  O646     1.0000 0.12316  0.05463  0.30359  Biso   1.000  O
  O647     1.0000 0.09956  0.06442  0.33701  Biso   1.000  O
  O648     1.0000 0.13832  0.09843  0.32560  Biso   1.000  O
  O649     1.0000 0.16934  0.11660  0.29724  Biso   1.000  O
  C981     1.0000 0.14375  0.08343  0.38185  Biso   1.000  C
  C982     1.0000 0.14944  0.06799  0.40381  Biso   1.000  C
  C983     1.0000 0.13340  0.05433  0.41792  Biso   1.000  C
  H246     1.0000 0.11630  0.05340  0.41510  Biso   1.000  H
  C984     1.0000 0.14616  0.04157  0.43765  Biso   1.000  C
  H247     1.0000 0.13830  0.03100  0.44890  Biso   1.000  H
  C985     1.0000 0.17070  0.04646  0.43821  Biso   1.000  C
  C986     1.0000 0.18997  0.03670  0.45571  Biso   1.000  C
  C987     1.0000 0.20716  0.15609  0.31007  Biso   1.000  C
  C988     1.0000 0.23054  0.17055  0.31327  Biso   1.000  C
  C989     1.0000 0.23880  0.19056  0.30013  Biso   1.000  C
  H248     1.0000 0.23050  0.19730  0.28650  Biso   1.000  H
  C990     1.0000 0.17295  0.11532  0.24345  Biso   1.000  C
  C991     1.0000 0.18945  0.10899  0.22178  Biso   1.000  C
  C992     1.0000 0.19296  0.08648  0.21143  Biso   1.000  C
  H249     1.0000 0.18410  0.07240  0.21600  Biso   1.000  H
  C993     1.0000 0.10953  0.04936  0.32184  Biso   1.000  C
  C994     1.0000 0.10529  0.02273  0.32721  Biso   1.000  C
  C995     1.0000 0.09310  0.01320  0.34720  Biso   1.000  C
  H250     1.0000 0.08560  0.02290  0.35950  Biso   1.000  H
  O650     1.0000 0.18228  0.13893  0.37189  Biso   1.000  O
  S100     1.0000 0.23434  0.17880  0.40120  Biso   1.000  S
  C996     1.0000 0.25630  0.13580  0.39670  Biso   1.000  C
  C997     1.0000 0.21730  0.15390  0.39070  Biso   1.000  C
  C998     1.0000 0.19110  0.15970  0.37790  Biso   1.000  C
  C999     1.0000 0.23380  0.13210  0.39030  Biso   1.000  C
  C1000    1.0000 0.26060  0.16150  0.40520  Biso   1.000  C
  Zr101    1.0000 0.36217  0.40871  0.78756  Biso   1.000  Zr
  Zr102    1.0000 0.33279  0.37957  0.83878  Biso   1.000  Zr
  S101     1.0000 0.32049  0.43424  0.91446  Biso   1.000  S
  O651     1.0000 0.37880  0.41471  0.87543  Biso   1.000  O
  O652     1.0000 0.33768  0.40663  0.87116  Biso   1.000  O
  O653     1.0000 0.28807  0.45769  0.95049  Biso   1.000  O
  O654     1.0000 0.31740  0.47566  0.97413  Biso   1.000  O
  O655     1.0000 0.29785  0.35911  0.82715  Biso   1.000  O
  O656     1.0000 0.30549  0.33958  0.79061  Biso   1.000  O
  O657     1.0000 0.32708  0.36260  0.75093  Biso   1.000  O
  O658     1.0000 0.33925  0.40284  0.75221  Biso   1.000  O
  O659     1.0000 0.37684  0.44537  0.80359  Biso   1.000  O
  O660     1.0000 0.40044  0.43558  0.83701  Biso   1.000  O
  O661     1.0000 0.36168  0.40157  0.82560  Biso   1.000  O
  O662     1.0000 0.33066  0.38340  0.79724  Biso   1.000  O
  C1001    1.0000 0.35625  0.41657  0.88185  Biso   1.000  C
  C1002    1.0000 0.35056  0.43201  0.90381  Biso   1.000  C
  C1003    1.0000 0.36660  0.44567  0.91792  Biso   1.000  C
  H251     1.0000 0.38370  0.44660  0.91510  Biso   1.000  H
  C1004    1.0000 0.35384  0.45843  0.93765  Biso   1.000  C
  H252     1.0000 0.36170  0.46900  0.94890  Biso   1.000  H
  C1005    1.0000 0.32930  0.45354  0.93821  Biso   1.000  C
  C1006    1.0000 0.31003  0.46330  0.95571  Biso   1.000  C
  C1007    1.0000 0.29284  0.34391  0.81007  Biso   1.000  C
  C1008    1.0000 0.26946  0.32945  0.81327  Biso   1.000  C
  C1009    1.0000 0.26120  0.30944  0.80013  Biso   1.000  C
  H253     1.0000 0.26950  0.30270  0.78650  Biso   1.000  H
  C1010    1.0000 0.32705  0.38468  0.74345  Biso   1.000  C
  C1011    1.0000 0.31055  0.39101  0.72178  Biso   1.000  C
  C1012    1.0000 0.30704  0.41352  0.71143  Biso   1.000  C
  H254     1.0000 0.31590  0.42760  0.71600  Biso   1.000  H
  C1013    1.0000 0.39047  0.45064  0.82184  Biso   1.000  C
  C1014    1.0000 0.39471  0.47727  0.82721  Biso   1.000  C
  C1015    1.0000 0.40690  0.48680  0.84720  Biso   1.000  C
  H255     1.0000 0.41440  0.47710  0.85950  Biso   1.000  H
  O663     1.0000 0.31772  0.36107  0.87189  Biso   1.000  O
  S102     1.0000 0.26566  0.32120  0.90120  Biso   1.000  S
  C1016    1.0000 0.24370  0.36420  0.89670  Biso   1.000  C
  C1017    1.0000 0.28270  0.34610  0.89070  Biso   1.000  C
  C1018    1.0000 0.30890  0.34030  0.87790  Biso   1.000  C
  C1019    1.0000 0.26620  0.36790  0.89030  Biso   1.000  C
  C1020    1.0000 0.23940  0.33850  0.90520  Biso   1.000  C
  Zr103    1.0000 0.86217  0.90871  0.28756  Biso   1.000  Zr
  Zr104    1.0000 0.83279  0.87957  0.33878  Biso   1.000  Zr
  S103     1.0000 0.82049  0.93424  0.41446  Biso   1.000  S
  O664     1.0000 0.87880  0.91471  0.37543  Biso   1.000  O
  O665     1.0000 0.83768  0.90663  0.37116  Biso   1.000  O
  O666     1.0000 0.78807  0.95769  0.45049  Biso   1.000  O
  O667     1.0000 0.81740  0.97566  0.47413  Biso   1.000  O
  O668     1.0000 0.79785  0.85911  0.32715  Biso   1.000  O
  O669     1.0000 0.80549  0.83958  0.29061  Biso   1.000  O
  O670     1.0000 0.82708  0.86260  0.25093  Biso   1.000  O
  O671     1.0000 0.83925  0.90284  0.25221  Biso   1.000  O
  O672     1.0000 0.87684  0.94537  0.30359  Biso   1.000  O
  O673     1.0000 0.90044  0.93558  0.33701  Biso   1.000  O
  O674     1.0000 0.86168  0.90157  0.32560  Biso   1.000  O
  O675     1.0000 0.83066  0.88340  0.29724  Biso   1.000  O
  C1021    1.0000 0.85625  0.91657  0.38185  Biso   1.000  C
  C1022    1.0000 0.85056  0.93201  0.40381  Biso   1.000  C
  C1023    1.0000 0.86660  0.94567  0.41792  Biso   1.000  C
  H256     1.0000 0.88370  0.94660  0.41510  Biso   1.000  H
  C1024    1.0000 0.85384  0.95843  0.43765  Biso   1.000  C
  H257     1.0000 0.86170  0.96900  0.44890  Biso   1.000  H
  C1025    1.0000 0.82930  0.95354  0.43821  Biso   1.000  C
  C1026    1.0000 0.81003  0.96330  0.45571  Biso   1.000  C
  C1027    1.0000 0.79284  0.84391  0.31007  Biso   1.000  C
  C1028    1.0000 0.76946  0.82945  0.31327  Biso   1.000  C
  C1029    1.0000 0.76120  0.80944  0.30013  Biso   1.000  C
  H258     1.0000 0.76950  0.80270  0.28650  Biso   1.000  H
  C1030    1.0000 0.82705  0.88468  0.24345  Biso   1.000  C
  C1031    1.0000 0.81055  0.89101  0.22178  Biso   1.000  C
  C1032    1.0000 0.80704  0.91352  0.21143  Biso   1.000  C
  H259     1.0000 0.81590  0.92760  0.21600  Biso   1.000  H
  C1033    1.0000 0.89047  0.95064  0.32184  Biso   1.000  C
  C1034    1.0000 0.89471  0.97727  0.32721  Biso   1.000  C
  C1035    1.0000 0.90690  0.98680  0.34720  Biso   1.000  C
  H260     1.0000 0.91440  0.97710  0.35950  Biso   1.000  H
  O676     1.0000 0.81772  0.86107  0.37189  Biso   1.000  O
  S104     1.0000 0.76566  0.82120  0.40120  Biso   1.000  S
  C1036    1.0000 0.74370  0.86420  0.39670  Biso   1.000  C
  C1037    1.0000 0.78270  0.84610  0.39070  Biso   1.000  C
  C1038    1.0000 0.80890  0.84030  0.37790  Biso   1.000  C
  C1039    1.0000 0.76620  0.86790  0.39030  Biso   1.000  C
  C1040    1.0000 0.73940  0.83850  0.40520  Biso   1.000  C
  Zr105    1.0000 0.36217  0.59129  0.21244  Biso   1.000  Zr
  Zr106    1.0000 0.33279  0.62043  0.16122  Biso   1.000  Zr
  S105     1.0000 0.32049  0.56576  0.08554  Biso   1.000  S
  O677     1.0000 0.37880  0.58529  0.12457  Biso   1.000  O
  O678     1.0000 0.33768  0.59337  0.12884  Biso   1.000  O
  O679     1.0000 0.28807  0.54231  0.04951  Biso   1.000  O
  O680     1.0000 0.31740  0.52434  0.02587  Biso   1.000  O
  O681     1.0000 0.29785  0.64089  0.17285  Biso   1.000  O
  O682     1.0000 0.30549  0.66042  0.20939  Biso   1.000  O
  O683     1.0000 0.32708  0.63740  0.24907  Biso   1.000  O
  O684     1.0000 0.33925  0.59716  0.24779  Biso   1.000  O
  O685     1.0000 0.37684  0.55463  0.19641  Biso   1.000  O
  O686     1.0000 0.40044  0.56442  0.16299  Biso   1.000  O
  O687     1.0000 0.36168  0.59843  0.17440  Biso   1.000  O
  O688     1.0000 0.33066  0.61660  0.20276  Biso   1.000  O
  C1041    1.0000 0.35625  0.58343  0.11815  Biso   1.000  C
  C1042    1.0000 0.35056  0.56799  0.09619  Biso   1.000  C
  C1043    1.0000 0.36660  0.55433  0.08208  Biso   1.000  C
  H261     1.0000 0.38370  0.55340  0.08490  Biso   1.000  H
  C1044    1.0000 0.35384  0.54157  0.06235  Biso   1.000  C
  H262     1.0000 0.36170  0.53100  0.05110  Biso   1.000  H
  C1045    1.0000 0.32930  0.54646  0.06179  Biso   1.000  C
  C1046    1.0000 0.31003  0.53670  0.04429  Biso   1.000  C
  C1047    1.0000 0.29284  0.65609  0.18993  Biso   1.000  C
  C1048    1.0000 0.26946  0.67055  0.18673  Biso   1.000  C
  C1049    1.0000 0.26120  0.69056  0.19987  Biso   1.000  C
  H263     1.0000 0.26950  0.69730  0.21350  Biso   1.000  H
  C1050    1.0000 0.32705  0.61532  0.25655  Biso   1.000  C
  C1051    1.0000 0.31055  0.60899  0.27822  Biso   1.000  C
  C1052    1.0000 0.30704  0.58648  0.28857  Biso   1.000  C
  H264     1.0000 0.31590  0.57240  0.28400  Biso   1.000  H
  C1053    1.0000 0.39047  0.54936  0.17816  Biso   1.000  C
  C1054    1.0000 0.39471  0.52273  0.17279  Biso   1.000  C
  C1055    1.0000 0.40690  0.51320  0.15280  Biso   1.000  C
  H265     1.0000 0.41440  0.52290  0.14050  Biso   1.000  H
  O689     1.0000 0.31772  0.63893  0.12811  Biso   1.000  O
  S106     1.0000 0.26566  0.67880  0.09880  Biso   1.000  S
  C1056    1.0000 0.24370  0.63580  0.10330  Biso   1.000  C
  C1057    1.0000 0.28270  0.65390  0.10930  Biso   1.000  C
  C1058    1.0000 0.30890  0.65970  0.12210  Biso   1.000  C
  C1059    1.0000 0.26620  0.63210  0.10970  Biso   1.000  C
  C1060    1.0000 0.23940  0.66150  0.09480  Biso   1.000  C
  Zr107    1.0000 0.86217  0.09129  0.71244  Biso   1.000  Zr
  Zr108    1.0000 0.83279  0.12043  0.66122  Biso   1.000  Zr
  S107     1.0000 0.82049  0.06576  0.58554  Biso   1.000  S
  O690     1.0000 0.87880  0.08529  0.62457  Biso   1.000  O
  O691     1.0000 0.83768  0.09337  0.62884  Biso   1.000  O
  O692     1.0000 0.78807  0.04231  0.54951  Biso   1.000  O
  O693     1.0000 0.81740  0.02434  0.52587  Biso   1.000  O
  O694     1.0000 0.79785  0.14089  0.67285  Biso   1.000  O
  O695     1.0000 0.80549  0.16042  0.70939  Biso   1.000  O
  O696     1.0000 0.82708  0.13740  0.74907  Biso   1.000  O
  O697     1.0000 0.83925  0.09716  0.74779  Biso   1.000  O
  O698     1.0000 0.87684  0.05463  0.69641  Biso   1.000  O
  O699     1.0000 0.90044  0.06442  0.66299  Biso   1.000  O
  O700     1.0000 0.86168  0.09843  0.67440  Biso   1.000  O
  O701     1.0000 0.83066  0.11660  0.70276  Biso   1.000  O
  C1061    1.0000 0.85625  0.08343  0.61815  Biso   1.000  C
  C1062    1.0000 0.85056  0.06799  0.59619  Biso   1.000  C
  C1063    1.0000 0.86660  0.05433  0.58208  Biso   1.000  C
  H266     1.0000 0.88370  0.05340  0.58490  Biso   1.000  H
  C1064    1.0000 0.85384  0.04157  0.56235  Biso   1.000  C
  H267     1.0000 0.86170  0.03100  0.55110  Biso   1.000  H
  C1065    1.0000 0.82930  0.04646  0.56179  Biso   1.000  C
  C1066    1.0000 0.81003  0.03670  0.54429  Biso   1.000  C
  C1067    1.0000 0.79284  0.15609  0.68993  Biso   1.000  C
  C1068    1.0000 0.76946  0.17055  0.68673  Biso   1.000  C
  C1069    1.0000 0.76120  0.19056  0.69987  Biso   1.000  C
  H268     1.0000 0.76950  0.19730  0.71350  Biso   1.000  H
  C1070    1.0000 0.82705  0.11532  0.75655  Biso   1.000  C
  C1071    1.0000 0.81055  0.10899  0.77822  Biso   1.000  C
  C1072    1.0000 0.80704  0.08648  0.78857  Biso   1.000  C
  H269     1.0000 0.81590  0.07240  0.78400  Biso   1.000  H
  C1073    1.0000 0.89047  0.04936  0.67816  Biso   1.000  C
  C1074    1.0000 0.89471  0.02273  0.67279  Biso   1.000  C
  C1075    1.0000 0.90690  0.01320  0.65280  Biso   1.000  C
  H270     1.0000 0.91440  0.02290  0.64050  Biso   1.000  H
  O702     1.0000 0.81772  0.13893  0.62811  Biso   1.000  O
  S108     1.0000 0.76566  0.17880  0.59880  Biso   1.000  S
  C1076    1.0000 0.74370  0.13580  0.60330  Biso   1.000  C
  C1077    1.0000 0.78270  0.15390  0.60930  Biso   1.000  C
  C1078    1.0000 0.80890  0.15970  0.62210  Biso   1.000  C
  C1079    1.0000 0.76620  0.13210  0.60970  Biso   1.000  C
  C1080    1.0000 0.73940  0.16150  0.59480  Biso   1.000  C
  Zr109    1.0000 0.63783  0.40871  0.21244  Biso   1.000  Zr
  Zr110    1.0000 0.66721  0.37957  0.16122  Biso   1.000  Zr
  S109     1.0000 0.67951  0.43424  0.08554  Biso   1.000  S
  O703     1.0000 0.62120  0.41471  0.12457  Biso   1.000  O
  O704     1.0000 0.66232  0.40663  0.12884  Biso   1.000  O
  O705     1.0000 0.71193  0.45769  0.04951  Biso   1.000  O
  O706     1.0000 0.68260  0.47566  0.02587  Biso   1.000  O
  O707     1.0000 0.70215  0.35911  0.17285  Biso   1.000  O
  O708     1.0000 0.69451  0.33958  0.20939  Biso   1.000  O
  O709     1.0000 0.67292  0.36260  0.24907  Biso   1.000  O
  O710     1.0000 0.66075  0.40284  0.24779  Biso   1.000  O
  O711     1.0000 0.62316  0.44537  0.19641  Biso   1.000  O
  O712     1.0000 0.59956  0.43558  0.16299  Biso   1.000  O
  O713     1.0000 0.63832  0.40157  0.17440  Biso   1.000  O
  O714     1.0000 0.66934  0.38340  0.20276  Biso   1.000  O
  C1081    1.0000 0.64375  0.41657  0.11815  Biso   1.000  C
  C1082    1.0000 0.64944  0.43201  0.09619  Biso   1.000  C
  C1083    1.0000 0.63340  0.44567  0.08208  Biso   1.000  C
  H271     1.0000 0.61630  0.44660  0.08490  Biso   1.000  H
  C1084    1.0000 0.64616  0.45843  0.06235  Biso   1.000  C
  H272     1.0000 0.63830  0.46900  0.05110  Biso   1.000  H
  C1085    1.0000 0.67070  0.45354  0.06179  Biso   1.000  C
  C1086    1.0000 0.68997  0.46330  0.04429  Biso   1.000  C
  C1087    1.0000 0.70716  0.34391  0.18993  Biso   1.000  C
  C1088    1.0000 0.73054  0.32945  0.18673  Biso   1.000  C
  C1089    1.0000 0.73880  0.30944  0.19987  Biso   1.000  C
  H273     1.0000 0.73050  0.30270  0.21350  Biso   1.000  H
  C1090    1.0000 0.67295  0.38468  0.25655  Biso   1.000  C
  C1091    1.0000 0.68945  0.39101  0.27822  Biso   1.000  C
  C1092    1.0000 0.69296  0.41352  0.28857  Biso   1.000  C
  H274     1.0000 0.68410  0.42760  0.28400  Biso   1.000  H
  C1093    1.0000 0.60953  0.45064  0.17816  Biso   1.000  C
  C1094    1.0000 0.60529  0.47727  0.17279  Biso   1.000  C
  C1095    1.0000 0.59310  0.48680  0.15280  Biso   1.000  C
  H275     1.0000 0.58560  0.47710  0.14050  Biso   1.000  H
  O715     1.0000 0.68228  0.36107  0.12811  Biso   1.000  O
  S110     1.0000 0.73434  0.32120  0.09880  Biso   1.000  S
  C1096    1.0000 0.75630  0.36420  0.10330  Biso   1.000  C
  C1097    1.0000 0.71730  0.34610  0.10930  Biso   1.000  C
  C1098    1.0000 0.69110  0.34030  0.12210  Biso   1.000  C
  C1099    1.0000 0.73380  0.36790  0.10970  Biso   1.000  C
  C1100    1.0000 0.76060  0.33850  0.09480  Biso   1.000  C
  Zr111    1.0000 0.13783  0.90871  0.71244  Biso   1.000  Zr
  Zr112    1.0000 0.16721  0.87957  0.66122  Biso   1.000  Zr
  S111     1.0000 0.17951  0.93424  0.58554  Biso   1.000  S
  O716     1.0000 0.12120  0.91471  0.62457  Biso   1.000  O
  O717     1.0000 0.16232  0.90663  0.62884  Biso   1.000  O
  O718     1.0000 0.21193  0.95769  0.54951  Biso   1.000  O
  O719     1.0000 0.18260  0.97566  0.52587  Biso   1.000  O
  O720     1.0000 0.20215  0.85911  0.67285  Biso   1.000  O
  O721     1.0000 0.19451  0.83958  0.70939  Biso   1.000  O
  O722     1.0000 0.17292  0.86260  0.74907  Biso   1.000  O
  O723     1.0000 0.16075  0.90284  0.74779  Biso   1.000  O
  O724     1.0000 0.12316  0.94537  0.69641  Biso   1.000  O
  O725     1.0000 0.09956  0.93558  0.66299  Biso   1.000  O
  O726     1.0000 0.13832  0.90157  0.67440  Biso   1.000  O
  O727     1.0000 0.16934  0.88340  0.70276  Biso   1.000  O
  C1101    1.0000 0.14375  0.91657  0.61815  Biso   1.000  C
  C1102    1.0000 0.14944  0.93201  0.59619  Biso   1.000  C
  C1103    1.0000 0.13340  0.94567  0.58208  Biso   1.000  C
  H276     1.0000 0.11630  0.94660  0.58490  Biso   1.000  H
  C1104    1.0000 0.14616  0.95843  0.56235  Biso   1.000  C
  H277     1.0000 0.13830  0.96900  0.55110  Biso   1.000  H
  C1105    1.0000 0.17070  0.95354  0.56179  Biso   1.000  C
  C1106    1.0000 0.18997  0.96330  0.54429  Biso   1.000  C
  C1107    1.0000 0.20716  0.84391  0.68993  Biso   1.000  C
  C1108    1.0000 0.23054  0.82945  0.68673  Biso   1.000  C
  C1109    1.0000 0.23880  0.80944  0.69987  Biso   1.000  C
  H278     1.0000 0.23050  0.80270  0.71350  Biso   1.000  H
  C1110    1.0000 0.17295  0.88468  0.75655  Biso   1.000  C
  C1111    1.0000 0.18945  0.89101  0.77822  Biso   1.000  C
  C1112    1.0000 0.19296  0.91352  0.78857  Biso   1.000  C
  H279     1.0000 0.18410  0.92760  0.78400  Biso   1.000  H
  C1113    1.0000 0.10953  0.95064  0.67816  Biso   1.000  C
  C1114    1.0000 0.10529  0.97727  0.67279  Biso   1.000  C
  C1115    1.0000 0.09310  0.98680  0.65280  Biso   1.000  C
  H280     1.0000 0.08560  0.97710  0.64050  Biso   1.000  H
  O728     1.0000 0.18228  0.86107  0.62811  Biso   1.000  O
  S112     1.0000 0.23434  0.82120  0.59880  Biso   1.000  S
  C1116    1.0000 0.25630  0.86420  0.60330  Biso   1.000  C
  C1117    1.0000 0.21730  0.84610  0.60930  Biso   1.000  C
  C1118    1.0000 0.19110  0.84030  0.62210  Biso   1.000  C
  C1119    1.0000 0.23380  0.86790  0.60970  Biso   1.000  C
  C1120    1.0000 0.26060  0.83850  0.59480  Biso   1.000  C
  Zr113    1.0000 0.78756  0.63783  0.59129  Biso   1.000  Zr
  Zr114    1.0000 0.83878  0.66721  0.62043  Biso   1.000  Zr
  S113     1.0000 0.91446  0.67951  0.56576  Biso   1.000  S
  O729     1.0000 0.87543  0.62120  0.58529  Biso   1.000  O
  O730     1.0000 0.87116  0.66232  0.59337  Biso   1.000  O
  O731     1.0000 0.95049  0.71193  0.54231  Biso   1.000  O
  O732     1.0000 0.97413  0.68260  0.52434  Biso   1.000  O
  O733     1.0000 0.82715  0.70215  0.64089  Biso   1.000  O
  O734     1.0000 0.79061  0.69451  0.66042  Biso   1.000  O
  O735     1.0000 0.75093  0.67292  0.63740  Biso   1.000  O
  O736     1.0000 0.75221  0.66075  0.59716  Biso   1.000  O
  O737     1.0000 0.80359  0.62316  0.55463  Biso   1.000  O
  O738     1.0000 0.83701  0.59956  0.56442  Biso   1.000  O
  O739     1.0000 0.82560  0.63832  0.59843  Biso   1.000  O
  O740     1.0000 0.79724  0.66934  0.61660  Biso   1.000  O
  C1121    1.0000 0.88185  0.64375  0.58343  Biso   1.000  C
  C1122    1.0000 0.90381  0.64944  0.56799  Biso   1.000  C
  C1123    1.0000 0.91792  0.63340  0.55433  Biso   1.000  C
  H281     1.0000 0.91510  0.61630  0.55340  Biso   1.000  H
  C1124    1.0000 0.93765  0.64616  0.54157  Biso   1.000  C
  H282     1.0000 0.94890  0.63830  0.53100  Biso   1.000  H
  C1125    1.0000 0.93821  0.67070  0.54646  Biso   1.000  C
  C1126    1.0000 0.95571  0.68997  0.53670  Biso   1.000  C
  C1127    1.0000 0.81007  0.70716  0.65609  Biso   1.000  C
  C1128    1.0000 0.81327  0.73054  0.67055  Biso   1.000  C
  C1129    1.0000 0.80013  0.73880  0.69056  Biso   1.000  C
  H283     1.0000 0.78650  0.73050  0.69730  Biso   1.000  H
  C1130    1.0000 0.74345  0.67295  0.61532  Biso   1.000  C
  C1131    1.0000 0.72178  0.68945  0.60899  Biso   1.000  C
  C1132    1.0000 0.71143  0.69296  0.58648  Biso   1.000  C
  H284     1.0000 0.71600  0.68410  0.57240  Biso   1.000  H
  C1133    1.0000 0.82184  0.60953  0.54936  Biso   1.000  C
  C1134    1.0000 0.82721  0.60529  0.52273  Biso   1.000  C
  C1135    1.0000 0.84720  0.59310  0.51320  Biso   1.000  C
  H285     1.0000 0.85950  0.58560  0.52290  Biso   1.000  H
  O741     1.0000 0.87189  0.68228  0.63893  Biso   1.000  O
  S114     1.0000 0.90120  0.73434  0.67880  Biso   1.000  S
  C1136    1.0000 0.89670  0.75630  0.63580  Biso   1.000  C
  C1137    1.0000 0.89070  0.71730  0.65390  Biso   1.000  C
  C1138    1.0000 0.87790  0.69110  0.65970  Biso   1.000  C
  C1139    1.0000 0.89030  0.73380  0.63210  Biso   1.000  C
  C1140    1.0000 0.90520  0.76060  0.66150  Biso   1.000  C
  Zr115    1.0000 0.28756  0.13783  0.09129  Biso   1.000  Zr
  Zr116    1.0000 0.33878  0.16721  0.12043  Biso   1.000  Zr
  S115     1.0000 0.41446  0.17951  0.06576  Biso   1.000  S
  O742     1.0000 0.37543  0.12120  0.08529  Biso   1.000  O
  O743     1.0000 0.37116  0.16232  0.09337  Biso   1.000  O
  O744     1.0000 0.45049  0.21193  0.04231  Biso   1.000  O
  O745     1.0000 0.47413  0.18260  0.02434  Biso   1.000  O
  O746     1.0000 0.32715  0.20215  0.14089  Biso   1.000  O
  O747     1.0000 0.29061  0.19451  0.16042  Biso   1.000  O
  O748     1.0000 0.25093  0.17292  0.13740  Biso   1.000  O
  O749     1.0000 0.25221  0.16075  0.09716  Biso   1.000  O
  O750     1.0000 0.30359  0.12316  0.05463  Biso   1.000  O
  O751     1.0000 0.33701  0.09956  0.06442  Biso   1.000  O
  O752     1.0000 0.32560  0.13832  0.09843  Biso   1.000  O
  O753     1.0000 0.29724  0.16934  0.11660  Biso   1.000  O
  C1141    1.0000 0.38185  0.14375  0.08343  Biso   1.000  C
  C1142    1.0000 0.40381  0.14944  0.06799  Biso   1.000  C
  C1143    1.0000 0.41792  0.13340  0.05433  Biso   1.000  C
  H286     1.0000 0.41510  0.11630  0.05340  Biso   1.000  H
  C1144    1.0000 0.43765  0.14616  0.04157  Biso   1.000  C
  H287     1.0000 0.44890  0.13830  0.03100  Biso   1.000  H
  C1145    1.0000 0.43821  0.17070  0.04646  Biso   1.000  C
  C1146    1.0000 0.45571  0.18997  0.03670  Biso   1.000  C
  C1147    1.0000 0.31007  0.20716  0.15609  Biso   1.000  C
  C1148    1.0000 0.31327  0.23054  0.17055  Biso   1.000  C
  C1149    1.0000 0.30013  0.23880  0.19056  Biso   1.000  C
  H288     1.0000 0.28650  0.23050  0.19730  Biso   1.000  H
  C1150    1.0000 0.24345  0.17295  0.11532  Biso   1.000  C
  C1151    1.0000 0.22178  0.18945  0.10899  Biso   1.000  C
  C1152    1.0000 0.21143  0.19296  0.08648  Biso   1.000  C
  H289     1.0000 0.21600  0.18410  0.07240  Biso   1.000  H
  C1153    1.0000 0.32184  0.10953  0.04936  Biso   1.000  C
  C1154    1.0000 0.32721  0.10529  0.02273  Biso   1.000  C
  C1155    1.0000 0.34720  0.09310  0.01320  Biso   1.000  C
  H290     1.0000 0.35950  0.08560  0.02290  Biso   1.000  H
  O754     1.0000 0.37189  0.18228  0.13893  Biso   1.000  O
  S116     1.0000 0.40120  0.23434  0.17880  Biso   1.000  S
  C1156    1.0000 0.39670  0.25630  0.13580  Biso   1.000  C
  C1157    1.0000 0.39070  0.21730  0.15390  Biso   1.000  C
  C1158    1.0000 0.37790  0.19110  0.15970  Biso   1.000  C
  C1159    1.0000 0.39030  0.23380  0.13210  Biso   1.000  C
  C1160    1.0000 0.40520  0.26060  0.16150  Biso   1.000  C
  Zr117    1.0000 0.78756  0.36217  0.40871  Biso   1.000  Zr
  Zr118    1.0000 0.83878  0.33279  0.37957  Biso   1.000  Zr
  S117     1.0000 0.91446  0.32049  0.43424  Biso   1.000  S
  O755     1.0000 0.87543  0.37880  0.41471  Biso   1.000  O
  O756     1.0000 0.87116  0.33768  0.40663  Biso   1.000  O
  O757     1.0000 0.95049  0.28807  0.45769  Biso   1.000  O
  O758     1.0000 0.97413  0.31740  0.47566  Biso   1.000  O
  O759     1.0000 0.82715  0.29785  0.35911  Biso   1.000  O
  O760     1.0000 0.79061  0.30549  0.33958  Biso   1.000  O
  O761     1.0000 0.75093  0.32708  0.36260  Biso   1.000  O
  O762     1.0000 0.75221  0.33925  0.40284  Biso   1.000  O
  O763     1.0000 0.80359  0.37684  0.44537  Biso   1.000  O
  O764     1.0000 0.83701  0.40044  0.43558  Biso   1.000  O
  O765     1.0000 0.82560  0.36168  0.40157  Biso   1.000  O
  O766     1.0000 0.79724  0.33066  0.38340  Biso   1.000  O
  C1161    1.0000 0.88185  0.35625  0.41657  Biso   1.000  C
  C1162    1.0000 0.90381  0.35056  0.43201  Biso   1.000  C
  C1163    1.0000 0.91792  0.36660  0.44567  Biso   1.000  C
  H291     1.0000 0.91510  0.38370  0.44660  Biso   1.000  H
  C1164    1.0000 0.93765  0.35384  0.45843  Biso   1.000  C
  H292     1.0000 0.94890  0.36170  0.46900  Biso   1.000  H
  C1165    1.0000 0.93821  0.32930  0.45354  Biso   1.000  C
  C1166    1.0000 0.95571  0.31003  0.46330  Biso   1.000  C
  C1167    1.0000 0.81007  0.29284  0.34391  Biso   1.000  C
  C1168    1.0000 0.81327  0.26946  0.32945  Biso   1.000  C
  C1169    1.0000 0.80013  0.26120  0.30944  Biso   1.000  C
  H293     1.0000 0.78650  0.26950  0.30270  Biso   1.000  H
  C1170    1.0000 0.74345  0.32705  0.38468  Biso   1.000  C
  C1171    1.0000 0.72178  0.31055  0.39101  Biso   1.000  C
  C1172    1.0000 0.71143  0.30704  0.41352  Biso   1.000  C
  H294     1.0000 0.71600  0.31590  0.42760  Biso   1.000  H
  C1173    1.0000 0.82184  0.39047  0.45064  Biso   1.000  C
  C1174    1.0000 0.82721  0.39471  0.47727  Biso   1.000  C
  C1175    1.0000 0.84720  0.40690  0.48680  Biso   1.000  C
  H295     1.0000 0.85950  0.41440  0.47710  Biso   1.000  H
  O767     1.0000 0.87189  0.31772  0.36107  Biso   1.000  O
  S118     1.0000 0.90120  0.26566  0.32120  Biso   1.000  S
  C1176    1.0000 0.89670  0.24370  0.36420  Biso   1.000  C
  C1177    1.0000 0.89070  0.28270  0.34610  Biso   1.000  C
  C1178    1.0000 0.87790  0.30890  0.34030  Biso   1.000  C
  C1179    1.0000 0.89030  0.26620  0.36790  Biso   1.000  C
  C1180    1.0000 0.90520  0.23940  0.33850  Biso   1.000  C
  Zr119    1.0000 0.28756  0.86217  0.90871  Biso   1.000  Zr
  Zr120    1.0000 0.33878  0.83279  0.87957  Biso   1.000  Zr
  S119     1.0000 0.41446  0.82049  0.93424  Biso   1.000  S
  O768     1.0000 0.37543  0.87880  0.91471  Biso   1.000  O
  O769     1.0000 0.37116  0.83768  0.90663  Biso   1.000  O
  O770     1.0000 0.45049  0.78807  0.95769  Biso   1.000  O
  O771     1.0000 0.47413  0.81740  0.97566  Biso   1.000  O
  O772     1.0000 0.32715  0.79785  0.85911  Biso   1.000  O
  O773     1.0000 0.29061  0.80549  0.83958  Biso   1.000  O
  O774     1.0000 0.25093  0.82708  0.86260  Biso   1.000  O
  O775     1.0000 0.25221  0.83925  0.90284  Biso   1.000  O
  O776     1.0000 0.30359  0.87684  0.94537  Biso   1.000  O
  O777     1.0000 0.33701  0.90044  0.93558  Biso   1.000  O
  O778     1.0000 0.32560  0.86168  0.90157  Biso   1.000  O
  O779     1.0000 0.29724  0.83066  0.88340  Biso   1.000  O
  C1181    1.0000 0.38185  0.85625  0.91657  Biso   1.000  C
  C1182    1.0000 0.40381  0.85056  0.93201  Biso   1.000  C
  C1183    1.0000 0.41792  0.86660  0.94567  Biso   1.000  C
  H296     1.0000 0.41510  0.88370  0.94660  Biso   1.000  H
  C1184    1.0000 0.43765  0.85384  0.95843  Biso   1.000  C
  H297     1.0000 0.44890  0.86170  0.96900  Biso   1.000  H
  C1185    1.0000 0.43821  0.82930  0.95354  Biso   1.000  C
  C1186    1.0000 0.45571  0.81003  0.96330  Biso   1.000  C
  C1187    1.0000 0.31007  0.79284  0.84391  Biso   1.000  C
  C1188    1.0000 0.31327  0.76946  0.82945  Biso   1.000  C
  C1189    1.0000 0.30013  0.76120  0.80944  Biso   1.000  C
  H298     1.0000 0.28650  0.76950  0.80270  Biso   1.000  H
  C1190    1.0000 0.24345  0.82705  0.88468  Biso   1.000  C
  C1191    1.0000 0.22178  0.81055  0.89101  Biso   1.000  C
  C1192    1.0000 0.21143  0.80704  0.91352  Biso   1.000  C
  H299     1.0000 0.21600  0.81590  0.92760  Biso   1.000  H
  C1193    1.0000 0.32184  0.89047  0.95064  Biso   1.000  C
  C1194    1.0000 0.32721  0.89471  0.97727  Biso   1.000  C
  C1195    1.0000 0.34720  0.90690  0.98680  Biso   1.000  C
  H300     1.0000 0.35950  0.91440  0.97710  Biso   1.000  H
  O780     1.0000 0.37189  0.81772  0.86107  Biso   1.000  O
  S120     1.0000 0.40120  0.76566  0.82120  Biso   1.000  S
  C1196    1.0000 0.39670  0.74370  0.86420  Biso   1.000  C
  C1197    1.0000 0.39070  0.78270  0.84610  Biso   1.000  C
  C1198    1.0000 0.37790  0.80890  0.84030  Biso   1.000  C
  C1199    1.0000 0.39030  0.76620  0.86790  Biso   1.000  C
  C1200    1.0000 0.40520  0.73940  0.83850  Biso   1.000  C
  Zr121    1.0000 0.21244  0.36217  0.59129  Biso   1.000  Zr
  Zr122    1.0000 0.16122  0.33279  0.62043  Biso   1.000  Zr
  S121     1.0000 0.08554  0.32049  0.56576  Biso   1.000  S
  O781     1.0000 0.12457  0.37880  0.58529  Biso   1.000  O
  O782     1.0000 0.12884  0.33768  0.59337  Biso   1.000  O
  O783     1.0000 0.04951  0.28807  0.54231  Biso   1.000  O
  O784     1.0000 0.02587  0.31740  0.52434  Biso   1.000  O
  O785     1.0000 0.17285  0.29785  0.64089  Biso   1.000  O
  O786     1.0000 0.20939  0.30549  0.66042  Biso   1.000  O
  O787     1.0000 0.24907  0.32708  0.63740  Biso   1.000  O
  O788     1.0000 0.24779  0.33925  0.59716  Biso   1.000  O
  O789     1.0000 0.19641  0.37684  0.55463  Biso   1.000  O
  O790     1.0000 0.16299  0.40044  0.56442  Biso   1.000  O
  O791     1.0000 0.17440  0.36168  0.59843  Biso   1.000  O
  O792     1.0000 0.20276  0.33066  0.61660  Biso   1.000  O
  C1201    1.0000 0.11815  0.35625  0.58343  Biso   1.000  C
  C1202    1.0000 0.09619  0.35056  0.56799  Biso   1.000  C
  C1203    1.0000 0.08208  0.36660  0.55433  Biso   1.000  C
  H301     1.0000 0.08490  0.38370  0.55340  Biso   1.000  H
  C1204    1.0000 0.06235  0.35384  0.54157  Biso   1.000  C
  H302     1.0000 0.05110  0.36170  0.53100  Biso   1.000  H
  C1205    1.0000 0.06179  0.32930  0.54646  Biso   1.000  C
  C1206    1.0000 0.04429  0.31003  0.53670  Biso   1.000  C
  C1207    1.0000 0.18993  0.29284  0.65609  Biso   1.000  C
  C1208    1.0000 0.18673  0.26946  0.67055  Biso   1.000  C
  C1209    1.0000 0.19987  0.26120  0.69056  Biso   1.000  C
  H303     1.0000 0.21350  0.26950  0.69730  Biso   1.000  H
  C1210    1.0000 0.25655  0.32705  0.61532  Biso   1.000  C
  C1211    1.0000 0.27822  0.31055  0.60899  Biso   1.000  C
  C1212    1.0000 0.28857  0.30704  0.58648  Biso   1.000  C
  H304     1.0000 0.28400  0.31590  0.57240  Biso   1.000  H
  C1213    1.0000 0.17816  0.39047  0.54936  Biso   1.000  C
  C1214    1.0000 0.17279  0.39471  0.52273  Biso   1.000  C
  C1215    1.0000 0.15280  0.40690  0.51320  Biso   1.000  C
  H305     1.0000 0.14050  0.41440  0.52290  Biso   1.000  H
  O793     1.0000 0.12811  0.31772  0.63893  Biso   1.000  O
  S122     1.0000 0.09880  0.26566  0.67880  Biso   1.000  S
  C1216    1.0000 0.10330  0.24370  0.63580  Biso   1.000  C
  C1217    1.0000 0.10930  0.28270  0.65390  Biso   1.000  C
  C1218    1.0000 0.12210  0.30890  0.65970  Biso   1.000  C
  C1219    1.0000 0.10970  0.26620  0.63210  Biso   1.000  C
  C1220    1.0000 0.09480  0.23940  0.66150  Biso   1.000  C
  Zr123    1.0000 0.71244  0.86217  0.09129  Biso   1.000  Zr
  Zr124    1.0000 0.66122  0.83279  0.12043  Biso   1.000  Zr
  S123     1.0000 0.58554  0.82049  0.06576  Biso   1.000  S
  O794     1.0000 0.62457  0.87880  0.08529  Biso   1.000  O
  O795     1.0000 0.62884  0.83768  0.09337  Biso   1.000  O
  O796     1.0000 0.54951  0.78807  0.04231  Biso   1.000  O
  O797     1.0000 0.52587  0.81740  0.02434  Biso   1.000  O
  O798     1.0000 0.67285  0.79785  0.14089  Biso   1.000  O
  O799     1.0000 0.70939  0.80549  0.16042  Biso   1.000  O
  O800     1.0000 0.74907  0.82708  0.13740  Biso   1.000  O
  O801     1.0000 0.74779  0.83925  0.09716  Biso   1.000  O
  O802     1.0000 0.69641  0.87684  0.05463  Biso   1.000  O
  O803     1.0000 0.66299  0.90044  0.06442  Biso   1.000  O
  O804     1.0000 0.67440  0.86168  0.09843  Biso   1.000  O
  O805     1.0000 0.70276  0.83066  0.11660  Biso   1.000  O
  C1221    1.0000 0.61815  0.85625  0.08343  Biso   1.000  C
  C1222    1.0000 0.59619  0.85056  0.06799  Biso   1.000  C
  C1223    1.0000 0.58208  0.86660  0.05433  Biso   1.000  C
  H306     1.0000 0.58490  0.88370  0.05340  Biso   1.000  H
  C1224    1.0000 0.56235  0.85384  0.04157  Biso   1.000  C
  H307     1.0000 0.55110  0.86170  0.03100  Biso   1.000  H
  C1225    1.0000 0.56179  0.82930  0.04646  Biso   1.000  C
  C1226    1.0000 0.54429  0.81003  0.03670  Biso   1.000  C
  C1227    1.0000 0.68993  0.79284  0.15609  Biso   1.000  C
  C1228    1.0000 0.68673  0.76946  0.17055  Biso   1.000  C
  C1229    1.0000 0.69987  0.76120  0.19056  Biso   1.000  C
  H308     1.0000 0.71350  0.76950  0.19730  Biso   1.000  H
  C1230    1.0000 0.75655  0.82705  0.11532  Biso   1.000  C
  C1231    1.0000 0.77822  0.81055  0.10899  Biso   1.000  C
  C1232    1.0000 0.78857  0.80704  0.08648  Biso   1.000  C
  H309     1.0000 0.78400  0.81590  0.07240  Biso   1.000  H
  C1233    1.0000 0.67816  0.89047  0.04936  Biso   1.000  C
  C1234    1.0000 0.67279  0.89471  0.02273  Biso   1.000  C
  C1235    1.0000 0.65280  0.90690  0.01320  Biso   1.000  C
  H310     1.0000 0.64050  0.91440  0.02290  Biso   1.000  H
  O806     1.0000 0.62811  0.81772  0.13893  Biso   1.000  O
  S124     1.0000 0.59880  0.76566  0.17880  Biso   1.000  S
  C1236    1.0000 0.60330  0.74370  0.13580  Biso   1.000  C
  C1237    1.0000 0.60930  0.78270  0.15390  Biso   1.000  C
  C1238    1.0000 0.62210  0.80890  0.15970  Biso   1.000  C
  C1239    1.0000 0.60970  0.76620  0.13210  Biso   1.000  C
  C1240    1.0000 0.59480  0.73940  0.16150  Biso   1.000  C
  Zr125    1.0000 0.21244  0.63783  0.40871  Biso   1.000  Zr
  Zr126    1.0000 0.16122  0.66721  0.37957  Biso   1.000  Zr
  S125     1.0000 0.08554  0.67951  0.43424  Biso   1.000  S
  O807     1.0000 0.12457  0.62120  0.41471  Biso   1.000  O
  O808     1.0000 0.12884  0.66232  0.40663  Biso   1.000  O
  O809     1.0000 0.04951  0.71193  0.45769  Biso   1.000  O
  O810     1.0000 0.02587  0.68260  0.47566  Biso   1.000  O
  O811     1.0000 0.17285  0.70215  0.35911  Biso   1.000  O
  O812     1.0000 0.20939  0.69451  0.33958  Biso   1.000  O
  O813     1.0000 0.24907  0.67292  0.36260  Biso   1.000  O
  O814     1.0000 0.24779  0.66075  0.40284  Biso   1.000  O
  O815     1.0000 0.19641  0.62316  0.44537  Biso   1.000  O
  O816     1.0000 0.16299  0.59956  0.43558  Biso   1.000  O
  O817     1.0000 0.17440  0.63832  0.40157  Biso   1.000  O
  O818     1.0000 0.20276  0.66934  0.38340  Biso   1.000  O
  C1241    1.0000 0.11815  0.64375  0.41657  Biso   1.000  C
  C1242    1.0000 0.09619  0.64944  0.43201  Biso   1.000  C
  C1243    1.0000 0.08208  0.63340  0.44567  Biso   1.000  C
  H311     1.0000 0.08490  0.61630  0.44660  Biso   1.000  H
  C1244    1.0000 0.06235  0.64616  0.45843  Biso   1.000  C
  H312     1.0000 0.05110  0.63830  0.46900  Biso   1.000  H
  C1245    1.0000 0.06179  0.67070  0.45354  Biso   1.000  C
  C1246    1.0000 0.04429  0.68997  0.46330  Biso   1.000  C
  C1247    1.0000 0.18993  0.70716  0.34391  Biso   1.000  C
  C1248    1.0000 0.18673  0.73054  0.32945  Biso   1.000  C
  C1249    1.0000 0.19987  0.73880  0.30944  Biso   1.000  C
  H313     1.0000 0.21350  0.73050  0.30270  Biso   1.000  H
  C1250    1.0000 0.25655  0.67295  0.38468  Biso   1.000  C
  C1251    1.0000 0.27822  0.68945  0.39101  Biso   1.000  C
  C1252    1.0000 0.28857  0.69296  0.41352  Biso   1.000  C
  H314     1.0000 0.28400  0.68410  0.42760  Biso   1.000  H
  C1253    1.0000 0.17816  0.60953  0.45064  Biso   1.000  C
  C1254    1.0000 0.17279  0.60529  0.47727  Biso   1.000  C
  C1255    1.0000 0.15280  0.59310  0.48680  Biso   1.000  C
  H315     1.0000 0.14050  0.58560  0.47710  Biso   1.000  H
  O819     1.0000 0.12811  0.68228  0.36107  Biso   1.000  O
  S126     1.0000 0.09880  0.73434  0.32120  Biso   1.000  S
  C1256    1.0000 0.10330  0.75630  0.36420  Biso   1.000  C
  C1257    1.0000 0.10930  0.71730  0.34610  Biso   1.000  C
  C1258    1.0000 0.12210  0.69110  0.34030  Biso   1.000  C
  C1259    1.0000 0.10970  0.73380  0.36790  Biso   1.000  C
  C1260    1.0000 0.09480  0.76060  0.33850  Biso   1.000  C
  Zr127    1.0000 0.71244  0.13783  0.90871  Biso   1.000  Zr
  Zr128    1.0000 0.66122  0.16721  0.87957  Biso   1.000  Zr
  S127     1.0000 0.58554  0.17951  0.93424  Biso   1.000  S
  O820     1.0000 0.62457  0.12120  0.91471  Biso   1.000  O
  O821     1.0000 0.62884  0.16232  0.90663  Biso   1.000  O
  O822     1.0000 0.54951  0.21193  0.95769  Biso   1.000  O
  O823     1.0000 0.52587  0.18260  0.97566  Biso   1.000  O
  O824     1.0000 0.67285  0.20215  0.85911  Biso   1.000  O
  O825     1.0000 0.70939  0.19451  0.83958  Biso   1.000  O
  O826     1.0000 0.74907  0.17292  0.86260  Biso   1.000  O
  O827     1.0000 0.74779  0.16075  0.90284  Biso   1.000  O
  O828     1.0000 0.69641  0.12316  0.94537  Biso   1.000  O
  O829     1.0000 0.66299  0.09956  0.93558  Biso   1.000  O
  O830     1.0000 0.67440  0.13832  0.90157  Biso   1.000  O
  O831     1.0000 0.70276  0.16934  0.88340  Biso   1.000  O
  C1261    1.0000 0.61815  0.14375  0.91657  Biso   1.000  C
  C1262    1.0000 0.59619  0.14944  0.93201  Biso   1.000  C
  C1263    1.0000 0.58208  0.13340  0.94567  Biso   1.000  C
  H316     1.0000 0.58490  0.11630  0.94660  Biso   1.000  H
  C1264    1.0000 0.56235  0.14616  0.95843  Biso   1.000  C
  H317     1.0000 0.55110  0.13830  0.96900  Biso   1.000  H
  C1265    1.0000 0.56179  0.17070  0.95354  Biso   1.000  C
  C1266    1.0000 0.54429  0.18997  0.96330  Biso   1.000  C
  C1267    1.0000 0.68993  0.20716  0.84391  Biso   1.000  C
  C1268    1.0000 0.68673  0.23054  0.82945  Biso   1.000  C
  C1269    1.0000 0.69987  0.23880  0.80944  Biso   1.000  C
  H318     1.0000 0.71350  0.23050  0.80270  Biso   1.000  H
  C1270    1.0000 0.75655  0.17295  0.88468  Biso   1.000  C
  C1271    1.0000 0.77822  0.18945  0.89101  Biso   1.000  C
  C1272    1.0000 0.78857  0.19296  0.91352  Biso   1.000  C
  H319     1.0000 0.78400  0.18410  0.92760  Biso   1.000  H
  C1273    1.0000 0.67816  0.10953  0.95064  Biso   1.000  C
  C1274    1.0000 0.67279  0.10529  0.97727  Biso   1.000  C
  C1275    1.0000 0.65280  0.09310  0.98680  Biso   1.000  C
  H320     1.0000 0.64050  0.08560  0.97710  Biso   1.000  H
  O832     1.0000 0.62811  0.18228  0.86107  Biso   1.000  O
  S128     1.0000 0.59880  0.23434  0.82120  Biso   1.000  S
  C1276    1.0000 0.60330  0.25630  0.86420  Biso   1.000  C
  C1277    1.0000 0.60930  0.21730  0.84610  Biso   1.000  C
  C1278    1.0000 0.62210  0.19110  0.84030  Biso   1.000  C
  C1279    1.0000 0.60970  0.23380  0.86790  Biso   1.000  C
  C1280    1.0000 0.59480  0.26060  0.83850  Biso   1.000  C
  Zr129    1.0000 0.59129  0.78756  0.63783  Biso   1.000  Zr
  Zr130    1.0000 0.62043  0.83878  0.66721  Biso   1.000  Zr
  S129     1.0000 0.56576  0.91446  0.67951  Biso   1.000  S
  O833     1.0000 0.58529  0.87543  0.62120  Biso   1.000  O
  O834     1.0000 0.59337  0.87116  0.66232  Biso   1.000  O
  O835     1.0000 0.54231  0.95049  0.71193  Biso   1.000  O
  O836     1.0000 0.52434  0.97413  0.68260  Biso   1.000  O
  O837     1.0000 0.64089  0.82715  0.70215  Biso   1.000  O
  O838     1.0000 0.66042  0.79061  0.69451  Biso   1.000  O
  O839     1.0000 0.63740  0.75093  0.67292  Biso   1.000  O
  O840     1.0000 0.59716  0.75221  0.66075  Biso   1.000  O
  O841     1.0000 0.55463  0.80359  0.62316  Biso   1.000  O
  O842     1.0000 0.56442  0.83701  0.59956  Biso   1.000  O
  O843     1.0000 0.59843  0.82560  0.63832  Biso   1.000  O
  O844     1.0000 0.61660  0.79724  0.66934  Biso   1.000  O
  C1281    1.0000 0.58343  0.88185  0.64375  Biso   1.000  C
  C1282    1.0000 0.56799  0.90381  0.64944  Biso   1.000  C
  C1283    1.0000 0.55433  0.91792  0.63340  Biso   1.000  C
  H321     1.0000 0.55340  0.91510  0.61630  Biso   1.000  H
  C1284    1.0000 0.54157  0.93765  0.64616  Biso   1.000  C
  H322     1.0000 0.53100  0.94890  0.63830  Biso   1.000  H
  C1285    1.0000 0.54646  0.93821  0.67070  Biso   1.000  C
  C1286    1.0000 0.53670  0.95571  0.68997  Biso   1.000  C
  C1287    1.0000 0.65609  0.81007  0.70716  Biso   1.000  C
  C1288    1.0000 0.67055  0.81327  0.73054  Biso   1.000  C
  C1289    1.0000 0.69056  0.80013  0.73880  Biso   1.000  C
  H323     1.0000 0.69730  0.78650  0.73050  Biso   1.000  H
  C1290    1.0000 0.61532  0.74345  0.67295  Biso   1.000  C
  C1291    1.0000 0.60899  0.72178  0.68945  Biso   1.000  C
  C1292    1.0000 0.58648  0.71143  0.69296  Biso   1.000  C
  H324     1.0000 0.57240  0.71600  0.68410  Biso   1.000  H
  C1293    1.0000 0.54936  0.82184  0.60953  Biso   1.000  C
  C1294    1.0000 0.52273  0.82721  0.60529  Biso   1.000  C
  C1295    1.0000 0.51320  0.84720  0.59310  Biso   1.000  C
  H325     1.0000 0.52290  0.85950  0.58560  Biso   1.000  H
  O845     1.0000 0.63893  0.87189  0.68228  Biso   1.000  O
  S130     1.0000 0.67880  0.90120  0.73434  Biso   1.000  S
  C1296    1.0000 0.63580  0.89670  0.75630  Biso   1.000  C
  C1297    1.0000 0.65390  0.89070  0.71730  Biso   1.000  C
  C1298    1.0000 0.65970  0.87790  0.69110  Biso   1.000  C
  C1299    1.0000 0.63210  0.89030  0.73380  Biso   1.000  C
  C1300    1.0000 0.66150  0.90520  0.76060  Biso   1.000  C
  Zr131    1.0000 0.09129  0.28756  0.13783  Biso   1.000  Zr
  Zr132    1.0000 0.12043  0.33878  0.16721  Biso   1.000  Zr
  S131     1.0000 0.06576  0.41446  0.17951  Biso   1.000  S
  O846     1.0000 0.08529  0.37543  0.12120  Biso   1.000  O
  O847     1.0000 0.09337  0.37116  0.16232  Biso   1.000  O
  O848     1.0000 0.04231  0.45049  0.21193  Biso   1.000  O
  O849     1.0000 0.02434  0.47413  0.18260  Biso   1.000  O
  O850     1.0000 0.14089  0.32715  0.20215  Biso   1.000  O
  O851     1.0000 0.16042  0.29061  0.19451  Biso   1.000  O
  O852     1.0000 0.13740  0.25093  0.17292  Biso   1.000  O
  O853     1.0000 0.09716  0.25221  0.16075  Biso   1.000  O
  O854     1.0000 0.05463  0.30359  0.12316  Biso   1.000  O
  O855     1.0000 0.06442  0.33701  0.09956  Biso   1.000  O
  O856     1.0000 0.09843  0.32560  0.13832  Biso   1.000  O
  O857     1.0000 0.11660  0.29724  0.16934  Biso   1.000  O
  C1301    1.0000 0.08343  0.38185  0.14375  Biso   1.000  C
  C1302    1.0000 0.06799  0.40381  0.14944  Biso   1.000  C
  C1303    1.0000 0.05433  0.41792  0.13340  Biso   1.000  C
  H326     1.0000 0.05340  0.41510  0.11630  Biso   1.000  H
  C1304    1.0000 0.04157  0.43765  0.14616  Biso   1.000  C
  H327     1.0000 0.03100  0.44890  0.13830  Biso   1.000  H
  C1305    1.0000 0.04646  0.43821  0.17070  Biso   1.000  C
  C1306    1.0000 0.03670  0.45571  0.18997  Biso   1.000  C
  C1307    1.0000 0.15609  0.31007  0.20716  Biso   1.000  C
  C1308    1.0000 0.17055  0.31327  0.23054  Biso   1.000  C
  C1309    1.0000 0.19056  0.30013  0.23880  Biso   1.000  C
  H328     1.0000 0.19730  0.28650  0.23050  Biso   1.000  H
  C1310    1.0000 0.11532  0.24345  0.17295  Biso   1.000  C
  C1311    1.0000 0.10899  0.22178  0.18945  Biso   1.000  C
  C1312    1.0000 0.08648  0.21143  0.19296  Biso   1.000  C
  H329     1.0000 0.07240  0.21600  0.18410  Biso   1.000  H
  C1313    1.0000 0.04936  0.32184  0.10953  Biso   1.000  C
  C1314    1.0000 0.02273  0.32721  0.10529  Biso   1.000  C
  C1315    1.0000 0.01320  0.34720  0.09310  Biso   1.000  C
  H330     1.0000 0.02290  0.35950  0.08560  Biso   1.000  H
  O858     1.0000 0.13893  0.37189  0.18228  Biso   1.000  O
  S132     1.0000 0.17880  0.40120  0.23434  Biso   1.000  S
  C1316    1.0000 0.13580  0.39670  0.25630  Biso   1.000  C
  C1317    1.0000 0.15390  0.39070  0.21730  Biso   1.000  C
  C1318    1.0000 0.15970  0.37790  0.19110  Biso   1.000  C
  C1319    1.0000 0.13210  0.39030  0.23380  Biso   1.000  C
  C1320    1.0000 0.16150  0.40520  0.26060  Biso   1.000  C
  Zr133    1.0000 0.40871  0.78756  0.36217  Biso   1.000  Zr
  Zr134    1.0000 0.37957  0.83878  0.33279  Biso   1.000  Zr
  S133     1.0000 0.43424  0.91446  0.32049  Biso   1.000  S
  O859     1.0000 0.41471  0.87543  0.37880  Biso   1.000  O
  O860     1.0000 0.40663  0.87116  0.33768  Biso   1.000  O
  O861     1.0000 0.45769  0.95049  0.28807  Biso   1.000  O
  O862     1.0000 0.47566  0.97413  0.31740  Biso   1.000  O
  O863     1.0000 0.35911  0.82715  0.29785  Biso   1.000  O
  O864     1.0000 0.33958  0.79061  0.30549  Biso   1.000  O
  O865     1.0000 0.36260  0.75093  0.32708  Biso   1.000  O
  O866     1.0000 0.40284  0.75221  0.33925  Biso   1.000  O
  O867     1.0000 0.44537  0.80359  0.37684  Biso   1.000  O
  O868     1.0000 0.43558  0.83701  0.40044  Biso   1.000  O
  O869     1.0000 0.40157  0.82560  0.36168  Biso   1.000  O
  O870     1.0000 0.38340  0.79724  0.33066  Biso   1.000  O
  C1321    1.0000 0.41657  0.88185  0.35625  Biso   1.000  C
  C1322    1.0000 0.43201  0.90381  0.35056  Biso   1.000  C
  C1323    1.0000 0.44567  0.91792  0.36660  Biso   1.000  C
  H331     1.0000 0.44660  0.91510  0.38370  Biso   1.000  H
  C1324    1.0000 0.45843  0.93765  0.35384  Biso   1.000  C
  H332     1.0000 0.46900  0.94890  0.36170  Biso   1.000  H
  C1325    1.0000 0.45354  0.93821  0.32930  Biso   1.000  C
  C1326    1.0000 0.46330  0.95571  0.31003  Biso   1.000  C
  C1327    1.0000 0.34391  0.81007  0.29284  Biso   1.000  C
  C1328    1.0000 0.32945  0.81327  0.26946  Biso   1.000  C
  C1329    1.0000 0.30944  0.80013  0.26120  Biso   1.000  C
  H333     1.0000 0.30270  0.78650  0.26950  Biso   1.000  H
  C1330    1.0000 0.38468  0.74345  0.32705  Biso   1.000  C
  C1331    1.0000 0.39101  0.72178  0.31055  Biso   1.000  C
  C1332    1.0000 0.41352  0.71143  0.30704  Biso   1.000  C
  H334     1.0000 0.42760  0.71600  0.31590  Biso   1.000  H
  C1333    1.0000 0.45064  0.82184  0.39047  Biso   1.000  C
  C1334    1.0000 0.47727  0.82721  0.39471  Biso   1.000  C
  C1335    1.0000 0.48680  0.84720  0.40690  Biso   1.000  C
  H335     1.0000 0.47710  0.85950  0.41440  Biso   1.000  H
  O871     1.0000 0.36107  0.87189  0.31772  Biso   1.000  O
  S134     1.0000 0.32120  0.90120  0.26566  Biso   1.000  S
  C1336    1.0000 0.36420  0.89670  0.24370  Biso   1.000  C
  C1337    1.0000 0.34610  0.89070  0.28270  Biso   1.000  C
  C1338    1.0000 0.34030  0.87790  0.30890  Biso   1.000  C
  C1339    1.0000 0.36790  0.89030  0.26620  Biso   1.000  C
  C1340    1.0000 0.33850  0.90520  0.23940  Biso   1.000  C
  Zr135    1.0000 0.90871  0.28756  0.86217  Biso   1.000  Zr
  Zr136    1.0000 0.87957  0.33878  0.83279  Biso   1.000  Zr
  S135     1.0000 0.93424  0.41446  0.82049  Biso   1.000  S
  O872     1.0000 0.91471  0.37543  0.87880  Biso   1.000  O
  O873     1.0000 0.90663  0.37116  0.83768  Biso   1.000  O
  O874     1.0000 0.95769  0.45049  0.78807  Biso   1.000  O
  O875     1.0000 0.97566  0.47413  0.81740  Biso   1.000  O
  O876     1.0000 0.85911  0.32715  0.79785  Biso   1.000  O
  O877     1.0000 0.83958  0.29061  0.80549  Biso   1.000  O
  O878     1.0000 0.86260  0.25093  0.82708  Biso   1.000  O
  O879     1.0000 0.90284  0.25221  0.83925  Biso   1.000  O
  O880     1.0000 0.94537  0.30359  0.87684  Biso   1.000  O
  O881     1.0000 0.93558  0.33701  0.90044  Biso   1.000  O
  O882     1.0000 0.90157  0.32560  0.86168  Biso   1.000  O
  O883     1.0000 0.88340  0.29724  0.83066  Biso   1.000  O
  C1341    1.0000 0.91657  0.38185  0.85625  Biso   1.000  C
  C1342    1.0000 0.93201  0.40381  0.85056  Biso   1.000  C
  C1343    1.0000 0.94567  0.41792  0.86660  Biso   1.000  C
  H336     1.0000 0.94660  0.41510  0.88370  Biso   1.000  H
  C1344    1.0000 0.95843  0.43765  0.85384  Biso   1.000  C
  H337     1.0000 0.96900  0.44890  0.86170  Biso   1.000  H
  C1345    1.0000 0.95354  0.43821  0.82930  Biso   1.000  C
  C1346    1.0000 0.96330  0.45571  0.81003  Biso   1.000  C
  C1347    1.0000 0.84391  0.31007  0.79284  Biso   1.000  C
  C1348    1.0000 0.82945  0.31327  0.76946  Biso   1.000  C
  C1349    1.0000 0.80944  0.30013  0.76120  Biso   1.000  C
  H338     1.0000 0.80270  0.28650  0.76950  Biso   1.000  H
  C1350    1.0000 0.88468  0.24345  0.82705  Biso   1.000  C
  C1351    1.0000 0.89101  0.22178  0.81055  Biso   1.000  C
  C1352    1.0000 0.91352  0.21143  0.80704  Biso   1.000  C
  H339     1.0000 0.92760  0.21600  0.81590  Biso   1.000  H
  C1353    1.0000 0.95064  0.32184  0.89047  Biso   1.000  C
  C1354    1.0000 0.97727  0.32721  0.89471  Biso   1.000  C
  C1355    1.0000 0.98680  0.34720  0.90690  Biso   1.000  C
  H340     1.0000 0.97710  0.35950  0.91440  Biso   1.000  H
  O884     1.0000 0.86107  0.37189  0.81772  Biso   1.000  O
  S136     1.0000 0.82120  0.40120  0.76566  Biso   1.000  S
  C1356    1.0000 0.86420  0.39670  0.74370  Biso   1.000  C
  C1357    1.0000 0.84610  0.39070  0.78270  Biso   1.000  C
  C1358    1.0000 0.84030  0.37790  0.80890  Biso   1.000  C
  C1359    1.0000 0.86790  0.39030  0.76620  Biso   1.000  C
  C1360    1.0000 0.83850  0.40520  0.73940  Biso   1.000  C
  Zr137    1.0000 0.59129  0.21244  0.36217  Biso   1.000  Zr
  Zr138    1.0000 0.62043  0.16122  0.33279  Biso   1.000  Zr
  S137     1.0000 0.56576  0.08554  0.32049  Biso   1.000  S
  O885     1.0000 0.58529  0.12457  0.37880  Biso   1.000  O
  O886     1.0000 0.59337  0.12884  0.33768  Biso   1.000  O
  O887     1.0000 0.54231  0.04951  0.28807  Biso   1.000  O
  O888     1.0000 0.52434  0.02587  0.31740  Biso   1.000  O
  O889     1.0000 0.64089  0.17285  0.29785  Biso   1.000  O
  O890     1.0000 0.66042  0.20939  0.30549  Biso   1.000  O
  O891     1.0000 0.63740  0.24907  0.32708  Biso   1.000  O
  O892     1.0000 0.59716  0.24779  0.33925  Biso   1.000  O
  O893     1.0000 0.55463  0.19641  0.37684  Biso   1.000  O
  O894     1.0000 0.56442  0.16299  0.40044  Biso   1.000  O
  O895     1.0000 0.59843  0.17440  0.36168  Biso   1.000  O
  O896     1.0000 0.61660  0.20276  0.33066  Biso   1.000  O
  C1361    1.0000 0.58343  0.11815  0.35625  Biso   1.000  C
  C1362    1.0000 0.56799  0.09619  0.35056  Biso   1.000  C
  C1363    1.0000 0.55433  0.08208  0.36660  Biso   1.000  C
  H341     1.0000 0.55340  0.08490  0.38370  Biso   1.000  H
  C1364    1.0000 0.54157  0.06235  0.35384  Biso   1.000  C
  H342     1.0000 0.53100  0.05110  0.36170  Biso   1.000  H
  C1365    1.0000 0.54646  0.06179  0.32930  Biso   1.000  C
  C1366    1.0000 0.53670  0.04429  0.31003  Biso   1.000  C
  C1367    1.0000 0.65609  0.18993  0.29284  Biso   1.000  C
  C1368    1.0000 0.67055  0.18673  0.26946  Biso   1.000  C
  C1369    1.0000 0.69056  0.19987  0.26120  Biso   1.000  C
  H343     1.0000 0.69730  0.21350  0.26950  Biso   1.000  H
  C1370    1.0000 0.61532  0.25655  0.32705  Biso   1.000  C
  C1371    1.0000 0.60899  0.27822  0.31055  Biso   1.000  C
  C1372    1.0000 0.58648  0.28857  0.30704  Biso   1.000  C
  H344     1.0000 0.57240  0.28400  0.31590  Biso   1.000  H
  C1373    1.0000 0.54936  0.17816  0.39047  Biso   1.000  C
  C1374    1.0000 0.52273  0.17279  0.39471  Biso   1.000  C
  C1375    1.0000 0.51320  0.15280  0.40690  Biso   1.000  C
  H345     1.0000 0.52290  0.14050  0.41440  Biso   1.000  H
  O897     1.0000 0.63893  0.12811  0.31772  Biso   1.000  O
  S138     1.0000 0.67880  0.09880  0.26566  Biso   1.000  S
  C1376    1.0000 0.63580  0.10330  0.24370  Biso   1.000  C
  C1377    1.0000 0.65390  0.10930  0.28270  Biso   1.000  C
  C1378    1.0000 0.65970  0.12210  0.30890  Biso   1.000  C
  C1379    1.0000 0.63210  0.10970  0.26620  Biso   1.000  C
  C1380    1.0000 0.66150  0.09480  0.23940  Biso   1.000  C
  Zr139    1.0000 0.09129  0.71244  0.86217  Biso   1.000  Zr
  Zr140    1.0000 0.12043  0.66122  0.83279  Biso   1.000  Zr
  S139     1.0000 0.06576  0.58554  0.82049  Biso   1.000  S
  O898     1.0000 0.08529  0.62457  0.87880  Biso   1.000  O
  O899     1.0000 0.09337  0.62884  0.83768  Biso   1.000  O
  O900     1.0000 0.04231  0.54951  0.78807  Biso   1.000  O
  O901     1.0000 0.02434  0.52587  0.81740  Biso   1.000  O
  O902     1.0000 0.14089  0.67285  0.79785  Biso   1.000  O
  O903     1.0000 0.16042  0.70939  0.80549  Biso   1.000  O
  O904     1.0000 0.13740  0.74907  0.82708  Biso   1.000  O
  O905     1.0000 0.09716  0.74779  0.83925  Biso   1.000  O
  O906     1.0000 0.05463  0.69641  0.87684  Biso   1.000  O
  O907     1.0000 0.06442  0.66299  0.90044  Biso   1.000  O
  O908     1.0000 0.09843  0.67440  0.86168  Biso   1.000  O
  O909     1.0000 0.11660  0.70276  0.83066  Biso   1.000  O
  C1381    1.0000 0.08343  0.61815  0.85625  Biso   1.000  C
  C1382    1.0000 0.06799  0.59619  0.85056  Biso   1.000  C
  C1383    1.0000 0.05433  0.58208  0.86660  Biso   1.000  C
  H346     1.0000 0.05340  0.58490  0.88370  Biso   1.000  H
  C1384    1.0000 0.04157  0.56235  0.85384  Biso   1.000  C
  H347     1.0000 0.03100  0.55110  0.86170  Biso   1.000  H
  C1385    1.0000 0.04646  0.56179  0.82930  Biso   1.000  C
  C1386    1.0000 0.03670  0.54429  0.81003  Biso   1.000  C
  C1387    1.0000 0.15609  0.68993  0.79284  Biso   1.000  C
  C1388    1.0000 0.17055  0.68673  0.76946  Biso   1.000  C
  C1389    1.0000 0.19056  0.69987  0.76120  Biso   1.000  C
  H348     1.0000 0.19730  0.71350  0.76950  Biso   1.000  H
  C1390    1.0000 0.11532  0.75655  0.82705  Biso   1.000  C
  C1391    1.0000 0.10899  0.77822  0.81055  Biso   1.000  C
  C1392    1.0000 0.08648  0.78857  0.80704  Biso   1.000  C
  H349     1.0000 0.07240  0.78400  0.81590  Biso   1.000  H
  C1393    1.0000 0.04936  0.67816  0.89047  Biso   1.000  C
  C1394    1.0000 0.02273  0.67279  0.89471  Biso   1.000  C
  C1395    1.0000 0.01320  0.65280  0.90690  Biso   1.000  C
  H350     1.0000 0.02290  0.64050  0.91440  Biso   1.000  H
  O910     1.0000 0.13893  0.62811  0.81772  Biso   1.000  O
  S140     1.0000 0.17880  0.59880  0.76566  Biso   1.000  S
  C1396    1.0000 0.13580  0.60330  0.74370  Biso   1.000  C
  C1397    1.0000 0.15390  0.60930  0.78270  Biso   1.000  C
  C1398    1.0000 0.15970  0.62210  0.80890  Biso   1.000  C
  C1399    1.0000 0.13210  0.60970  0.76620  Biso   1.000  C
  C1400    1.0000 0.16150  0.59480  0.73940  Biso   1.000  C
  Zr141    1.0000 0.40871  0.21244  0.63783  Biso   1.000  Zr
  Zr142    1.0000 0.37957  0.16122  0.66721  Biso   1.000  Zr
  S141     1.0000 0.43424  0.08554  0.67951  Biso   1.000  S
  O911     1.0000 0.41471  0.12457  0.62120  Biso   1.000  O
  O912     1.0000 0.40663  0.12884  0.66232  Biso   1.000  O
  O913     1.0000 0.45769  0.04951  0.71193  Biso   1.000  O
  O914     1.0000 0.47566  0.02587  0.68260  Biso   1.000  O
  O915     1.0000 0.35911  0.17285  0.70215  Biso   1.000  O
  O916     1.0000 0.33958  0.20939  0.69451  Biso   1.000  O
  O917     1.0000 0.36260  0.24907  0.67292  Biso   1.000  O
  O918     1.0000 0.40284  0.24779  0.66075  Biso   1.000  O
  O919     1.0000 0.44537  0.19641  0.62316  Biso   1.000  O
  O920     1.0000 0.43558  0.16299  0.59956  Biso   1.000  O
  O921     1.0000 0.40157  0.17440  0.63832  Biso   1.000  O
  O922     1.0000 0.38340  0.20276  0.66934  Biso   1.000  O
  C1401    1.0000 0.41657  0.11815  0.64375  Biso   1.000  C
  C1402    1.0000 0.43201  0.09619  0.64944  Biso   1.000  C
  C1403    1.0000 0.44567  0.08208  0.63340  Biso   1.000  C
  H351     1.0000 0.44660  0.08490  0.61630  Biso   1.000  H
  C1404    1.0000 0.45843  0.06235  0.64616  Biso   1.000  C
  H352     1.0000 0.46900  0.05110  0.63830  Biso   1.000  H
  C1405    1.0000 0.45354  0.06179  0.67070  Biso   1.000  C
  C1406    1.0000 0.46330  0.04429  0.68997  Biso   1.000  C
  C1407    1.0000 0.34391  0.18993  0.70716  Biso   1.000  C
  C1408    1.0000 0.32945  0.18673  0.73054  Biso   1.000  C
  C1409    1.0000 0.30944  0.19987  0.73880  Biso   1.000  C
  H353     1.0000 0.30270  0.21350  0.73050  Biso   1.000  H
  C1410    1.0000 0.38468  0.25655  0.67295  Biso   1.000  C
  C1411    1.0000 0.39101  0.27822  0.68945  Biso   1.000  C
  C1412    1.0000 0.41352  0.28857  0.69296  Biso   1.000  C
  H354     1.0000 0.42760  0.28400  0.68410  Biso   1.000  H
  C1413    1.0000 0.45064  0.17816  0.60953  Biso   1.000  C
  C1414    1.0000 0.47727  0.17279  0.60529  Biso   1.000  C
  C1415    1.0000 0.48680  0.15280  0.59310  Biso   1.000  C
  H355     1.0000 0.47710  0.14050  0.58560  Biso   1.000  H
  O923     1.0000 0.36107  0.12811  0.68228  Biso   1.000  O
  S142     1.0000 0.32120  0.09880  0.73434  Biso   1.000  S
  C1416    1.0000 0.36420  0.10330  0.75630  Biso   1.000  C
  C1417    1.0000 0.34610  0.10930  0.71730  Biso   1.000  C
  C1418    1.0000 0.34030  0.12210  0.69110  Biso   1.000  C
  C1419    1.0000 0.36790  0.10970  0.73380  Biso   1.000  C
  C1420    1.0000 0.33850  0.09480  0.76060  Biso   1.000  C
  Zr143    1.0000 0.90871  0.71244  0.13783  Biso   1.000  Zr
  Zr144    1.0000 0.87957  0.66122  0.16721  Biso   1.000  Zr
  S143     1.0000 0.93424  0.58554  0.17951  Biso   1.000  S
  O924     1.0000 0.91471  0.62457  0.12120  Biso   1.000  O
  O925     1.0000 0.90663  0.62884  0.16232  Biso   1.000  O
  O926     1.0000 0.95769  0.54951  0.21193  Biso   1.000  O
  O927     1.0000 0.97566  0.52587  0.18260  Biso   1.000  O
  O928     1.0000 0.85911  0.67285  0.20215  Biso   1.000  O
  O929     1.0000 0.83958  0.70939  0.19451  Biso   1.000  O
  O930     1.0000 0.86260  0.74907  0.17292  Biso   1.000  O
  O931     1.0000 0.90284  0.74779  0.16075  Biso   1.000  O
  O932     1.0000 0.94537  0.69641  0.12316  Biso   1.000  O
  O933     1.0000 0.93558  0.66299  0.09956  Biso   1.000  O
  O934     1.0000 0.90157  0.67440  0.13832  Biso   1.000  O
  O935     1.0000 0.88340  0.70276  0.16934  Biso   1.000  O
  C1421    1.0000 0.91657  0.61815  0.14375  Biso   1.000  C
  C1422    1.0000 0.93201  0.59619  0.14944  Biso   1.000  C
  C1423    1.0000 0.94567  0.58208  0.13340  Biso   1.000  C
  H356     1.0000 0.94660  0.58490  0.11630  Biso   1.000  H
  C1424    1.0000 0.95843  0.56235  0.14616  Biso   1.000  C
  H357     1.0000 0.96900  0.55110  0.13830  Biso   1.000  H
  C1425    1.0000 0.95354  0.56179  0.17070  Biso   1.000  C
  C1426    1.0000 0.96330  0.54429  0.18997  Biso   1.000  C
  C1427    1.0000 0.84391  0.68993  0.20716  Biso   1.000  C
  C1428    1.0000 0.82945  0.68673  0.23054  Biso   1.000  C
  C1429    1.0000 0.80944  0.69987  0.23880  Biso   1.000  C
  H358     1.0000 0.80270  0.71350  0.23050  Biso   1.000  H
  C1430    1.0000 0.88468  0.75655  0.17295  Biso   1.000  C
  C1431    1.0000 0.89101  0.77822  0.18945  Biso   1.000  C
  C1432    1.0000 0.91352  0.78857  0.19296  Biso   1.000  C
  H359     1.0000 0.92760  0.78400  0.18410  Biso   1.000  H
  C1433    1.0000 0.95064  0.67816  0.10953  Biso   1.000  C
  C1434    1.0000 0.97727  0.67279  0.10529  Biso   1.000  C
  C1435    1.0000 0.98680  0.65280  0.09310  Biso   1.000  C
  H360     1.0000 0.97710  0.64050  0.08560  Biso   1.000  H
  O936     1.0000 0.86107  0.62811  0.18228  Biso   1.000  O
  S144     1.0000 0.82120  0.59880  0.23434  Biso   1.000  S
  C1436    1.0000 0.86420  0.60330  0.25630  Biso   1.000  C
  C1437    1.0000 0.84610  0.60930  0.21730  Biso   1.000  C
  C1438    1.0000 0.84030  0.62210  0.19110  Biso   1.000  C
  C1439    1.0000 0.86790  0.60970  0.23380  Biso   1.000  C
  C1440    1.0000 0.83850  0.59480  0.26060  Biso   1.000  C
  Zr145    1.0000 0.59129  0.63783  0.21244  Biso   1.000  Zr
  Zr146    1.0000 0.62043  0.66721  0.16122  Biso   1.000  Zr
  S145     1.0000 0.56576  0.67951  0.08554  Biso   1.000  S
  O937     1.0000 0.58529  0.62120  0.12457  Biso   1.000  O
  O938     1.0000 0.59337  0.66232  0.12884  Biso   1.000  O
  O939     1.0000 0.54231  0.71193  0.04951  Biso   1.000  O
  O940     1.0000 0.52434  0.68260  0.02587  Biso   1.000  O
  O941     1.0000 0.64089  0.70215  0.17285  Biso   1.000  O
  O942     1.0000 0.66042  0.69451  0.20939  Biso   1.000  O
  O943     1.0000 0.63740  0.67292  0.24907  Biso   1.000  O
  O944     1.0000 0.59716  0.66075  0.24779  Biso   1.000  O
  O945     1.0000 0.55463  0.62316  0.19641  Biso   1.000  O
  O946     1.0000 0.56442  0.59956  0.16299  Biso   1.000  O
  O947     1.0000 0.59843  0.63832  0.17440  Biso   1.000  O
  O948     1.0000 0.61660  0.66934  0.20276  Biso   1.000  O
  C1441    1.0000 0.58343  0.64375  0.11815  Biso   1.000  C
  C1442    1.0000 0.56799  0.64944  0.09619  Biso   1.000  C
  C1443    1.0000 0.55433  0.63340  0.08208  Biso   1.000  C
  H361     1.0000 0.55340  0.61630  0.08490  Biso   1.000  H
  C1444    1.0000 0.54157  0.64616  0.06235  Biso   1.000  C
  H362     1.0000 0.53100  0.63830  0.05110  Biso   1.000  H
  C1445    1.0000 0.54646  0.67070  0.06179  Biso   1.000  C
  C1446    1.0000 0.53670  0.68997  0.04429  Biso   1.000  C
  C1447    1.0000 0.65609  0.70716  0.18993  Biso   1.000  C
  C1448    1.0000 0.67055  0.73054  0.18673  Biso   1.000  C
  C1449    1.0000 0.69056  0.73880  0.19987  Biso   1.000  C
  H363     1.0000 0.69730  0.73050  0.21350  Biso   1.000  H
  C1450    1.0000 0.61532  0.67295  0.25655  Biso   1.000  C
  C1451    1.0000 0.60899  0.68945  0.27822  Biso   1.000  C
  C1452    1.0000 0.58648  0.69296  0.28857  Biso   1.000  C
  H364     1.0000 0.57240  0.68410  0.28400  Biso   1.000  H
  C1453    1.0000 0.54936  0.60953  0.17816  Biso   1.000  C
  C1454    1.0000 0.52273  0.60529  0.17279  Biso   1.000  C
  C1455    1.0000 0.51320  0.59310  0.15280  Biso   1.000  C
  H365     1.0000 0.52290  0.58560  0.14050  Biso   1.000  H
  O949     1.0000 0.63893  0.68228  0.12811  Biso   1.000  O
  S146     1.0000 0.67880  0.73434  0.09880  Biso   1.000  S
  C1456    1.0000 0.63580  0.75630  0.10330  Biso   1.000  C
  C1457    1.0000 0.65390  0.71730  0.10930  Biso   1.000  C
  C1458    1.0000 0.65970  0.69110  0.12210  Biso   1.000  C
  C1459    1.0000 0.63210  0.73380  0.10970  Biso   1.000  C
  C1460    1.0000 0.66150  0.76060  0.09480  Biso   1.000  C
  Zr147    1.0000 0.09129  0.13783  0.71244  Biso   1.000  Zr
  Zr148    1.0000 0.12043  0.16721  0.66122  Biso   1.000  Zr
  S147     1.0000 0.06576  0.17951  0.58554  Biso   1.000  S
  O950     1.0000 0.08529  0.12120  0.62457  Biso   1.000  O
  O951     1.0000 0.09337  0.16232  0.62884  Biso   1.000  O
  O952     1.0000 0.04231  0.21193  0.54951  Biso   1.000  O
  O953     1.0000 0.02434  0.18260  0.52587  Biso   1.000  O
  O954     1.0000 0.14089  0.20215  0.67285  Biso   1.000  O
  O955     1.0000 0.16042  0.19451  0.70939  Biso   1.000  O
  O956     1.0000 0.13740  0.17292  0.74907  Biso   1.000  O
  O957     1.0000 0.09716  0.16075  0.74779  Biso   1.000  O
  O958     1.0000 0.05463  0.12316  0.69641  Biso   1.000  O
  O959     1.0000 0.06442  0.09956  0.66299  Biso   1.000  O
  O960     1.0000 0.09843  0.13832  0.67440  Biso   1.000  O
  O961     1.0000 0.11660  0.16934  0.70276  Biso   1.000  O
  C1461    1.0000 0.08343  0.14375  0.61815  Biso   1.000  C
  C1462    1.0000 0.06799  0.14944  0.59619  Biso   1.000  C
  C1463    1.0000 0.05433  0.13340  0.58208  Biso   1.000  C
  H366     1.0000 0.05340  0.11630  0.58490  Biso   1.000  H
  C1464    1.0000 0.04157  0.14616  0.56235  Biso   1.000  C
  H367     1.0000 0.03100  0.13830  0.55110  Biso   1.000  H
  C1465    1.0000 0.04646  0.17070  0.56179  Biso   1.000  C
  C1466    1.0000 0.03670  0.18997  0.54429  Biso   1.000  C
  C1467    1.0000 0.15609  0.20716  0.68993  Biso   1.000  C
  C1468    1.0000 0.17055  0.23054  0.68673  Biso   1.000  C
  C1469    1.0000 0.19056  0.23880  0.69987  Biso   1.000  C
  H368     1.0000 0.19730  0.23050  0.71350  Biso   1.000  H
  C1470    1.0000 0.11532  0.17295  0.75655  Biso   1.000  C
  C1471    1.0000 0.10899  0.18945  0.77822  Biso   1.000  C
  C1472    1.0000 0.08648  0.19296  0.78857  Biso   1.000  C
  H369     1.0000 0.07240  0.18410  0.78400  Biso   1.000  H
  C1473    1.0000 0.04936  0.10953  0.67816  Biso   1.000  C
  C1474    1.0000 0.02273  0.10529  0.67279  Biso   1.000  C
  C1475    1.0000 0.01320  0.09310  0.65280  Biso   1.000  C
  H370     1.0000 0.02290  0.08560  0.64050  Biso   1.000  H
  O962     1.0000 0.13893  0.18228  0.62811  Biso   1.000  O
  S148     1.0000 0.17880  0.23434  0.59880  Biso   1.000  S
  C1476    1.0000 0.13580  0.25630  0.60330  Biso   1.000  C
  C1477    1.0000 0.15390  0.21730  0.60930  Biso   1.000  C
  C1478    1.0000 0.15970  0.19110  0.62210  Biso   1.000  C
  C1479    1.0000 0.13210  0.23380  0.60970  Biso   1.000  C
  C1480    1.0000 0.16150  0.26060  0.59480  Biso   1.000  C
  Zr149    1.0000 0.40871  0.36217  0.21244  Biso   1.000  Zr
  Zr150    1.0000 0.37957  0.33279  0.16122  Biso   1.000  Zr
  S149     1.0000 0.43424  0.32049  0.08554  Biso   1.000  S
  O963     1.0000 0.41471  0.37880  0.12457  Biso   1.000  O
  O964     1.0000 0.40663  0.33768  0.12884  Biso   1.000  O
  O965     1.0000 0.45769  0.28807  0.04951  Biso   1.000  O
  O966     1.0000 0.47566  0.31740  0.02587  Biso   1.000  O
  O967     1.0000 0.35911  0.29785  0.17285  Biso   1.000  O
  O968     1.0000 0.33958  0.30549  0.20939  Biso   1.000  O
  O969     1.0000 0.36260  0.32708  0.24907  Biso   1.000  O
  O970     1.0000 0.40284  0.33925  0.24779  Biso   1.000  O
  O971     1.0000 0.44537  0.37684  0.19641  Biso   1.000  O
  O972     1.0000 0.43558  0.40044  0.16299  Biso   1.000  O
  O973     1.0000 0.40157  0.36168  0.17440  Biso   1.000  O
  O974     1.0000 0.38340  0.33066  0.20276  Biso   1.000  O
  C1481    1.0000 0.41657  0.35625  0.11815  Biso   1.000  C
  C1482    1.0000 0.43201  0.35056  0.09619  Biso   1.000  C
  C1483    1.0000 0.44567  0.36660  0.08208  Biso   1.000  C
  H371     1.0000 0.44660  0.38370  0.08490  Biso   1.000  H
  C1484    1.0000 0.45843  0.35384  0.06235  Biso   1.000  C
  H372     1.0000 0.46900  0.36170  0.05110  Biso   1.000  H
  C1485    1.0000 0.45354  0.32930  0.06179  Biso   1.000  C
  C1486    1.0000 0.46330  0.31003  0.04429  Biso   1.000  C
  C1487    1.0000 0.34391  0.29284  0.18993  Biso   1.000  C
  C1488    1.0000 0.32945  0.26946  0.18673  Biso   1.000  C
  C1489    1.0000 0.30944  0.26120  0.19987  Biso   1.000  C
  H373     1.0000 0.30270  0.26950  0.21350  Biso   1.000  H
  C1490    1.0000 0.38468  0.32705  0.25655  Biso   1.000  C
  C1491    1.0000 0.39101  0.31055  0.27822  Biso   1.000  C
  C1492    1.0000 0.41352  0.30704  0.28857  Biso   1.000  C
  H374     1.0000 0.42760  0.31590  0.28400  Biso   1.000  H
  C1493    1.0000 0.45064  0.39047  0.17816  Biso   1.000  C
  C1494    1.0000 0.47727  0.39471  0.17279  Biso   1.000  C
  C1495    1.0000 0.48680  0.40690  0.15280  Biso   1.000  C
  H375     1.0000 0.47710  0.41440  0.14050  Biso   1.000  H
  O975     1.0000 0.36107  0.31772  0.12811  Biso   1.000  O
  S150     1.0000 0.32120  0.26566  0.09880  Biso   1.000  S
  C1496    1.0000 0.36420  0.24370  0.10330  Biso   1.000  C
  C1497    1.0000 0.34610  0.28270  0.10930  Biso   1.000  C
  C1498    1.0000 0.34030  0.30890  0.12210  Biso   1.000  C
  C1499    1.0000 0.36790  0.26620  0.10970  Biso   1.000  C
  C1500    1.0000 0.33850  0.23940  0.09480  Biso   1.000  C
  Zr151    1.0000 0.90871  0.86217  0.71244  Biso   1.000  Zr
  Zr152    1.0000 0.87957  0.83279  0.66122  Biso   1.000  Zr
  S151     1.0000 0.93424  0.82049  0.58554  Biso   1.000  S
  O976     1.0000 0.91471  0.87880  0.62457  Biso   1.000  O
  O977     1.0000 0.90663  0.83768  0.62884  Biso   1.000  O
  O978     1.0000 0.95769  0.78807  0.54951  Biso   1.000  O
  O979     1.0000 0.97566  0.81740  0.52587  Biso   1.000  O
  O980     1.0000 0.85911  0.79785  0.67285  Biso   1.000  O
  O981     1.0000 0.83958  0.80549  0.70939  Biso   1.000  O
  O982     1.0000 0.86260  0.82708  0.74907  Biso   1.000  O
  O983     1.0000 0.90284  0.83925  0.74779  Biso   1.000  O
  O984     1.0000 0.94537  0.87684  0.69641  Biso   1.000  O
  O985     1.0000 0.93558  0.90044  0.66299  Biso   1.000  O
  O986     1.0000 0.90157  0.86168  0.67440  Biso   1.000  O
  O987     1.0000 0.88340  0.83066  0.70276  Biso   1.000  O
  C1501    1.0000 0.91657  0.85625  0.61815  Biso   1.000  C
  C1502    1.0000 0.93201  0.85056  0.59619  Biso   1.000  C
  C1503    1.0000 0.94567  0.86660  0.58208  Biso   1.000  C
  H376     1.0000 0.94660  0.88370  0.58490  Biso   1.000  H
  C1504    1.0000 0.95843  0.85384  0.56235  Biso   1.000  C
  H377     1.0000 0.96900  0.86170  0.55110  Biso   1.000  H
  C1505    1.0000 0.95354  0.82930  0.56179  Biso   1.000  C
  C1506    1.0000 0.96330  0.81003  0.54429  Biso   1.000  C
  C1507    1.0000 0.84391  0.79284  0.68993  Biso   1.000  C
  C1508    1.0000 0.82945  0.76946  0.68673  Biso   1.000  C
  C1509    1.0000 0.80944  0.76120  0.69987  Biso   1.000  C
  H378     1.0000 0.80270  0.76950  0.71350  Biso   1.000  H
  C1510    1.0000 0.88468  0.82705  0.75655  Biso   1.000  C
  C1511    1.0000 0.89101  0.81055  0.77822  Biso   1.000  C
  C1512    1.0000 0.91352  0.80704  0.78857  Biso   1.000  C
  H379     1.0000 0.92760  0.81590  0.78400  Biso   1.000  H
  C1513    1.0000 0.95064  0.89047  0.67816  Biso   1.000  C
  C1514    1.0000 0.97727  0.89471  0.67279  Biso   1.000  C
  C1515    1.0000 0.98680  0.90690  0.65280  Biso   1.000  C
  H380     1.0000 0.97710  0.91440  0.64050  Biso   1.000  H
  O988     1.0000 0.86107  0.81772  0.62811  Biso   1.000  O
  S152     1.0000 0.82120  0.76566  0.59880  Biso   1.000  S
  C1516    1.0000 0.86420  0.74370  0.60330  Biso   1.000  C
  C1517    1.0000 0.84610  0.78270  0.60930  Biso   1.000  C
  C1518    1.0000 0.84030  0.80890  0.62210  Biso   1.000  C
  C1519    1.0000 0.86790  0.76620  0.60970  Biso   1.000  C
  C1520    1.0000 0.83850  0.73940  0.59480  Biso   1.000  C
  Zr153    1.0000 0.59129  0.36217  0.78756  Biso   1.000  Zr
  Zr154    1.0000 0.62043  0.33279  0.83878  Biso   1.000  Zr
  S153     1.0000 0.56576  0.32049  0.91446  Biso   1.000  S
  O989     1.0000 0.58529  0.37880  0.87543  Biso   1.000  O
  O990     1.0000 0.59337  0.33768  0.87116  Biso   1.000  O
  O991     1.0000 0.54231  0.28807  0.95049  Biso   1.000  O
  O992     1.0000 0.52434  0.31740  0.97413  Biso   1.000  O
  O993     1.0000 0.64089  0.29785  0.82715  Biso   1.000  O
  O994     1.0000 0.66042  0.30549  0.79061  Biso   1.000  O
  O995     1.0000 0.63740  0.32708  0.75093  Biso   1.000  O
  O996     1.0000 0.59716  0.33925  0.75221  Biso   1.000  O
  O997     1.0000 0.55463  0.37684  0.80359  Biso   1.000  O
  O998     1.0000 0.56442  0.40044  0.83701  Biso   1.000  O
  O999     1.0000 0.59843  0.36168  0.82560  Biso   1.000  O
  O1000    1.0000 0.61660  0.33066  0.79724  Biso   1.000  O
  C1521    1.0000 0.58343  0.35625  0.88185  Biso   1.000  C
  C1522    1.0000 0.56799  0.35056  0.90381  Biso   1.000  C
  C1523    1.0000 0.55433  0.36660  0.91792  Biso   1.000  C
  H381     1.0000 0.55340  0.38370  0.91510  Biso   1.000  H
  C1524    1.0000 0.54157  0.35384  0.93765  Biso   1.000  C
  H382     1.0000 0.53100  0.36170  0.94890  Biso   1.000  H
  C1525    1.0000 0.54646  0.32930  0.93821  Biso   1.000  C
  C1526    1.0000 0.53670  0.31003  0.95571  Biso   1.000  C
  C1527    1.0000 0.65609  0.29284  0.81007  Biso   1.000  C
  C1528    1.0000 0.67055  0.26946  0.81327  Biso   1.000  C
  C1529    1.0000 0.69056  0.26120  0.80013  Biso   1.000  C
  H383     1.0000 0.69730  0.26950  0.78650  Biso   1.000  H
  C1530    1.0000 0.61532  0.32705  0.74345  Biso   1.000  C
  C1531    1.0000 0.60899  0.31055  0.72178  Biso   1.000  C
  C1532    1.0000 0.58648  0.30704  0.71143  Biso   1.000  C
  H384     1.0000 0.57240  0.31590  0.71600  Biso   1.000  H
  C1533    1.0000 0.54936  0.39047  0.82184  Biso   1.000  C
  C1534    1.0000 0.52273  0.39471  0.82721  Biso   1.000  C
  C1535    1.0000 0.51320  0.40690  0.84720  Biso   1.000  C
  H385     1.0000 0.52290  0.41440  0.85950  Biso   1.000  H
  O1001    1.0000 0.63893  0.31772  0.87189  Biso   1.000  O
  S154     1.0000 0.67880  0.26566  0.90120  Biso   1.000  S
  C1536    1.0000 0.63580  0.24370  0.89670  Biso   1.000  C
  C1537    1.0000 0.65390  0.28270  0.89070  Biso   1.000  C
  C1538    1.0000 0.65970  0.30890  0.87790  Biso   1.000  C
  C1539    1.0000 0.63210  0.26620  0.89030  Biso   1.000  C
  C1540    1.0000 0.66150  0.23940  0.90520  Biso   1.000  C
  Zr155    1.0000 0.09129  0.86217  0.28756  Biso   1.000  Zr
  Zr156    1.0000 0.12043  0.83279  0.33878  Biso   1.000  Zr
  S155     1.0000 0.06576  0.82049  0.41446  Biso   1.000  S
  O1002    1.0000 0.08529  0.87880  0.37543  Biso   1.000  O
  O1003    1.0000 0.09337  0.83768  0.37116  Biso   1.000  O
  O1004    1.0000 0.04231  0.78807  0.45049  Biso   1.000  O
  O1005    1.0000 0.02434  0.81740  0.47413  Biso   1.000  O
  O1006    1.0000 0.14089  0.79785  0.32715  Biso   1.000  O
  O1007    1.0000 0.16042  0.80549  0.29061  Biso   1.000  O
  O1008    1.0000 0.13740  0.82708  0.25093  Biso   1.000  O
  O1009    1.0000 0.09716  0.83925  0.25221  Biso   1.000  O
  O1010    1.0000 0.05463  0.87684  0.30359  Biso   1.000  O
  O1011    1.0000 0.06442  0.90044  0.33701  Biso   1.000  O
  O1012    1.0000 0.09843  0.86168  0.32560  Biso   1.000  O
  O1013    1.0000 0.11660  0.83066  0.29724  Biso   1.000  O
  C1541    1.0000 0.08343  0.85625  0.38185  Biso   1.000  C
  C1542    1.0000 0.06799  0.85056  0.40381  Biso   1.000  C
  C1543    1.0000 0.05433  0.86660  0.41792  Biso   1.000  C
  H386     1.0000 0.05340  0.88370  0.41510  Biso   1.000  H
  C1544    1.0000 0.04157  0.85384  0.43765  Biso   1.000  C
  H387     1.0000 0.03100  0.86170  0.44890  Biso   1.000  H
  C1545    1.0000 0.04646  0.82930  0.43821  Biso   1.000  C
  C1546    1.0000 0.03670  0.81003  0.45571  Biso   1.000  C
  C1547    1.0000 0.15609  0.79284  0.31007  Biso   1.000  C
  C1548    1.0000 0.17055  0.76946  0.31327  Biso   1.000  C
  C1549    1.0000 0.19056  0.76120  0.30013  Biso   1.000  C
  H388     1.0000 0.19730  0.76950  0.28650  Biso   1.000  H
  C1550    1.0000 0.11532  0.82705  0.24345  Biso   1.000  C
  C1551    1.0000 0.10899  0.81055  0.22178  Biso   1.000  C
  C1552    1.0000 0.08648  0.80704  0.21143  Biso   1.000  C
  H389     1.0000 0.07240  0.81590  0.21600  Biso   1.000  H
  C1553    1.0000 0.04936  0.89047  0.32184  Biso   1.000  C
  C1554    1.0000 0.02273  0.89471  0.32721  Biso   1.000  C
  C1555    1.0000 0.01320  0.90690  0.34720  Biso   1.000  C
  H390     1.0000 0.02290  0.91440  0.35950  Biso   1.000  H
  O1014    1.0000 0.13893  0.81772  0.37189  Biso   1.000  O
  S156     1.0000 0.17880  0.76566  0.40120  Biso   1.000  S
  C1556    1.0000 0.13580  0.74370  0.39670  Biso   1.000  C
  C1557    1.0000 0.15390  0.78270  0.39070  Biso   1.000  C
  C1558    1.0000 0.15970  0.80890  0.37790  Biso   1.000  C
  C1559    1.0000 0.13210  0.76620  0.39030  Biso   1.000  C
  C1560    1.0000 0.16150  0.73940  0.40520  Biso   1.000  C
  Zr157    1.0000 0.40871  0.63783  0.78756  Biso   1.000  Zr
  Zr158    1.0000 0.37957  0.66721  0.83878  Biso   1.000  Zr
  S157     1.0000 0.43424  0.67951  0.91446  Biso   1.000  S
  O1015    1.0000 0.41471  0.62120  0.87543  Biso   1.000  O
  O1016    1.0000 0.40663  0.66232  0.87116  Biso   1.000  O
  O1017    1.0000 0.45769  0.71193  0.95049  Biso   1.000  O
  O1018    1.0000 0.47566  0.68260  0.97413  Biso   1.000  O
  O1019    1.0000 0.35911  0.70215  0.82715  Biso   1.000  O
  O1020    1.0000 0.33958  0.69451  0.79061  Biso   1.000  O
  O1021    1.0000 0.36260  0.67292  0.75093  Biso   1.000  O
  O1022    1.0000 0.40284  0.66075  0.75221  Biso   1.000  O
  O1023    1.0000 0.44537  0.62316  0.80359  Biso   1.000  O
  O1024    1.0000 0.43558  0.59956  0.83701  Biso   1.000  O
  O1025    1.0000 0.40157  0.63832  0.82560  Biso   1.000  O
  O1026    1.0000 0.38340  0.66934  0.79724  Biso   1.000  O
  C1561    1.0000 0.41657  0.64375  0.88185  Biso   1.000  C
  C1562    1.0000 0.43201  0.64944  0.90381  Biso   1.000  C
  C1563    1.0000 0.44567  0.63340  0.91792  Biso   1.000  C
  H391     1.0000 0.44660  0.61630  0.91510  Biso   1.000  H
  C1564    1.0000 0.45843  0.64616  0.93765  Biso   1.000  C
  H392     1.0000 0.46900  0.63830  0.94890  Biso   1.000  H
  C1565    1.0000 0.45354  0.67070  0.93821  Biso   1.000  C
  C1566    1.0000 0.46330  0.68997  0.95571  Biso   1.000  C
  C1567    1.0000 0.34391  0.70716  0.81007  Biso   1.000  C
  C1568    1.0000 0.32945  0.73054  0.81327  Biso   1.000  C
  C1569    1.0000 0.30944  0.73880  0.80013  Biso   1.000  C
  H393     1.0000 0.30270  0.73050  0.78650  Biso   1.000  H
  C1570    1.0000 0.38468  0.67295  0.74345  Biso   1.000  C
  C1571    1.0000 0.39101  0.68945  0.72178  Biso   1.000  C
  C1572    1.0000 0.41352  0.69296  0.71143  Biso   1.000  C
  H394     1.0000 0.42760  0.68410  0.71600  Biso   1.000  H
  C1573    1.0000 0.45064  0.60953  0.82184  Biso   1.000  C
  C1574    1.0000 0.47727  0.60529  0.82721  Biso   1.000  C
  C1575    1.0000 0.48680  0.59310  0.84720  Biso   1.000  C
  H395     1.0000 0.47710  0.58560  0.85950  Biso   1.000  H
  O1027    1.0000 0.36107  0.68228  0.87189  Biso   1.000  O
  S158     1.0000 0.32120  0.73434  0.90120  Biso   1.000  S
  C1576    1.0000 0.36420  0.75630  0.89670  Biso   1.000  C
  C1577    1.0000 0.34610  0.71730  0.89070  Biso   1.000  C
  C1578    1.0000 0.34030  0.69110  0.87790  Biso   1.000  C
  C1579    1.0000 0.36790  0.73380  0.89030  Biso   1.000  C
  C1580    1.0000 0.33850  0.76060  0.90520  Biso   1.000  C
  Zr159    1.0000 0.90871  0.13783  0.28756  Biso   1.000  Zr
  Zr160    1.0000 0.87957  0.16721  0.33878  Biso   1.000  Zr
  S159     1.0000 0.93424  0.17951  0.41446  Biso   1.000  S
  O1028    1.0000 0.91471  0.12120  0.37543  Biso   1.000  O
  O1029    1.0000 0.90663  0.16232  0.37116  Biso   1.000  O
  O1030    1.0000 0.95769  0.21193  0.45049  Biso   1.000  O
  O1031    1.0000 0.97566  0.18260  0.47413  Biso   1.000  O
  O1032    1.0000 0.85911  0.20215  0.32715  Biso   1.000  O
  O1033    1.0000 0.83958  0.19451  0.29061  Biso   1.000  O
  O1034    1.0000 0.86260  0.17292  0.25093  Biso   1.000  O
  O1035    1.0000 0.90284  0.16075  0.25221  Biso   1.000  O
  O1036    1.0000 0.94537  0.12316  0.30359  Biso   1.000  O
  O1037    1.0000 0.93558  0.09956  0.33701  Biso   1.000  O
  O1038    1.0000 0.90157  0.13832  0.32560  Biso   1.000  O
  O1039    1.0000 0.88340  0.16934  0.29724  Biso   1.000  O
  C1581    1.0000 0.91657  0.14375  0.38185  Biso   1.000  C
  C1582    1.0000 0.93201  0.14944  0.40381  Biso   1.000  C
  C1583    1.0000 0.94567  0.13340  0.41792  Biso   1.000  C
  H396     1.0000 0.94660  0.11630  0.41510  Biso   1.000  H
  C1584    1.0000 0.95843  0.14616  0.43765  Biso   1.000  C
  H397     1.0000 0.96900  0.13830  0.44890  Biso   1.000  H
  C1585    1.0000 0.95354  0.17070  0.43821  Biso   1.000  C
  C1586    1.0000 0.96330  0.18997  0.45571  Biso   1.000  C
  C1587    1.0000 0.84391  0.20716  0.31007  Biso   1.000  C
  C1588    1.0000 0.82945  0.23054  0.31327  Biso   1.000  C
  C1589    1.0000 0.80944  0.23880  0.30013  Biso   1.000  C
  H398     1.0000 0.80270  0.23050  0.28650  Biso   1.000  H
  C1590    1.0000 0.88468  0.17295  0.24345  Biso   1.000  C
  C1591    1.0000 0.89101  0.18945  0.22178  Biso   1.000  C
  C1592    1.0000 0.91352  0.19296  0.21143  Biso   1.000  C
  H399     1.0000 0.92760  0.18410  0.21600  Biso   1.000  H
  C1593    1.0000 0.95064  0.10953  0.32184  Biso   1.000  C
  C1594    1.0000 0.97727  0.10529  0.32721  Biso   1.000  C
  C1595    1.0000 0.98680  0.09310  0.34720  Biso   1.000  C
  H400     1.0000 0.97710  0.08560  0.35950  Biso   1.000  H
  O1040    1.0000 0.86107  0.18228  0.37189  Biso   1.000  O
  S160     1.0000 0.82120  0.23434  0.40120  Biso   1.000  S
  C1596    1.0000 0.86420  0.25630  0.39670  Biso   1.000  C
  C1597    1.0000 0.84610  0.21730  0.39070  Biso   1.000  C
  C1598    1.0000 0.84030  0.19110  0.37790  Biso   1.000  C
  C1599    1.0000 0.86790  0.23380  0.39030  Biso   1.000  C
  C1600    1.0000 0.83850  0.26060  0.40520  Biso   1.000  C
  Zr161    1.0000 0.63783  0.78756  0.40871  Biso   1.000  Zr
  Zr162    1.0000 0.66721  0.83878  0.37957  Biso   1.000  Zr
  S161     1.0000 0.67951  0.91446  0.43424  Biso   1.000  S
  O1041    1.0000 0.62120  0.87543  0.41471  Biso   1.000  O
  O1042    1.0000 0.66232  0.87116  0.40663  Biso   1.000  O
  O1043    1.0000 0.71193  0.95049  0.45769  Biso   1.000  O
  O1044    1.0000 0.68260  0.97413  0.47566  Biso   1.000  O
  O1045    1.0000 0.70215  0.82715  0.35911  Biso   1.000  O
  O1046    1.0000 0.69451  0.79061  0.33958  Biso   1.000  O
  O1047    1.0000 0.67292  0.75093  0.36260  Biso   1.000  O
  O1048    1.0000 0.66075  0.75221  0.40284  Biso   1.000  O
  O1049    1.0000 0.62316  0.80359  0.44537  Biso   1.000  O
  O1050    1.0000 0.59956  0.83701  0.43558  Biso   1.000  O
  O1051    1.0000 0.63832  0.82560  0.40157  Biso   1.000  O
  O1052    1.0000 0.66934  0.79724  0.38340  Biso   1.000  O
  C1601    1.0000 0.64375  0.88185  0.41657  Biso   1.000  C
  C1602    1.0000 0.64944  0.90381  0.43201  Biso   1.000  C
  C1603    1.0000 0.63340  0.91792  0.44567  Biso   1.000  C
  H401     1.0000 0.61630  0.91510  0.44660  Biso   1.000  H
  C1604    1.0000 0.64616  0.93765  0.45843  Biso   1.000  C
  H402     1.0000 0.63830  0.94890  0.46900  Biso   1.000  H
  C1605    1.0000 0.67070  0.93821  0.45354  Biso   1.000  C
  C1606    1.0000 0.68997  0.95571  0.46330  Biso   1.000  C
  C1607    1.0000 0.70716  0.81007  0.34391  Biso   1.000  C
  C1608    1.0000 0.73054  0.81327  0.32945  Biso   1.000  C
  C1609    1.0000 0.73880  0.80013  0.30944  Biso   1.000  C
  H403     1.0000 0.73050  0.78650  0.30270  Biso   1.000  H
  C1610    1.0000 0.67295  0.74345  0.38468  Biso   1.000  C
  C1611    1.0000 0.68945  0.72178  0.39101  Biso   1.000  C
  C1612    1.0000 0.69296  0.71143  0.41352  Biso   1.000  C
  H404     1.0000 0.68410  0.71600  0.42760  Biso   1.000  H
  C1613    1.0000 0.60953  0.82184  0.45064  Biso   1.000  C
  C1614    1.0000 0.60529  0.82721  0.47727  Biso   1.000  C
  C1615    1.0000 0.59310  0.84720  0.48680  Biso   1.000  C
  H405     1.0000 0.58560  0.85950  0.47710  Biso   1.000  H
  O1053    1.0000 0.68228  0.87189  0.36107  Biso   1.000  O
  S162     1.0000 0.73434  0.90120  0.32120  Biso   1.000  S
  C1616    1.0000 0.75630  0.89670  0.36420  Biso   1.000  C
  C1617    1.0000 0.71730  0.89070  0.34610  Biso   1.000  C
  C1618    1.0000 0.69110  0.87790  0.34030  Biso   1.000  C
  C1619    1.0000 0.73380  0.89030  0.36790  Biso   1.000  C
  C1620    1.0000 0.76060  0.90520  0.33850  Biso   1.000  C
  Zr163    1.0000 0.13783  0.28756  0.90871  Biso   1.000  Zr
  Zr164    1.0000 0.16721  0.33878  0.87957  Biso   1.000  Zr
  S163     1.0000 0.17951  0.41446  0.93424  Biso   1.000  S
  O1054    1.0000 0.12120  0.37543  0.91471  Biso   1.000  O
  O1055    1.0000 0.16232  0.37116  0.90663  Biso   1.000  O
  O1056    1.0000 0.21193  0.45049  0.95769  Biso   1.000  O
  O1057    1.0000 0.18260  0.47413  0.97566  Biso   1.000  O
  O1058    1.0000 0.20215  0.32715  0.85911  Biso   1.000  O
  O1059    1.0000 0.19451  0.29061  0.83958  Biso   1.000  O
  O1060    1.0000 0.17292  0.25093  0.86260  Biso   1.000  O
  O1061    1.0000 0.16075  0.25221  0.90284  Biso   1.000  O
  O1062    1.0000 0.12316  0.30359  0.94537  Biso   1.000  O
  O1063    1.0000 0.09956  0.33701  0.93558  Biso   1.000  O
  O1064    1.0000 0.13832  0.32560  0.90157  Biso   1.000  O
  O1065    1.0000 0.16934  0.29724  0.88340  Biso   1.000  O
  C1621    1.0000 0.14375  0.38185  0.91657  Biso   1.000  C
  C1622    1.0000 0.14944  0.40381  0.93201  Biso   1.000  C
  C1623    1.0000 0.13340  0.41792  0.94567  Biso   1.000  C
  H406     1.0000 0.11630  0.41510  0.94660  Biso   1.000  H
  C1624    1.0000 0.14616  0.43765  0.95843  Biso   1.000  C
  H407     1.0000 0.13830  0.44890  0.96900  Biso   1.000  H
  C1625    1.0000 0.17070  0.43821  0.95354  Biso   1.000  C
  C1626    1.0000 0.18997  0.45571  0.96330  Biso   1.000  C
  C1627    1.0000 0.20716  0.31007  0.84391  Biso   1.000  C
  C1628    1.0000 0.23054  0.31327  0.82945  Biso   1.000  C
  C1629    1.0000 0.23880  0.30013  0.80944  Biso   1.000  C
  H408     1.0000 0.23050  0.28650  0.80270  Biso   1.000  H
  C1630    1.0000 0.17295  0.24345  0.88468  Biso   1.000  C
  C1631    1.0000 0.18945  0.22178  0.89101  Biso   1.000  C
  C1632    1.0000 0.19296  0.21143  0.91352  Biso   1.000  C
  H409     1.0000 0.18410  0.21600  0.92760  Biso   1.000  H
  C1633    1.0000 0.10953  0.32184  0.95064  Biso   1.000  C
  C1634    1.0000 0.10529  0.32721  0.97727  Biso   1.000  C
  C1635    1.0000 0.09310  0.34720  0.98680  Biso   1.000  C
  H410     1.0000 0.08560  0.35950  0.97710  Biso   1.000  H
  O1066    1.0000 0.18228  0.37189  0.86107  Biso   1.000  O
  S164     1.0000 0.23434  0.40120  0.82120  Biso   1.000  S
  C1636    1.0000 0.25630  0.39670  0.86420  Biso   1.000  C
  C1637    1.0000 0.21730  0.39070  0.84610  Biso   1.000  C
  C1638    1.0000 0.19110  0.37790  0.84030  Biso   1.000  C
  C1639    1.0000 0.23380  0.39030  0.86790  Biso   1.000  C
  C1640    1.0000 0.26060  0.40520  0.83850  Biso   1.000  C
  Zr165    1.0000 0.36217  0.78756  0.59129  Biso   1.000  Zr
  Zr166    1.0000 0.33279  0.83878  0.62043  Biso   1.000  Zr
  S165     1.0000 0.32049  0.91446  0.56576  Biso   1.000  S
  O1067    1.0000 0.37880  0.87543  0.58529  Biso   1.000  O
  O1068    1.0000 0.33768  0.87116  0.59337  Biso   1.000  O
  O1069    1.0000 0.28807  0.95049  0.54231  Biso   1.000  O
  O1070    1.0000 0.31740  0.97413  0.52434  Biso   1.000  O
  O1071    1.0000 0.29785  0.82715  0.64089  Biso   1.000  O
  O1072    1.0000 0.30549  0.79061  0.66042  Biso   1.000  O
  O1073    1.0000 0.32708  0.75093  0.63740  Biso   1.000  O
  O1074    1.0000 0.33925  0.75221  0.59716  Biso   1.000  O
  O1075    1.0000 0.37684  0.80359  0.55463  Biso   1.000  O
  O1076    1.0000 0.40044  0.83701  0.56442  Biso   1.000  O
  O1077    1.0000 0.36168  0.82560  0.59843  Biso   1.000  O
  O1078    1.0000 0.33066  0.79724  0.61660  Biso   1.000  O
  C1641    1.0000 0.35625  0.88185  0.58343  Biso   1.000  C
  C1642    1.0000 0.35056  0.90381  0.56799  Biso   1.000  C
  C1643    1.0000 0.36660  0.91792  0.55433  Biso   1.000  C
  H411     1.0000 0.38370  0.91510  0.55340  Biso   1.000  H
  C1644    1.0000 0.35384  0.93765  0.54157  Biso   1.000  C
  H412     1.0000 0.36170  0.94890  0.53100  Biso   1.000  H
  C1645    1.0000 0.32930  0.93821  0.54646  Biso   1.000  C
  C1646    1.0000 0.31003  0.95571  0.53670  Biso   1.000  C
  C1647    1.0000 0.29284  0.81007  0.65609  Biso   1.000  C
  C1648    1.0000 0.26946  0.81327  0.67055  Biso   1.000  C
  C1649    1.0000 0.26120  0.80013  0.69056  Biso   1.000  C
  H413     1.0000 0.26950  0.78650  0.69730  Biso   1.000  H
  C1650    1.0000 0.32705  0.74345  0.61532  Biso   1.000  C
  C1651    1.0000 0.31055  0.72178  0.60899  Biso   1.000  C
  C1652    1.0000 0.30704  0.71143  0.58648  Biso   1.000  C
  H414     1.0000 0.31590  0.71600  0.57240  Biso   1.000  H
  C1653    1.0000 0.39047  0.82184  0.54936  Biso   1.000  C
  C1654    1.0000 0.39471  0.82721  0.52273  Biso   1.000  C
  C1655    1.0000 0.40690  0.84720  0.51320  Biso   1.000  C
  H415     1.0000 0.41440  0.85950  0.52290  Biso   1.000  H
  O1079    1.0000 0.31772  0.87189  0.63893  Biso   1.000  O
  S166     1.0000 0.26566  0.90120  0.67880  Biso   1.000  S
  C1656    1.0000 0.24370  0.89670  0.63580  Biso   1.000  C
  C1657    1.0000 0.28270  0.89070  0.65390  Biso   1.000  C
  C1658    1.0000 0.30890  0.87790  0.65970  Biso   1.000  C
  C1659    1.0000 0.26620  0.89030  0.63210  Biso   1.000  C
  C1660    1.0000 0.23940  0.90520  0.66150  Biso   1.000  C
  Zr167    1.0000 0.86217  0.28756  0.09129  Biso   1.000  Zr
  Zr168    1.0000 0.83279  0.33878  0.12043  Biso   1.000  Zr
  S167     1.0000 0.82049  0.41446  0.06576  Biso   1.000  S
  O1080    1.0000 0.87880  0.37543  0.08529  Biso   1.000  O
  O1081    1.0000 0.83768  0.37116  0.09337  Biso   1.000  O
  O1082    1.0000 0.78807  0.45049  0.04231  Biso   1.000  O
  O1083    1.0000 0.81740  0.47413  0.02434  Biso   1.000  O
  O1084    1.0000 0.79785  0.32715  0.14089  Biso   1.000  O
  O1085    1.0000 0.80549  0.29061  0.16042  Biso   1.000  O
  O1086    1.0000 0.82708  0.25093  0.13740  Biso   1.000  O
  O1087    1.0000 0.83925  0.25221  0.09716  Biso   1.000  O
  O1088    1.0000 0.87684  0.30359  0.05463  Biso   1.000  O
  O1089    1.0000 0.90044  0.33701  0.06442  Biso   1.000  O
  O1090    1.0000 0.86168  0.32560  0.09843  Biso   1.000  O
  O1091    1.0000 0.83066  0.29724  0.11660  Biso   1.000  O
  C1661    1.0000 0.85625  0.38185  0.08343  Biso   1.000  C
  C1662    1.0000 0.85056  0.40381  0.06799  Biso   1.000  C
  C1663    1.0000 0.86660  0.41792  0.05433  Biso   1.000  C
  H416     1.0000 0.88370  0.41510  0.05340  Biso   1.000  H
  C1664    1.0000 0.85384  0.43765  0.04157  Biso   1.000  C
  H417     1.0000 0.86170  0.44890  0.03100  Biso   1.000  H
  C1665    1.0000 0.82930  0.43821  0.04646  Biso   1.000  C
  C1666    1.0000 0.81003  0.45571  0.03670  Biso   1.000  C
  C1667    1.0000 0.79284  0.31007  0.15609  Biso   1.000  C
  C1668    1.0000 0.76946  0.31327  0.17055  Biso   1.000  C
  C1669    1.0000 0.76120  0.30013  0.19056  Biso   1.000  C
  H418     1.0000 0.76950  0.28650  0.19730  Biso   1.000  H
  C1670    1.0000 0.82705  0.24345  0.11532  Biso   1.000  C
  C1671    1.0000 0.81055  0.22178  0.10899  Biso   1.000  C
  C1672    1.0000 0.80704  0.21143  0.08648  Biso   1.000  C
  H419     1.0000 0.81590  0.21600  0.07240  Biso   1.000  H
  C1673    1.0000 0.89047  0.32184  0.04936  Biso   1.000  C
  C1674    1.0000 0.89471  0.32721  0.02273  Biso   1.000  C
  C1675    1.0000 0.90690  0.34720  0.01320  Biso   1.000  C
  H420     1.0000 0.91440  0.35950  0.02290  Biso   1.000  H
  O1092    1.0000 0.81772  0.37189  0.13893  Biso   1.000  O
  S168     1.0000 0.76566  0.40120  0.17880  Biso   1.000  S
  C1676    1.0000 0.74370  0.39670  0.13580  Biso   1.000  C
  C1677    1.0000 0.78270  0.39070  0.15390  Biso   1.000  C
  C1678    1.0000 0.80890  0.37790  0.15970  Biso   1.000  C
  C1679    1.0000 0.76620  0.39030  0.13210  Biso   1.000  C
  C1680    1.0000 0.73940  0.40520  0.16150  Biso   1.000  C
  Zr169    1.0000 0.36217  0.21244  0.40871  Biso   1.000  Zr
  Zr170    1.0000 0.33279  0.16122  0.37957  Biso   1.000  Zr
  S169     1.0000 0.32049  0.08554  0.43424  Biso   1.000  S
  O1093    1.0000 0.37880  0.12457  0.41471  Biso   1.000  O
  O1094    1.0000 0.33768  0.12884  0.40663  Biso   1.000  O
  O1095    1.0000 0.28807  0.04951  0.45769  Biso   1.000  O
  O1096    1.0000 0.31740  0.02587  0.47566  Biso   1.000  O
  O1097    1.0000 0.29785  0.17285  0.35911  Biso   1.000  O
  O1098    1.0000 0.30549  0.20939  0.33958  Biso   1.000  O
  O1099    1.0000 0.32708  0.24907  0.36260  Biso   1.000  O
  O1100    1.0000 0.33925  0.24779  0.40284  Biso   1.000  O
  O1101    1.0000 0.37684  0.19641  0.44537  Biso   1.000  O
  O1102    1.0000 0.40044  0.16299  0.43558  Biso   1.000  O
  O1103    1.0000 0.36168  0.17440  0.40157  Biso   1.000  O
  O1104    1.0000 0.33066  0.20276  0.38340  Biso   1.000  O
  C1681    1.0000 0.35625  0.11815  0.41657  Biso   1.000  C
  C1682    1.0000 0.35056  0.09619  0.43201  Biso   1.000  C
  C1683    1.0000 0.36660  0.08208  0.44567  Biso   1.000  C
  H421     1.0000 0.38370  0.08490  0.44660  Biso   1.000  H
  C1684    1.0000 0.35384  0.06235  0.45843  Biso   1.000  C
  H422     1.0000 0.36170  0.05110  0.46900  Biso   1.000  H
  C1685    1.0000 0.32930  0.06179  0.45354  Biso   1.000  C
  C1686    1.0000 0.31003  0.04429  0.46330  Biso   1.000  C
  C1687    1.0000 0.29284  0.18993  0.34391  Biso   1.000  C
  C1688    1.0000 0.26946  0.18673  0.32945  Biso   1.000  C
  C1689    1.0000 0.26120  0.19987  0.30944  Biso   1.000  C
  H423     1.0000 0.26950  0.21350  0.30270  Biso   1.000  H
  C1690    1.0000 0.32705  0.25655  0.38468  Biso   1.000  C
  C1691    1.0000 0.31055  0.27822  0.39101  Biso   1.000  C
  C1692    1.0000 0.30704  0.28857  0.41352  Biso   1.000  C
  H424     1.0000 0.31590  0.28400  0.42760  Biso   1.000  H
  C1693    1.0000 0.39047  0.17816  0.45064  Biso   1.000  C
  C1694    1.0000 0.39471  0.17279  0.47727  Biso   1.000  C
  C1695    1.0000 0.40690  0.15280  0.48680  Biso   1.000  C
  H425     1.0000 0.41440  0.14050  0.47710  Biso   1.000  H
  O1105    1.0000 0.31772  0.12811  0.36107  Biso   1.000  O
  S170     1.0000 0.26566  0.09880  0.32120  Biso   1.000  S
  C1696    1.0000 0.24370  0.10330  0.36420  Biso   1.000  C
  C1697    1.0000 0.28270  0.10930  0.34610  Biso   1.000  C
  C1698    1.0000 0.30890  0.12210  0.34030  Biso   1.000  C
  C1699    1.0000 0.26620  0.10970  0.36790  Biso   1.000  C
  C1700    1.0000 0.23940  0.09480  0.33850  Biso   1.000  C
  Zr171    1.0000 0.86217  0.71244  0.90871  Biso   1.000  Zr
  Zr172    1.0000 0.83279  0.66122  0.87957  Biso   1.000  Zr
  S171     1.0000 0.82049  0.58554  0.93424  Biso   1.000  S
  O1106    1.0000 0.87880  0.62457  0.91471  Biso   1.000  O
  O1107    1.0000 0.83768  0.62884  0.90663  Biso   1.000  O
  O1108    1.0000 0.78807  0.54951  0.95769  Biso   1.000  O
  O1109    1.0000 0.81740  0.52587  0.97566  Biso   1.000  O
  O1110    1.0000 0.79785  0.67285  0.85911  Biso   1.000  O
  O1111    1.0000 0.80549  0.70939  0.83958  Biso   1.000  O
  O1112    1.0000 0.82708  0.74907  0.86260  Biso   1.000  O
  O1113    1.0000 0.83925  0.74779  0.90284  Biso   1.000  O
  O1114    1.0000 0.87684  0.69641  0.94537  Biso   1.000  O
  O1115    1.0000 0.90044  0.66299  0.93558  Biso   1.000  O
  O1116    1.0000 0.86168  0.67440  0.90157  Biso   1.000  O
  O1117    1.0000 0.83066  0.70276  0.88340  Biso   1.000  O
  C1701    1.0000 0.85625  0.61815  0.91657  Biso   1.000  C
  C1702    1.0000 0.85056  0.59619  0.93201  Biso   1.000  C
  C1703    1.0000 0.86660  0.58208  0.94567  Biso   1.000  C
  H426     1.0000 0.88370  0.58490  0.94660  Biso   1.000  H
  C1704    1.0000 0.85384  0.56235  0.95843  Biso   1.000  C
  H427     1.0000 0.86170  0.55110  0.96900  Biso   1.000  H
  C1705    1.0000 0.82930  0.56179  0.95354  Biso   1.000  C
  C1706    1.0000 0.81003  0.54429  0.96330  Biso   1.000  C
  C1707    1.0000 0.79284  0.68993  0.84391  Biso   1.000  C
  C1708    1.0000 0.76946  0.68673  0.82945  Biso   1.000  C
  C1709    1.0000 0.76120  0.69987  0.80944  Biso   1.000  C
  H428     1.0000 0.76950  0.71350  0.80270  Biso   1.000  H
  C1710    1.0000 0.82705  0.75655  0.88468  Biso   1.000  C
  C1711    1.0000 0.81055  0.77822  0.89101  Biso   1.000  C
  C1712    1.0000 0.80704  0.78857  0.91352  Biso   1.000  C
  H429     1.0000 0.81590  0.78400  0.92760  Biso   1.000  H
  C1713    1.0000 0.89047  0.67816  0.95064  Biso   1.000  C
  C1714    1.0000 0.89471  0.67279  0.97727  Biso   1.000  C
  C1715    1.0000 0.90690  0.65280  0.98680  Biso   1.000  C
  H430     1.0000 0.91440  0.64050  0.97710  Biso   1.000  H
  O1118    1.0000 0.81772  0.62811  0.86107  Biso   1.000  O
  S172     1.0000 0.76566  0.59880  0.82120  Biso   1.000  S
  C1716    1.0000 0.74370  0.60330  0.86420  Biso   1.000  C
  C1717    1.0000 0.78270  0.60930  0.84610  Biso   1.000  C
  C1718    1.0000 0.80890  0.62210  0.84030  Biso   1.000  C
  C1719    1.0000 0.76620  0.60970  0.86790  Biso   1.000  C
  C1720    1.0000 0.73940  0.59480  0.83850  Biso   1.000  C
  Zr173    1.0000 0.63783  0.21244  0.59129  Biso   1.000  Zr
  Zr174    1.0000 0.66721  0.16122  0.62043  Biso   1.000  Zr
  S173     1.0000 0.67951  0.08554  0.56576  Biso   1.000  S
  O1119    1.0000 0.62120  0.12457  0.58529  Biso   1.000  O
  O1120    1.0000 0.66232  0.12884  0.59337  Biso   1.000  O
  O1121    1.0000 0.71193  0.04951  0.54231  Biso   1.000  O
  O1122    1.0000 0.68260  0.02587  0.52434  Biso   1.000  O
  O1123    1.0000 0.70215  0.17285  0.64089  Biso   1.000  O
  O1124    1.0000 0.69451  0.20939  0.66042  Biso   1.000  O
  O1125    1.0000 0.67292  0.24907  0.63740  Biso   1.000  O
  O1126    1.0000 0.66075  0.24779  0.59716  Biso   1.000  O
  O1127    1.0000 0.62316  0.19641  0.55463  Biso   1.000  O
  O1128    1.0000 0.59956  0.16299  0.56442  Biso   1.000  O
  O1129    1.0000 0.63832  0.17440  0.59843  Biso   1.000  O
  O1130    1.0000 0.66934  0.20276  0.61660  Biso   1.000  O
  C1721    1.0000 0.64375  0.11815  0.58343  Biso   1.000  C
  C1722    1.0000 0.64944  0.09619  0.56799  Biso   1.000  C
  C1723    1.0000 0.63340  0.08208  0.55433  Biso   1.000  C
  H431     1.0000 0.61630  0.08490  0.55340  Biso   1.000  H
  C1724    1.0000 0.64616  0.06235  0.54157  Biso   1.000  C
  H432     1.0000 0.63830  0.05110  0.53100  Biso   1.000  H
  C1725    1.0000 0.67070  0.06179  0.54646  Biso   1.000  C
  C1726    1.0000 0.68997  0.04429  0.53670  Biso   1.000  C
  C1727    1.0000 0.70716  0.18993  0.65609  Biso   1.000  C
  C1728    1.0000 0.73054  0.18673  0.67055  Biso   1.000  C
  C1729    1.0000 0.73880  0.19987  0.69056  Biso   1.000  C
  H433     1.0000 0.73050  0.21350  0.69730  Biso   1.000  H
  C1730    1.0000 0.67295  0.25655  0.61532  Biso   1.000  C
  C1731    1.0000 0.68945  0.27822  0.60899  Biso   1.000  C
  C1732    1.0000 0.69296  0.28857  0.58648  Biso   1.000  C
  H434     1.0000 0.68410  0.28400  0.57240  Biso   1.000  H
  C1733    1.0000 0.60953  0.17816  0.54936  Biso   1.000  C
  C1734    1.0000 0.60529  0.17279  0.52273  Biso   1.000  C
  C1735    1.0000 0.59310  0.15280  0.51320  Biso   1.000  C
  H435     1.0000 0.58560  0.14050  0.52290  Biso   1.000  H
  O1131    1.0000 0.68228  0.12811  0.63893  Biso   1.000  O
  S174     1.0000 0.73434  0.09880  0.67880  Biso   1.000  S
  C1736    1.0000 0.75630  0.10330  0.63580  Biso   1.000  C
  C1737    1.0000 0.71730  0.10930  0.65390  Biso   1.000  C
  C1738    1.0000 0.69110  0.12210  0.65970  Biso   1.000  C
  C1739    1.0000 0.73380  0.10970  0.63210  Biso   1.000  C
  C1740    1.0000 0.76060  0.09480  0.66150  Biso   1.000  C
  Zr175    1.0000 0.13783  0.71244  0.09129  Biso   1.000  Zr
  Zr176    1.0000 0.16721  0.66122  0.12043  Biso   1.000  Zr
  S175     1.0000 0.17951  0.58554  0.06576  Biso   1.000  S
  O1132    1.0000 0.12120  0.62457  0.08529  Biso   1.000  O
  O1133    1.0000 0.16232  0.62884  0.09337  Biso   1.000  O
  O1134    1.0000 0.21193  0.54951  0.04231  Biso   1.000  O
  O1135    1.0000 0.18260  0.52587  0.02434  Biso   1.000  O
  O1136    1.0000 0.20215  0.67285  0.14089  Biso   1.000  O
  O1137    1.0000 0.19451  0.70939  0.16042  Biso   1.000  O
  O1138    1.0000 0.17292  0.74907  0.13740  Biso   1.000  O
  O1139    1.0000 0.16075  0.74779  0.09716  Biso   1.000  O
  O1140    1.0000 0.12316  0.69641  0.05463  Biso   1.000  O
  O1141    1.0000 0.09956  0.66299  0.06442  Biso   1.000  O
  O1142    1.0000 0.13832  0.67440  0.09843  Biso   1.000  O
  O1143    1.0000 0.16934  0.70276  0.11660  Biso   1.000  O
  C1741    1.0000 0.14375  0.61815  0.08343  Biso   1.000  C
  C1742    1.0000 0.14944  0.59619  0.06799  Biso   1.000  C
  C1743    1.0000 0.13340  0.58208  0.05433  Biso   1.000  C
  H436     1.0000 0.11630  0.58490  0.05340  Biso   1.000  H
  C1744    1.0000 0.14616  0.56235  0.04157  Biso   1.000  C
  H437     1.0000 0.13830  0.55110  0.03100  Biso   1.000  H
  C1745    1.0000 0.17070  0.56179  0.04646  Biso   1.000  C
  C1746    1.0000 0.18997  0.54429  0.03670  Biso   1.000  C
  C1747    1.0000 0.20716  0.68993  0.15609  Biso   1.000  C
  C1748    1.0000 0.23054  0.68673  0.17055  Biso   1.000  C
  C1749    1.0000 0.23880  0.69987  0.19056  Biso   1.000  C
  H438     1.0000 0.23050  0.71350  0.19730  Biso   1.000  H
  C1750    1.0000 0.17295  0.75655  0.11532  Biso   1.000  C
  C1751    1.0000 0.18945  0.77822  0.10899  Biso   1.000  C
  C1752    1.0000 0.19296  0.78857  0.08648  Biso   1.000  C
  H439     1.0000 0.18410  0.78400  0.07240  Biso   1.000  H
  C1753    1.0000 0.10953  0.67816  0.04936  Biso   1.000  C
  C1754    1.0000 0.10529  0.67279  0.02273  Biso   1.000  C
  C1755    1.0000 0.09310  0.65280  0.01320  Biso   1.000  C
  H440     1.0000 0.08560  0.64050  0.02290  Biso   1.000  H
  O1144    1.0000 0.18228  0.62811  0.13893  Biso   1.000  O
  S176     1.0000 0.23434  0.59880  0.17880  Biso   1.000  S
  C1756    1.0000 0.25630  0.60330  0.13580  Biso   1.000  C
  C1757    1.0000 0.21730  0.60930  0.15390  Biso   1.000  C
  C1758    1.0000 0.19110  0.62210  0.15970  Biso   1.000  C
  C1759    1.0000 0.23380  0.60970  0.13210  Biso   1.000  C
  C1760    1.0000 0.26060  0.59480  0.16150  Biso   1.000  C
  Zr177    1.0000 0.78756  0.59129  0.36217  Biso   1.000  Zr
  Zr178    1.0000 0.83878  0.62043  0.33279  Biso   1.000  Zr
  S177     1.0000 0.91446  0.56576  0.32049  Biso   1.000  S
  O1145    1.0000 0.87543  0.58529  0.37880  Biso   1.000  O
  O1146    1.0000 0.87116  0.59337  0.33768  Biso   1.000  O
  O1147    1.0000 0.95049  0.54231  0.28807  Biso   1.000  O
  O1148    1.0000 0.97413  0.52434  0.31740  Biso   1.000  O
  O1149    1.0000 0.82715  0.64089  0.29785  Biso   1.000  O
  O1150    1.0000 0.79061  0.66042  0.30549  Biso   1.000  O
  O1151    1.0000 0.75093  0.63740  0.32708  Biso   1.000  O
  O1152    1.0000 0.75221  0.59716  0.33925  Biso   1.000  O
  O1153    1.0000 0.80359  0.55463  0.37684  Biso   1.000  O
  O1154    1.0000 0.83701  0.56442  0.40044  Biso   1.000  O
  O1155    1.0000 0.82560  0.59843  0.36168  Biso   1.000  O
  O1156    1.0000 0.79724  0.61660  0.33066  Biso   1.000  O
  C1761    1.0000 0.88185  0.58343  0.35625  Biso   1.000  C
  C1762    1.0000 0.90381  0.56799  0.35056  Biso   1.000  C
  C1763    1.0000 0.91792  0.55433  0.36660  Biso   1.000  C
  H441     1.0000 0.91510  0.55340  0.38370  Biso   1.000  H
  C1764    1.0000 0.93765  0.54157  0.35384  Biso   1.000  C
  H442     1.0000 0.94890  0.53100  0.36170  Biso   1.000  H
  C1765    1.0000 0.93821  0.54646  0.32930  Biso   1.000  C
  C1766    1.0000 0.95571  0.53670  0.31003  Biso   1.000  C
  C1767    1.0000 0.81007  0.65609  0.29284  Biso   1.000  C
  C1768    1.0000 0.81327  0.67055  0.26946  Biso   1.000  C
  C1769    1.0000 0.80013  0.69056  0.26120  Biso   1.000  C
  H443     1.0000 0.78650  0.69730  0.26950  Biso   1.000  H
  C1770    1.0000 0.74345  0.61532  0.32705  Biso   1.000  C
  C1771    1.0000 0.72178  0.60899  0.31055  Biso   1.000  C
  C1772    1.0000 0.71143  0.58648  0.30704  Biso   1.000  C
  H444     1.0000 0.71600  0.57240  0.31590  Biso   1.000  H
  C1773    1.0000 0.82184  0.54936  0.39047  Biso   1.000  C
  C1774    1.0000 0.82721  0.52273  0.39471  Biso   1.000  C
  C1775    1.0000 0.84720  0.51320  0.40690  Biso   1.000  C
  H445     1.0000 0.85950  0.52290  0.41440  Biso   1.000  H
  O1157    1.0000 0.87189  0.63893  0.31772  Biso   1.000  O
  S178     1.0000 0.90120  0.67880  0.26566  Biso   1.000  S
  C1776    1.0000 0.89670  0.63580  0.24370  Biso   1.000  C
  C1777    1.0000 0.89070  0.65390  0.28270  Biso   1.000  C
  C1778    1.0000 0.87790  0.65970  0.30890  Biso   1.000  C
  C1779    1.0000 0.89030  0.63210  0.26620  Biso   1.000  C
  C1780    1.0000 0.90520  0.66150  0.23940  Biso   1.000  C
  Zr179    1.0000 0.28756  0.09129  0.86217  Biso   1.000  Zr
  Zr180    1.0000 0.33878  0.12043  0.83279  Biso   1.000  Zr
  S179     1.0000 0.41446  0.06576  0.82049  Biso   1.000  S
  O1158    1.0000 0.37543  0.08529  0.87880  Biso   1.000  O
  O1159    1.0000 0.37116  0.09337  0.83768  Biso   1.000  O
  O1160    1.0000 0.45049  0.04231  0.78807  Biso   1.000  O
  O1161    1.0000 0.47413  0.02434  0.81740  Biso   1.000  O
  O1162    1.0000 0.32715  0.14089  0.79785  Biso   1.000  O
  O1163    1.0000 0.29061  0.16042  0.80549  Biso   1.000  O
  O1164    1.0000 0.25093  0.13740  0.82708  Biso   1.000  O
  O1165    1.0000 0.25221  0.09716  0.83925  Biso   1.000  O
  O1166    1.0000 0.30359  0.05463  0.87684  Biso   1.000  O
  O1167    1.0000 0.33701  0.06442  0.90044  Biso   1.000  O
  O1168    1.0000 0.32560  0.09843  0.86168  Biso   1.000  O
  O1169    1.0000 0.29724  0.11660  0.83066  Biso   1.000  O
  C1781    1.0000 0.38185  0.08343  0.85625  Biso   1.000  C
  C1782    1.0000 0.40381  0.06799  0.85056  Biso   1.000  C
  C1783    1.0000 0.41792  0.05433  0.86660  Biso   1.000  C
  H446     1.0000 0.41510  0.05340  0.88370  Biso   1.000  H
  C1784    1.0000 0.43765  0.04157  0.85384  Biso   1.000  C
  H447     1.0000 0.44890  0.03100  0.86170  Biso   1.000  H
  C1785    1.0000 0.43821  0.04646  0.82930  Biso   1.000  C
  C1786    1.0000 0.45571  0.03670  0.81003  Biso   1.000  C
  C1787    1.0000 0.31007  0.15609  0.79284  Biso   1.000  C
  C1788    1.0000 0.31327  0.17055  0.76946  Biso   1.000  C
  C1789    1.0000 0.30013  0.19056  0.76120  Biso   1.000  C
  H448     1.0000 0.28650  0.19730  0.76950  Biso   1.000  H
  C1790    1.0000 0.24345  0.11532  0.82705  Biso   1.000  C
  C1791    1.0000 0.22178  0.10899  0.81055  Biso   1.000  C
  C1792    1.0000 0.21143  0.08648  0.80704  Biso   1.000  C
  H449     1.0000 0.21600  0.07240  0.81590  Biso   1.000  H
  C1793    1.0000 0.32184  0.04936  0.89047  Biso   1.000  C
  C1794    1.0000 0.32721  0.02273  0.89471  Biso   1.000  C
  C1795    1.0000 0.34720  0.01320  0.90690  Biso   1.000  C
  H450     1.0000 0.35950  0.02290  0.91440  Biso   1.000  H
  O1170    1.0000 0.37189  0.13893  0.81772  Biso   1.000  O
  S180     1.0000 0.40120  0.17880  0.76566  Biso   1.000  S
  C1796    1.0000 0.39670  0.13580  0.74370  Biso   1.000  C
  C1797    1.0000 0.39070  0.15390  0.78270  Biso   1.000  C
  C1798    1.0000 0.37790  0.15970  0.80890  Biso   1.000  C
  C1799    1.0000 0.39030  0.13210  0.76620  Biso   1.000  C
  C1800    1.0000 0.40520  0.16150  0.73940  Biso   1.000  C
  Zr181    1.0000 0.78756  0.40871  0.63783  Biso   1.000  Zr
  Zr182    1.0000 0.83878  0.37957  0.66721  Biso   1.000  Zr
  S181     1.0000 0.91446  0.43424  0.67951  Biso   1.000  S
  O1171    1.0000 0.87543  0.41471  0.62120  Biso   1.000  O
  O1172    1.0000 0.87116  0.40663  0.66232  Biso   1.000  O
  O1173    1.0000 0.95049  0.45769  0.71193  Biso   1.000  O
  O1174    1.0000 0.97413  0.47566  0.68260  Biso   1.000  O
  O1175    1.0000 0.82715  0.35911  0.70215  Biso   1.000  O
  O1176    1.0000 0.79061  0.33958  0.69451  Biso   1.000  O
  O1177    1.0000 0.75093  0.36260  0.67292  Biso   1.000  O
  O1178    1.0000 0.75221  0.40284  0.66075  Biso   1.000  O
  O1179    1.0000 0.80359  0.44537  0.62316  Biso   1.000  O
  O1180    1.0000 0.83701  0.43558  0.59956  Biso   1.000  O
  O1181    1.0000 0.82560  0.40157  0.63832  Biso   1.000  O
  O1182    1.0000 0.79724  0.38340  0.66934  Biso   1.000  O
  C1801    1.0000 0.88185  0.41657  0.64375  Biso   1.000  C
  C1802    1.0000 0.90381  0.43201  0.64944  Biso   1.000  C
  C1803    1.0000 0.91792  0.44567  0.63340  Biso   1.000  C
  H451     1.0000 0.91510  0.44660  0.61630  Biso   1.000  H
  C1804    1.0000 0.93765  0.45843  0.64616  Biso   1.000  C
  H452     1.0000 0.94890  0.46900  0.63830  Biso   1.000  H
  C1805    1.0000 0.93821  0.45354  0.67070  Biso   1.000  C
  C1806    1.0000 0.95571  0.46330  0.68997  Biso   1.000  C
  C1807    1.0000 0.81007  0.34391  0.70716  Biso   1.000  C
  C1808    1.0000 0.81327  0.32945  0.73054  Biso   1.000  C
  C1809    1.0000 0.80013  0.30944  0.73880  Biso   1.000  C
  H453     1.0000 0.78650  0.30270  0.73050  Biso   1.000  H
  C1810    1.0000 0.74345  0.38468  0.67295  Biso   1.000  C
  C1811    1.0000 0.72178  0.39101  0.68945  Biso   1.000  C
  C1812    1.0000 0.71143  0.41352  0.69296  Biso   1.000  C
  H454     1.0000 0.71600  0.42760  0.68410  Biso   1.000  H
  C1813    1.0000 0.82184  0.45064  0.60953  Biso   1.000  C
  C1814    1.0000 0.82721  0.47727  0.60529  Biso   1.000  C
  C1815    1.0000 0.84720  0.48680  0.59310  Biso   1.000  C
  H455     1.0000 0.85950  0.47710  0.58560  Biso   1.000  H
  O1183    1.0000 0.87189  0.36107  0.68228  Biso   1.000  O
  S182     1.0000 0.90120  0.32120  0.73434  Biso   1.000  S
  C1816    1.0000 0.89670  0.36420  0.75630  Biso   1.000  C
  C1817    1.0000 0.89070  0.34610  0.71730  Biso   1.000  C
  C1818    1.0000 0.87790  0.34030  0.69110  Biso   1.000  C
  C1819    1.0000 0.89030  0.36790  0.73380  Biso   1.000  C
  C1820    1.0000 0.90520  0.33850  0.76060  Biso   1.000  C
  Zr183    1.0000 0.28756  0.90871  0.13783  Biso   1.000  Zr
  Zr184    1.0000 0.33878  0.87957  0.16721  Biso   1.000  Zr
  S183     1.0000 0.41446  0.93424  0.17951  Biso   1.000  S
  O1184    1.0000 0.37543  0.91471  0.12120  Biso   1.000  O
  O1185    1.0000 0.37116  0.90663  0.16232  Biso   1.000  O
  O1186    1.0000 0.45049  0.95769  0.21193  Biso   1.000  O
  O1187    1.0000 0.47413  0.97566  0.18260  Biso   1.000  O
  O1188    1.0000 0.32715  0.85911  0.20215  Biso   1.000  O
  O1189    1.0000 0.29061  0.83958  0.19451  Biso   1.000  O
  O1190    1.0000 0.25093  0.86260  0.17292  Biso   1.000  O
  O1191    1.0000 0.25221  0.90284  0.16075  Biso   1.000  O
  O1192    1.0000 0.30359  0.94537  0.12316  Biso   1.000  O
  O1193    1.0000 0.33701  0.93558  0.09956  Biso   1.000  O
  O1194    1.0000 0.32560  0.90157  0.13832  Biso   1.000  O
  O1195    1.0000 0.29724  0.88340  0.16934  Biso   1.000  O
  C1821    1.0000 0.38185  0.91657  0.14375  Biso   1.000  C
  C1822    1.0000 0.40381  0.93201  0.14944  Biso   1.000  C
  C1823    1.0000 0.41792  0.94567  0.13340  Biso   1.000  C
  H456     1.0000 0.41510  0.94660  0.11630  Biso   1.000  H
  C1824    1.0000 0.43765  0.95843  0.14616  Biso   1.000  C
  H457     1.0000 0.44890  0.96900  0.13830  Biso   1.000  H
  C1825    1.0000 0.43821  0.95354  0.17070  Biso   1.000  C
  C1826    1.0000 0.45571  0.96330  0.18997  Biso   1.000  C
  C1827    1.0000 0.31007  0.84391  0.20716  Biso   1.000  C
  C1828    1.0000 0.31327  0.82945  0.23054  Biso   1.000  C
  C1829    1.0000 0.30013  0.80944  0.23880  Biso   1.000  C
  H458     1.0000 0.28650  0.80270  0.23050  Biso   1.000  H
  C1830    1.0000 0.24345  0.88468  0.17295  Biso   1.000  C
  C1831    1.0000 0.22178  0.89101  0.18945  Biso   1.000  C
  C1832    1.0000 0.21143  0.91352  0.19296  Biso   1.000  C
  H459     1.0000 0.21600  0.92760  0.18410  Biso   1.000  H
  C1833    1.0000 0.32184  0.95064  0.10953  Biso   1.000  C
  C1834    1.0000 0.32721  0.97727  0.10529  Biso   1.000  C
  C1835    1.0000 0.34720  0.98680  0.09310  Biso   1.000  C
  H460     1.0000 0.35950  0.97710  0.08560  Biso   1.000  H
  O1196    1.0000 0.37189  0.86107  0.18228  Biso   1.000  O
  S184     1.0000 0.40120  0.82120  0.23434  Biso   1.000  S
  C1836    1.0000 0.39670  0.86420  0.25630  Biso   1.000  C
  C1837    1.0000 0.39070  0.84610  0.21730  Biso   1.000  C
  C1838    1.0000 0.37790  0.84030  0.19110  Biso   1.000  C
  C1839    1.0000 0.39030  0.86790  0.23380  Biso   1.000  C
  C1840    1.0000 0.40520  0.83850  0.26060  Biso   1.000  C
  Zr185    1.0000 0.21244  0.59129  0.63783  Biso   1.000  Zr
  Zr186    1.0000 0.16122  0.62043  0.66721  Biso   1.000  Zr
  S185     1.0000 0.08554  0.56576  0.67951  Biso   1.000  S
  O1197    1.0000 0.12457  0.58529  0.62120  Biso   1.000  O
  O1198    1.0000 0.12884  0.59337  0.66232  Biso   1.000  O
  O1199    1.0000 0.04951  0.54231  0.71193  Biso   1.000  O
  O1200    1.0000 0.02587  0.52434  0.68260  Biso   1.000  O
  O1201    1.0000 0.17285  0.64089  0.70215  Biso   1.000  O
  O1202    1.0000 0.20939  0.66042  0.69451  Biso   1.000  O
  O1203    1.0000 0.24907  0.63740  0.67292  Biso   1.000  O
  O1204    1.0000 0.24779  0.59716  0.66075  Biso   1.000  O
  O1205    1.0000 0.19641  0.55463  0.62316  Biso   1.000  O
  O1206    1.0000 0.16299  0.56442  0.59956  Biso   1.000  O
  O1207    1.0000 0.17440  0.59843  0.63832  Biso   1.000  O
  O1208    1.0000 0.20276  0.61660  0.66934  Biso   1.000  O
  C1841    1.0000 0.11815  0.58343  0.64375  Biso   1.000  C
  C1842    1.0000 0.09619  0.56799  0.64944  Biso   1.000  C
  C1843    1.0000 0.08208  0.55433  0.63340  Biso   1.000  C
  H461     1.0000 0.08490  0.55340  0.61630  Biso   1.000  H
  C1844    1.0000 0.06235  0.54157  0.64616  Biso   1.000  C
  H462     1.0000 0.05110  0.53100  0.63830  Biso   1.000  H
  C1845    1.0000 0.06179  0.54646  0.67070  Biso   1.000  C
  C1846    1.0000 0.04429  0.53670  0.68997  Biso   1.000  C
  C1847    1.0000 0.18993  0.65609  0.70716  Biso   1.000  C
  C1848    1.0000 0.18673  0.67055  0.73054  Biso   1.000  C
  C1849    1.0000 0.19987  0.69056  0.73880  Biso   1.000  C
  H463     1.0000 0.21350  0.69730  0.73050  Biso   1.000  H
  C1850    1.0000 0.25655  0.61532  0.67295  Biso   1.000  C
  C1851    1.0000 0.27822  0.60899  0.68945  Biso   1.000  C
  C1852    1.0000 0.28857  0.58648  0.69296  Biso   1.000  C
  H464     1.0000 0.28400  0.57240  0.68410  Biso   1.000  H
  C1853    1.0000 0.17816  0.54936  0.60953  Biso   1.000  C
  C1854    1.0000 0.17279  0.52273  0.60529  Biso   1.000  C
  C1855    1.0000 0.15280  0.51320  0.59310  Biso   1.000  C
  H465     1.0000 0.14050  0.52290  0.58560  Biso   1.000  H
  O1209    1.0000 0.12811  0.63893  0.68228  Biso   1.000  O
  S186     1.0000 0.09880  0.67880  0.73434  Biso   1.000  S
  C1856    1.0000 0.10330  0.63580  0.75630  Biso   1.000  C
  C1857    1.0000 0.10930  0.65390  0.71730  Biso   1.000  C
  C1858    1.0000 0.12210  0.65970  0.69110  Biso   1.000  C
  C1859    1.0000 0.10970  0.63210  0.73380  Biso   1.000  C
  C1860    1.0000 0.09480  0.66150  0.76060  Biso   1.000  C
  Zr187    1.0000 0.71244  0.09129  0.13783  Biso   1.000  Zr
  Zr188    1.0000 0.66122  0.12043  0.16721  Biso   1.000  Zr
  S187     1.0000 0.58554  0.06576  0.17951  Biso   1.000  S
  O1210    1.0000 0.62457  0.08529  0.12120  Biso   1.000  O
  O1211    1.0000 0.62884  0.09337  0.16232  Biso   1.000  O
  O1212    1.0000 0.54951  0.04231  0.21193  Biso   1.000  O
  O1213    1.0000 0.52587  0.02434  0.18260  Biso   1.000  O
  O1214    1.0000 0.67285  0.14089  0.20215  Biso   1.000  O
  O1215    1.0000 0.70939  0.16042  0.19451  Biso   1.000  O
  O1216    1.0000 0.74907  0.13740  0.17292  Biso   1.000  O
  O1217    1.0000 0.74779  0.09716  0.16075  Biso   1.000  O
  O1218    1.0000 0.69641  0.05463  0.12316  Biso   1.000  O
  O1219    1.0000 0.66299  0.06442  0.09956  Biso   1.000  O
  O1220    1.0000 0.67440  0.09843  0.13832  Biso   1.000  O
  O1221    1.0000 0.70276  0.11660  0.16934  Biso   1.000  O
  C1861    1.0000 0.61815  0.08343  0.14375  Biso   1.000  C
  C1862    1.0000 0.59619  0.06799  0.14944  Biso   1.000  C
  C1863    1.0000 0.58208  0.05433  0.13340  Biso   1.000  C
  H466     1.0000 0.58490  0.05340  0.11630  Biso   1.000  H
  C1864    1.0000 0.56235  0.04157  0.14616  Biso   1.000  C
  H467     1.0000 0.55110  0.03100  0.13830  Biso   1.000  H
  C1865    1.0000 0.56179  0.04646  0.17070  Biso   1.000  C
  C1866    1.0000 0.54429  0.03670  0.18997  Biso   1.000  C
  C1867    1.0000 0.68993  0.15609  0.20716  Biso   1.000  C
  C1868    1.0000 0.68673  0.17055  0.23054  Biso   1.000  C
  C1869    1.0000 0.69987  0.19056  0.23880  Biso   1.000  C
  H468     1.0000 0.71350  0.19730  0.23050  Biso   1.000  H
  C1870    1.0000 0.75655  0.11532  0.17295  Biso   1.000  C
  C1871    1.0000 0.77822  0.10899  0.18945  Biso   1.000  C
  C1872    1.0000 0.78857  0.08648  0.19296  Biso   1.000  C
  H469     1.0000 0.78400  0.07240  0.18410  Biso   1.000  H
  C1873    1.0000 0.67816  0.04936  0.10953  Biso   1.000  C
  C1874    1.0000 0.67279  0.02273  0.10529  Biso   1.000  C
  C1875    1.0000 0.65280  0.01320  0.09310  Biso   1.000  C
  H470     1.0000 0.64050  0.02290  0.08560  Biso   1.000  H
  O1222    1.0000 0.62811  0.13893  0.18228  Biso   1.000  O
  S188     1.0000 0.59880  0.17880  0.23434  Biso   1.000  S
  C1876    1.0000 0.60330  0.13580  0.25630  Biso   1.000  C
  C1877    1.0000 0.60930  0.15390  0.21730  Biso   1.000  C
  C1878    1.0000 0.62210  0.15970  0.19110  Biso   1.000  C
  C1879    1.0000 0.60970  0.13210  0.23380  Biso   1.000  C
  C1880    1.0000 0.59480  0.16150  0.26060  Biso   1.000  C
  Zr189    1.0000 0.21244  0.40871  0.36217  Biso   1.000  Zr
  Zr190    1.0000 0.16122  0.37957  0.33279  Biso   1.000  Zr
  S189     1.0000 0.08554  0.43424  0.32049  Biso   1.000  S
  O1223    1.0000 0.12457  0.41471  0.37880  Biso   1.000  O
  O1224    1.0000 0.12884  0.40663  0.33768  Biso   1.000  O
  O1225    1.0000 0.04951  0.45769  0.28807  Biso   1.000  O
  O1226    1.0000 0.02587  0.47566  0.31740  Biso   1.000  O
  O1227    1.0000 0.17285  0.35911  0.29785  Biso   1.000  O
  O1228    1.0000 0.20939  0.33958  0.30549  Biso   1.000  O
  O1229    1.0000 0.24907  0.36260  0.32708  Biso   1.000  O
  O1230    1.0000 0.24779  0.40284  0.33925  Biso   1.000  O
  O1231    1.0000 0.19641  0.44537  0.37684  Biso   1.000  O
  O1232    1.0000 0.16299  0.43558  0.40044  Biso   1.000  O
  O1233    1.0000 0.17440  0.40157  0.36168  Biso   1.000  O
  O1234    1.0000 0.20276  0.38340  0.33066  Biso   1.000  O
  C1881    1.0000 0.11815  0.41657  0.35625  Biso   1.000  C
  C1882    1.0000 0.09619  0.43201  0.35056  Biso   1.000  C
  C1883    1.0000 0.08208  0.44567  0.36660  Biso   1.000  C
  H471     1.0000 0.08490  0.44660  0.38370  Biso   1.000  H
  C1884    1.0000 0.06235  0.45843  0.35384  Biso   1.000  C
  H472     1.0000 0.05110  0.46900  0.36170  Biso   1.000  H
  C1885    1.0000 0.06179  0.45354  0.32930  Biso   1.000  C
  C1886    1.0000 0.04429  0.46330  0.31003  Biso   1.000  C
  C1887    1.0000 0.18993  0.34391  0.29284  Biso   1.000  C
  C1888    1.0000 0.18673  0.32945  0.26946  Biso   1.000  C
  C1889    1.0000 0.19987  0.30944  0.26120  Biso   1.000  C
  H473     1.0000 0.21350  0.30270  0.26950  Biso   1.000  H
  C1890    1.0000 0.25655  0.38468  0.32705  Biso   1.000  C
  C1891    1.0000 0.27822  0.39101  0.31055  Biso   1.000  C
  C1892    1.0000 0.28857  0.41352  0.30704  Biso   1.000  C
  H474     1.0000 0.28400  0.42760  0.31590  Biso   1.000  H
  C1893    1.0000 0.17816  0.45064  0.39047  Biso   1.000  C
  C1894    1.0000 0.17279  0.47727  0.39471  Biso   1.000  C
  C1895    1.0000 0.15280  0.48680  0.40690  Biso   1.000  C
  H475     1.0000 0.14050  0.47710  0.41440  Biso   1.000  H
  O1235    1.0000 0.12811  0.36107  0.31772  Biso   1.000  O
  S190     1.0000 0.09880  0.32120  0.26566  Biso   1.000  S
  C1896    1.0000 0.10330  0.36420  0.24370  Biso   1.000  C
  C1897    1.0000 0.10930  0.34610  0.28270  Biso   1.000  C
  C1898    1.0000 0.12210  0.34030  0.30890  Biso   1.000  C
  C1899    1.0000 0.10970  0.36790  0.26620  Biso   1.000  C
  C1900    1.0000 0.09480  0.33850  0.23940  Biso   1.000  C
  Zr191    1.0000 0.71244  0.90871  0.86217  Biso   1.000  Zr
  Zr192    1.0000 0.66122  0.87957  0.83279  Biso   1.000  Zr
  S191     1.0000 0.58554  0.93424  0.82049  Biso   1.000  S
  O1236    1.0000 0.62457  0.91471  0.87880  Biso   1.000  O
  O1237    1.0000 0.62884  0.90663  0.83768  Biso   1.000  O
  O1238    1.0000 0.54951  0.95769  0.78807  Biso   1.000  O
  O1239    1.0000 0.52587  0.97566  0.81740  Biso   1.000  O
  O1240    1.0000 0.67285  0.85911  0.79785  Biso   1.000  O
  O1241    1.0000 0.70939  0.83958  0.80549  Biso   1.000  O
  O1242    1.0000 0.74907  0.86260  0.82708  Biso   1.000  O
  O1243    1.0000 0.74779  0.90284  0.83925  Biso   1.000  O
  O1244    1.0000 0.69641  0.94537  0.87684  Biso   1.000  O
  O1245    1.0000 0.66299  0.93558  0.90044  Biso   1.000  O
  O1246    1.0000 0.67440  0.90157  0.86168  Biso   1.000  O
  O1247    1.0000 0.70276  0.88340  0.83066  Biso   1.000  O
  C1901    1.0000 0.61815  0.91657  0.85625  Biso   1.000  C
  C1902    1.0000 0.59619  0.93201  0.85056  Biso   1.000  C
  C1903    1.0000 0.58208  0.94567  0.86660  Biso   1.000  C
  H476     1.0000 0.58490  0.94660  0.88370  Biso   1.000  H
  C1904    1.0000 0.56235  0.95843  0.85384  Biso   1.000  C
  H477     1.0000 0.55110  0.96900  0.86170  Biso   1.000  H
  C1905    1.0000 0.56179  0.95354  0.82930  Biso   1.000  C
  C1906    1.0000 0.54429  0.96330  0.81003  Biso   1.000  C
  C1907    1.0000 0.68993  0.84391  0.79284  Biso   1.000  C
  C1908    1.0000 0.68673  0.82945  0.76946  Biso   1.000  C
  C1909    1.0000 0.69987  0.80944  0.76120  Biso   1.000  C
  H478     1.0000 0.71350  0.80270  0.76950  Biso   1.000  H
  C1910    1.0000 0.75655  0.88468  0.82705  Biso   1.000  C
  C1911    1.0000 0.77822  0.89101  0.81055  Biso   1.000  C
  C1912    1.0000 0.78857  0.91352  0.80704  Biso   1.000  C
  H479     1.0000 0.78400  0.92760  0.81590  Biso   1.000  H
  C1913    1.0000 0.67816  0.95064  0.89047  Biso   1.000  C
  C1914    1.0000 0.67279  0.97727  0.89471  Biso   1.000  C
  C1915    1.0000 0.65280  0.98680  0.90690  Biso   1.000  C
  H480     1.0000 0.64050  0.97710  0.91440  Biso   1.000  H
  O1248    1.0000 0.62811  0.86107  0.81772  Biso   1.000  O
  S192     1.0000 0.59880  0.82120  0.76566  Biso   1.000  S
  C1916    1.0000 0.60330  0.86420  0.74370  Biso   1.000  C
  C1917    1.0000 0.60930  0.84610  0.78270  Biso   1.000  C
  C1918    1.0000 0.62210  0.84030  0.80890  Biso   1.000  C
  C1919    1.0000 0.60970  0.86790  0.76620  Biso   1.000  C
  C1920    1.0000 0.59480  0.83850  0.73940  Biso   1.000  C
  Zr193    1.0000 0.34568  0.34568  0.21607  Biso   1.000  Zr
  Zr194    1.0000 0.39567  0.39567  0.15742  Biso   1.000  Zr
  O1249    1.0000 0.37245  0.37245  0.22174  Biso   1.000  O
  O1250    1.0000 0.40127  0.40127  0.20061  Biso   1.000  O
  O1251    1.0000 0.34743  0.34743  0.17724  Biso   1.000  O
  O1252    1.0000 0.36807  0.36807  0.14163  Biso   1.000  O
  O1253    1.0000 0.31780  0.31780  0.11800  Biso   1.000  O
  Zr195    1.0000 0.84568  0.84568  0.71607  Biso   1.000  Zr
  Zr196    1.0000 0.89567  0.89567  0.65742  Biso   1.000  Zr
  O1254    1.0000 0.87245  0.87245  0.72174  Biso   1.000  O
  O1255    1.0000 0.90127  0.90127  0.70061  Biso   1.000  O
  O1256    1.0000 0.84743  0.84743  0.67724  Biso   1.000  O
  O1257    1.0000 0.86807  0.86807  0.64163  Biso   1.000  O
  O1258    1.0000 0.81780  0.81780  0.61800  Biso   1.000  O
  Zr197    1.0000 0.65432  0.65432  0.21607  Biso   1.000  Zr
  Zr198    1.0000 0.60433  0.60433  0.15742  Biso   1.000  Zr
  O1259    1.0000 0.62755  0.62755  0.22174  Biso   1.000  O
  O1260    1.0000 0.59873  0.59873  0.20061  Biso   1.000  O
  O1261    1.0000 0.65257  0.65257  0.17724  Biso   1.000  O
  O1262    1.0000 0.63193  0.63193  0.14163  Biso   1.000  O
  O1263    1.0000 0.68220  0.68220  0.11800  Biso   1.000  O
  Zr199    1.0000 0.15432  0.15432  0.71607  Biso   1.000  Zr
  Zr200    1.0000 0.10433  0.10433  0.65742  Biso   1.000  Zr
  O1264    1.0000 0.12755  0.12755  0.72174  Biso   1.000  O
  O1265    1.0000 0.09873  0.09873  0.70061  Biso   1.000  O
  O1266    1.0000 0.15257  0.15257  0.67724  Biso   1.000  O
  O1267    1.0000 0.13193  0.13193  0.64163  Biso   1.000  O
  O1268    1.0000 0.18220  0.18220  0.61800  Biso   1.000  O
  Zr201    1.0000 0.65432  0.34568  0.78393  Biso   1.000  Zr
  Zr202    1.0000 0.60433  0.39567  0.84258  Biso   1.000  Zr
  O1269    1.0000 0.62755  0.37245  0.77826  Biso   1.000  O
  O1270    1.0000 0.59873  0.40127  0.79939  Biso   1.000  O
  O1271    1.0000 0.65257  0.34743  0.82276  Biso   1.000  O
  O1272    1.0000 0.63193  0.36807  0.85837  Biso   1.000  O
  O1273    1.0000 0.68220  0.31780  0.88200  Biso   1.000  O
  Zr203    1.0000 0.15432  0.84568  0.28393  Biso   1.000  Zr
  Zr204    1.0000 0.10433  0.89567  0.34258  Biso   1.000  Zr
  O1274    1.0000 0.12755  0.87245  0.27826  Biso   1.000  O
  O1275    1.0000 0.09873  0.90127  0.29939  Biso   1.000  O
  O1276    1.0000 0.15257  0.84743  0.32276  Biso   1.000  O
  O1277    1.0000 0.13193  0.86807  0.35837  Biso   1.000  O
  O1278    1.0000 0.18220  0.81780  0.38200  Biso   1.000  O
  Zr205    1.0000 0.34568  0.65432  0.78393  Biso   1.000  Zr
  Zr206    1.0000 0.39567  0.60433  0.84258  Biso   1.000  Zr
  O1279    1.0000 0.37245  0.62755  0.77826  Biso   1.000  O
  O1280    1.0000 0.40127  0.59873  0.79939  Biso   1.000  O
  O1281    1.0000 0.34743  0.65257  0.82276  Biso   1.000  O
  O1282    1.0000 0.36807  0.63193  0.85837  Biso   1.000  O
  O1283    1.0000 0.31780  0.68220  0.88200  Biso   1.000  O
  Zr207    1.0000 0.84568  0.15432  0.28393  Biso   1.000  Zr
  Zr208    1.0000 0.89567  0.10433  0.34258  Biso   1.000  Zr
  O1284    1.0000 0.87245  0.12755  0.27826  Biso   1.000  O
  O1285    1.0000 0.90127  0.09873  0.29939  Biso   1.000  O
  O1286    1.0000 0.84743  0.15257  0.32276  Biso   1.000  O
  O1287    1.0000 0.86807  0.13193  0.35837  Biso   1.000  O
  O1288    1.0000 0.81780  0.18220  0.38200  Biso   1.000  O
  Zr209    1.0000 0.21607  0.34568  0.34568  Biso   1.000  Zr
  Zr210    1.0000 0.15742  0.39567  0.39567  Biso   1.000  Zr
  O1289    1.0000 0.22174  0.37245  0.37245  Biso   1.000  O
  O1290    1.0000 0.20061  0.40127  0.40127  Biso   1.000  O
  O1291    1.0000 0.17724  0.34743  0.34743  Biso   1.000  O
  O1292    1.0000 0.14163  0.36807  0.36807  Biso   1.000  O
  O1293    1.0000 0.11800  0.31780  0.31780  Biso   1.000  O
  Zr211    1.0000 0.71607  0.84568  0.84568  Biso   1.000  Zr
  Zr212    1.0000 0.65742  0.89567  0.89567  Biso   1.000  Zr
  O1294    1.0000 0.72174  0.87245  0.87245  Biso   1.000  O
  O1295    1.0000 0.70061  0.90127  0.90127  Biso   1.000  O
  O1296    1.0000 0.67724  0.84743  0.84743  Biso   1.000  O
  O1297    1.0000 0.64163  0.86807  0.86807  Biso   1.000  O
  O1298    1.0000 0.61800  0.81780  0.81780  Biso   1.000  O
  Zr213    1.0000 0.21607  0.65432  0.65432  Biso   1.000  Zr
  Zr214    1.0000 0.15742  0.60433  0.60433  Biso   1.000  Zr
  O1299    1.0000 0.22174  0.62755  0.62755  Biso   1.000  O
  O1300    1.0000 0.20061  0.59873  0.59873  Biso   1.000  O
  O1301    1.0000 0.17724  0.65257  0.65257  Biso   1.000  O
  O1302    1.0000 0.14163  0.63193  0.63193  Biso   1.000  O
  O1303    1.0000 0.11800  0.68220  0.68220  Biso   1.000  O
  Zr215    1.0000 0.71607  0.15432  0.15432  Biso   1.000  Zr
  Zr216    1.0000 0.65742  0.10433  0.10433  Biso   1.000  Zr
  O1304    1.0000 0.72174  0.12755  0.12755  Biso   1.000  O
  O1305    1.0000 0.70061  0.09873  0.09873  Biso   1.000  O
  O1306    1.0000 0.67724  0.15257  0.15257  Biso   1.000  O
  O1307    1.0000 0.64163  0.13193  0.13193  Biso   1.000  O
  O1308    1.0000 0.61800  0.18220  0.18220  Biso   1.000  O
  Zr217    1.0000 0.78393  0.65432  0.34568  Biso   1.000  Zr
  Zr218    1.0000 0.84258  0.60433  0.39567  Biso   1.000  Zr
  O1309    1.0000 0.77826  0.62755  0.37245  Biso   1.000  O
  O1310    1.0000 0.79939  0.59873  0.40127  Biso   1.000  O
  O1311    1.0000 0.82276  0.65257  0.34743  Biso   1.000  O
  O1312    1.0000 0.85837  0.63193  0.36807  Biso   1.000  O
  O1313    1.0000 0.88200  0.68220  0.31780  Biso   1.000  O
  Zr219    1.0000 0.28393  0.15432  0.84568  Biso   1.000  Zr
  Zr220    1.0000 0.34258  0.10433  0.89567  Biso   1.000  Zr
  O1314    1.0000 0.27826  0.12755  0.87245  Biso   1.000  O
  O1315    1.0000 0.29939  0.09873  0.90127  Biso   1.000  O
  O1316    1.0000 0.32276  0.15257  0.84743  Biso   1.000  O
  O1317    1.0000 0.35837  0.13193  0.86807  Biso   1.000  O
  O1318    1.0000 0.38200  0.18220  0.81780  Biso   1.000  O
  Zr221    1.0000 0.78393  0.34568  0.65432  Biso   1.000  Zr
  Zr222    1.0000 0.84258  0.39567  0.60433  Biso   1.000  Zr
  O1319    1.0000 0.77826  0.37245  0.62755  Biso   1.000  O
  O1320    1.0000 0.79939  0.40127  0.59873  Biso   1.000  O
  O1321    1.0000 0.82276  0.34743  0.65257  Biso   1.000  O
  O1322    1.0000 0.85837  0.36807  0.63193  Biso   1.000  O
  O1323    1.0000 0.88200  0.31780  0.68220  Biso   1.000  O
  Zr223    1.0000 0.28393  0.84568  0.15432  Biso   1.000  Zr
  Zr224    1.0000 0.34258  0.89567  0.10433  Biso   1.000  Zr
  O1324    1.0000 0.27826  0.87245  0.12755  Biso   1.000  O
  O1325    1.0000 0.29939  0.90127  0.09873  Biso   1.000  O
  O1326    1.0000 0.32276  0.84743  0.15257  Biso   1.000  O
  O1327    1.0000 0.35837  0.86807  0.13193  Biso   1.000  O
  O1328    1.0000 0.38200  0.81780  0.18220  Biso   1.000  O
  Zr225    1.0000 0.34568  0.21607  0.34568  Biso   1.000  Zr
  Zr226    1.0000 0.39567  0.15742  0.39567  Biso   1.000  Zr
  O1329    1.0000 0.37245  0.22174  0.37245  Biso   1.000  O
  O1330    1.0000 0.40127  0.20061  0.40127  Biso   1.000  O
  O1331    1.0000 0.34743  0.17724  0.34743  Biso   1.000  O
  O1332    1.0000 0.36807  0.14163  0.36807  Biso   1.000  O
  O1333    1.0000 0.31780  0.11800  0.31780  Biso   1.000  O
  Zr227    1.0000 0.84568  0.71607  0.84568  Biso   1.000  Zr
  Zr228    1.0000 0.89567  0.65742  0.89567  Biso   1.000  Zr
  O1334    1.0000 0.87245  0.72174  0.87245  Biso   1.000  O
  O1335    1.0000 0.90127  0.70061  0.90127  Biso   1.000  O
  O1336    1.0000 0.84743  0.67724  0.84743  Biso   1.000  O
  O1337    1.0000 0.86807  0.64163  0.86807  Biso   1.000  O
  O1338    1.0000 0.81780  0.61800  0.81780  Biso   1.000  O
  Zr229    1.0000 0.65432  0.21607  0.65432  Biso   1.000  Zr
  Zr230    1.0000 0.60433  0.15742  0.60433  Biso   1.000  Zr
  O1339    1.0000 0.62755  0.22174  0.62755  Biso   1.000  O
  O1340    1.0000 0.59873  0.20061  0.59873  Biso   1.000  O
  O1341    1.0000 0.65257  0.17724  0.65257  Biso   1.000  O
  O1342    1.0000 0.63193  0.14163  0.63193  Biso   1.000  O
  O1343    1.0000 0.68220  0.11800  0.68220  Biso   1.000  O
  Zr231    1.0000 0.15432  0.71607  0.15432  Biso   1.000  Zr
  Zr232    1.0000 0.10433  0.65742  0.10433  Biso   1.000  Zr
  O1344    1.0000 0.12755  0.72174  0.12755  Biso   1.000  O
  O1345    1.0000 0.09873  0.70061  0.09873  Biso   1.000  O
  O1346    1.0000 0.15257  0.67724  0.15257  Biso   1.000  O
  O1347    1.0000 0.13193  0.64163  0.13193  Biso   1.000  O
  O1348    1.0000 0.18220  0.61800  0.18220  Biso   1.000  O
  Zr233    1.0000 0.34568  0.78393  0.65432  Biso   1.000  Zr
  Zr234    1.0000 0.39567  0.84258  0.60433  Biso   1.000  Zr
  O1349    1.0000 0.37245  0.77826  0.62755  Biso   1.000  O
  O1350    1.0000 0.40127  0.79939  0.59873  Biso   1.000  O
  O1351    1.0000 0.34743  0.82276  0.65257  Biso   1.000  O
  O1352    1.0000 0.36807  0.85837  0.63193  Biso   1.000  O
  O1353    1.0000 0.31780  0.88200  0.68220  Biso   1.000  O
  Zr235    1.0000 0.84568  0.28393  0.15432  Biso   1.000  Zr
  Zr236    1.0000 0.89567  0.34258  0.10433  Biso   1.000  Zr
  O1354    1.0000 0.87245  0.27826  0.12755  Biso   1.000  O
  O1355    1.0000 0.90127  0.29939  0.09873  Biso   1.000  O
  O1356    1.0000 0.84743  0.32276  0.15257  Biso   1.000  O
  O1357    1.0000 0.86807  0.35837  0.13193  Biso   1.000  O
  O1358    1.0000 0.81780  0.38200  0.18220  Biso   1.000  O
  Zr237    1.0000 0.65432  0.78393  0.34568  Biso   1.000  Zr
  Zr238    1.0000 0.60433  0.84258  0.39567  Biso   1.000  Zr
  O1359    1.0000 0.62755  0.77826  0.37245  Biso   1.000  O
  O1360    1.0000 0.59873  0.79939  0.40127  Biso   1.000  O
  O1361    1.0000 0.65257  0.82276  0.34743  Biso   1.000  O
  O1362    1.0000 0.63193  0.85837  0.36807  Biso   1.000  O
  O1363    1.0000 0.68220  0.88200  0.31780  Biso   1.000  O
  Zr239    1.0000 0.15432  0.28393  0.84568  Biso   1.000  Zr
  Zr240    1.0000 0.10433  0.34258  0.89567  Biso   1.000  Zr
  O1364    1.0000 0.12755  0.27826  0.87245  Biso   1.000  O
  O1365    1.0000 0.09873  0.29939  0.90127  Biso   1.000  O
  O1366    1.0000 0.15257  0.32276  0.84743  Biso   1.000  O
  O1367    1.0000 0.13193  0.35837  0.86807  Biso   1.000  O
  O1368    1.0000 0.18220  0.38200  0.81780  Biso   1.000  O
  Zr241    1.0000 0.34568  0.34568  0.78393  Biso   1.000  Zr
  Zr242    1.0000 0.39567  0.39567  0.84258  Biso   1.000  Zr
  O1369    1.0000 0.37245  0.37245  0.77826  Biso   1.000  O
  O1370    1.0000 0.40127  0.40127  0.79939  Biso   1.000  O
  O1371    1.0000 0.34743  0.34743  0.82276  Biso   1.000  O
  O1372    1.0000 0.36807  0.36807  0.85837  Biso   1.000  O
  O1373    1.0000 0.31780  0.31780  0.88200  Biso   1.000  O
  Zr243    1.0000 0.84568  0.84568  0.28393  Biso   1.000  Zr
  Zr244    1.0000 0.89567  0.89567  0.34258  Biso   1.000  Zr
  O1374    1.0000 0.87245  0.87245  0.27826  Biso   1.000  O
  O1375    1.0000 0.90127  0.90127  0.29939  Biso   1.000  O
  O1376    1.0000 0.84743  0.84743  0.32276  Biso   1.000  O
  O1377    1.0000 0.86807  0.86807  0.35837  Biso   1.000  O
  O1378    1.0000 0.81780  0.81780  0.38200  Biso   1.000  O
  Zr245    1.0000 0.65432  0.65432  0.78393  Biso   1.000  Zr
  Zr246    1.0000 0.60433  0.60433  0.84258  Biso   1.000  Zr
  O1379    1.0000 0.62755  0.62755  0.77826  Biso   1.000  O
  O1380    1.0000 0.59873  0.59873  0.79939  Biso   1.000  O
  O1381    1.0000 0.65257  0.65257  0.82276  Biso   1.000  O
  O1382    1.0000 0.63193  0.63193  0.85837  Biso   1.000  O
  O1383    1.0000 0.68220  0.68220  0.88200  Biso   1.000  O
  Zr247    1.0000 0.15432  0.15432  0.28393  Biso   1.000  Zr
  Zr248    1.0000 0.10433  0.10433  0.34258  Biso   1.000  Zr
  O1384    1.0000 0.12755  0.12755  0.27826  Biso   1.000  O
  O1385    1.0000 0.09873  0.09873  0.29939  Biso   1.000  O
  O1386    1.0000 0.15257  0.15257  0.32276  Biso   1.000  O
  O1387    1.0000 0.13193  0.13193  0.35837  Biso   1.000  O
  O1388    1.0000 0.18220  0.18220  0.38200  Biso   1.000  O
  Zr249    1.0000 0.34568  0.65432  0.21607  Biso   1.000  Zr
  Zr250    1.0000 0.39567  0.60433  0.15742  Biso   1.000  Zr
  O1389    1.0000 0.37245  0.62755  0.22174  Biso   1.000  O
  O1390    1.0000 0.40127  0.59873  0.20061  Biso   1.000  O
  O1391    1.0000 0.34743  0.65257  0.17724  Biso   1.000  O
  O1392    1.0000 0.36807  0.63193  0.14163  Biso   1.000  O
  O1393    1.0000 0.31780  0.68220  0.11800  Biso   1.000  O
  Zr251    1.0000 0.84568  0.15432  0.71607  Biso   1.000  Zr
  Zr252    1.0000 0.89567  0.10433  0.65742  Biso   1.000  Zr
  O1394    1.0000 0.87245  0.12755  0.72174  Biso   1.000  O
  O1395    1.0000 0.90127  0.09873  0.70061  Biso   1.000  O
  O1396    1.0000 0.84743  0.15257  0.67724  Biso   1.000  O
  O1397    1.0000 0.86807  0.13193  0.64163  Biso   1.000  O
  O1398    1.0000 0.81780  0.18220  0.61800  Biso   1.000  O
  Zr253    1.0000 0.65432  0.34568  0.21607  Biso   1.000  Zr
  Zr254    1.0000 0.60433  0.39567  0.15742  Biso   1.000  Zr
  O1399    1.0000 0.62755  0.37245  0.22174  Biso   1.000  O
  O1400    1.0000 0.59873  0.40127  0.20061  Biso   1.000  O
  O1401    1.0000 0.65257  0.34743  0.17724  Biso   1.000  O
  O1402    1.0000 0.63193  0.36807  0.14163  Biso   1.000  O
  O1403    1.0000 0.68220  0.31780  0.11800  Biso   1.000  O
  Zr255    1.0000 0.15432  0.84568  0.71607  Biso   1.000  Zr
  Zr256    1.0000 0.10433  0.89567  0.65742  Biso   1.000  Zr
  O1404    1.0000 0.12755  0.87245  0.72174  Biso   1.000  O
  O1405    1.0000 0.09873  0.90127  0.70061  Biso   1.000  O
  O1406    1.0000 0.15257  0.84743  0.67724  Biso   1.000  O
  O1407    1.0000 0.13193  0.86807  0.64163  Biso   1.000  O
  O1408    1.0000 0.18220  0.81780  0.61800  Biso   1.000  O
  Zr257    1.0000 0.34568  0.21607  0.65432  Biso   1.000  Zr
  Zr258    1.0000 0.39567  0.15742  0.60433  Biso   1.000  Zr
  O1409    1.0000 0.37245  0.22174  0.62755  Biso   1.000  O
  O1410    1.0000 0.40127  0.20061  0.59873  Biso   1.000  O
  O1411    1.0000 0.34743  0.17724  0.65257  Biso   1.000  O
  O1412    1.0000 0.36807  0.14163  0.63193  Biso   1.000  O
  O1413    1.0000 0.31780  0.11800  0.68220  Biso   1.000  O
  Zr259    1.0000 0.84568  0.71607  0.15432  Biso   1.000  Zr
  Zr260    1.0000 0.89567  0.65742  0.10433  Biso   1.000  Zr
  O1414    1.0000 0.87245  0.72174  0.12755  Biso   1.000  O
  O1415    1.0000 0.90127  0.70061  0.09873  Biso   1.000  O
  O1416    1.0000 0.84743  0.67724  0.15257  Biso   1.000  O
  O1417    1.0000 0.86807  0.64163  0.13193  Biso   1.000  O
  O1418    1.0000 0.81780  0.61800  0.18220  Biso   1.000  O
  Zr261    1.0000 0.65432  0.21607  0.34568  Biso   1.000  Zr
  Zr262    1.0000 0.60433  0.15742  0.39567  Biso   1.000  Zr
  O1419    1.0000 0.62755  0.22174  0.37245  Biso   1.000  O
  O1420    1.0000 0.59873  0.20061  0.40127  Biso   1.000  O
  O1421    1.0000 0.65257  0.17724  0.34743  Biso   1.000  O
  O1422    1.0000 0.63193  0.14163  0.36807  Biso   1.000  O
  O1423    1.0000 0.68220  0.11800  0.31780  Biso   1.000  O
  Zr263    1.0000 0.15432  0.71607  0.84568  Biso   1.000  Zr
  Zr264    1.0000 0.10433  0.65742  0.89567  Biso   1.000  Zr
  O1424    1.0000 0.12755  0.72174  0.87245  Biso   1.000  O
  O1425    1.0000 0.09873  0.70061  0.90127  Biso   1.000  O
  O1426    1.0000 0.15257  0.67724  0.84743  Biso   1.000  O
  O1427    1.0000 0.13193  0.64163  0.86807  Biso   1.000  O
  O1428    1.0000 0.18220  0.61800  0.81780  Biso   1.000  O
  Zr265    1.0000 0.65432  0.78393  0.65432  Biso   1.000  Zr
  Zr266    1.0000 0.60433  0.84258  0.60433  Biso   1.000  Zr
  O1429    1.0000 0.62755  0.77826  0.62755  Biso   1.000  O
  O1430    1.0000 0.59873  0.79939  0.59873  Biso   1.000  O
  O1431    1.0000 0.65257  0.82276  0.65257  Biso   1.000  O
  O1432    1.0000 0.63193  0.85837  0.63193  Biso   1.000  O
  O1433    1.0000 0.68220  0.88200  0.68220  Biso   1.000  O
  Zr267    1.0000 0.15432  0.28393  0.15432  Biso   1.000  Zr
  Zr268    1.0000 0.10433  0.34258  0.10433  Biso   1.000  Zr
  O1434    1.0000 0.12755  0.27826  0.12755  Biso   1.000  O
  O1435    1.0000 0.09873  0.29939  0.09873  Biso   1.000  O
  O1436    1.0000 0.15257  0.32276  0.15257  Biso   1.000  O
  O1437    1.0000 0.13193  0.35837  0.13193  Biso   1.000  O
  O1438    1.0000 0.18220  0.38200  0.18220  Biso   1.000  O
  Zr269    1.0000 0.34568  0.78393  0.34568  Biso   1.000  Zr
  Zr270    1.0000 0.39567  0.84258  0.39567  Biso   1.000  Zr
  O1439    1.0000 0.37245  0.77826  0.37245  Biso   1.000  O
  O1440    1.0000 0.40127  0.79939  0.40127  Biso   1.000  O
  O1441    1.0000 0.34743  0.82276  0.34743  Biso   1.000  O
  O1442    1.0000 0.36807  0.85837  0.36807  Biso   1.000  O
  O1443    1.0000 0.31780  0.88200  0.31780  Biso   1.000  O
  Zr271    1.0000 0.84568  0.28393  0.84568  Biso   1.000  Zr
  Zr272    1.0000 0.89567  0.34258  0.89567  Biso   1.000  Zr
  O1444    1.0000 0.87245  0.27826  0.87245  Biso   1.000  O
  O1445    1.0000 0.90127  0.29939  0.90127  Biso   1.000  O
  O1446    1.0000 0.84743  0.32276  0.84743  Biso   1.000  O
  O1447    1.0000 0.86807  0.35837  0.86807  Biso   1.000  O
  O1448    1.0000 0.81780  0.38200  0.81780  Biso   1.000  O
  Zr273    1.0000 0.21607  0.34568  0.65432  Biso   1.000  Zr
  Zr274    1.0000 0.15742  0.39567  0.60433  Biso   1.000  Zr
  O1449    1.0000 0.22174  0.37245  0.62755  Biso   1.000  O
  O1450    1.0000 0.20061  0.40127  0.59873  Biso   1.000  O
  O1451    1.0000 0.17724  0.34743  0.65257  Biso   1.000  O
  O1452    1.0000 0.14163  0.36807  0.63193  Biso   1.000  O
  O1453    1.0000 0.11800  0.31780  0.68220  Biso   1.000  O
  Zr275    1.0000 0.71607  0.84568  0.15432  Biso   1.000  Zr
  Zr276    1.0000 0.65742  0.89567  0.10433  Biso   1.000  Zr
  O1454    1.0000 0.72174  0.87245  0.12755  Biso   1.000  O
  O1455    1.0000 0.70061  0.90127  0.09873  Biso   1.000  O
  O1456    1.0000 0.67724  0.84743  0.15257  Biso   1.000  O
  O1457    1.0000 0.64163  0.86807  0.13193  Biso   1.000  O
  O1458    1.0000 0.61800  0.81780  0.18220  Biso   1.000  O
  Zr277    1.0000 0.21607  0.65432  0.34568  Biso   1.000  Zr
  Zr278    1.0000 0.15742  0.60433  0.39567  Biso   1.000  Zr
  O1459    1.0000 0.22174  0.62755  0.37245  Biso   1.000  O
  O1460    1.0000 0.20061  0.59873  0.40127  Biso   1.000  O
  O1461    1.0000 0.17724  0.65257  0.34743  Biso   1.000  O
  O1462    1.0000 0.14163  0.63193  0.36807  Biso   1.000  O
  O1463    1.0000 0.11800  0.68220  0.31780  Biso   1.000  O
  Zr279    1.0000 0.71607  0.15432  0.84568  Biso   1.000  Zr
  Zr280    1.0000 0.65742  0.10433  0.89567  Biso   1.000  Zr
  O1464    1.0000 0.72174  0.12755  0.87245  Biso   1.000  O
  O1465    1.0000 0.70061  0.09873  0.90127  Biso   1.000  O
  O1466    1.0000 0.67724  0.15257  0.84743  Biso   1.000  O
  O1467    1.0000 0.64163  0.13193  0.86807  Biso   1.000  O
  O1468    1.0000 0.61800  0.18220  0.81780  Biso   1.000  O
  Zr281    1.0000 0.78393  0.34568  0.34568  Biso   1.000  Zr
  Zr282    1.0000 0.84258  0.39567  0.39567  Biso   1.000  Zr
  O1469    1.0000 0.77826  0.37245  0.37245  Biso   1.000  O
  O1470    1.0000 0.79939  0.40127  0.40127  Biso   1.000  O
  O1471    1.0000 0.82276  0.34743  0.34743  Biso   1.000  O
  O1472    1.0000 0.85837  0.36807  0.36807  Biso   1.000  O
  O1473    1.0000 0.88200  0.31780  0.31780  Biso   1.000  O
  Zr283    1.0000 0.28393  0.84568  0.84568  Biso   1.000  Zr
  Zr284    1.0000 0.34258  0.89567  0.89567  Biso   1.000  Zr
  O1474    1.0000 0.27826  0.87245  0.87245  Biso   1.000  O
  O1475    1.0000 0.29939  0.90127  0.90127  Biso   1.000  O
  O1476    1.0000 0.32276  0.84743  0.84743  Biso   1.000  O
  O1477    1.0000 0.35837  0.86807  0.86807  Biso   1.000  O
  O1478    1.0000 0.38200  0.81780  0.81780  Biso   1.000  O
  Zr285    1.0000 0.78393  0.65432  0.65432  Biso   1.000  Zr
  Zr286    1.0000 0.84258  0.60433  0.60433  Biso   1.000  Zr
  O1479    1.0000 0.77826  0.62755  0.62755  Biso   1.000  O
  O1480    1.0000 0.79939  0.59873  0.59873  Biso   1.000  O
  O1481    1.0000 0.82276  0.65257  0.65257  Biso   1.000  O
  O1482    1.0000 0.85837  0.63193  0.63193  Biso   1.000  O
  O1483    1.0000 0.88200  0.68220  0.68220  Biso   1.000  O
  Zr287    1.0000 0.28393  0.15432  0.15432  Biso   1.000  Zr
  Zr288    1.0000 0.34258  0.10433  0.10433  Biso   1.000  Zr
  O1484    1.0000 0.27826  0.12755  0.12755  Biso   1.000  O
  O1485    1.0000 0.29939  0.09873  0.09873  Biso   1.000  O
  O1486    1.0000 0.32276  0.15257  0.15257  Biso   1.000  O
  O1487    1.0000 0.35837  0.13193  0.13193  Biso   1.000  O
  O1488    1.0000 0.38200  0.18220  0.18220  Biso   1.000  O
  Zr289    1.0000 0.25000  0.46703  0.03297  Biso   1.000  Zr
  S193     1.0000 0.25000  0.33723  0.16277  Biso   1.000  S
  Zr290    1.0000 0.75000  0.53297  0.03297  Biso   1.000  Zr
  S194     1.0000 0.75000  0.66277  0.16277  Biso   1.000  S
  Zr291    1.0000 0.75000  0.46703  0.96703  Biso   1.000  Zr
  S195     1.0000 0.75000  0.33723  0.83723  Biso   1.000  S
  Zr292    1.0000 0.25000  0.53297  0.96703  Biso   1.000  Zr
  S196     1.0000 0.25000  0.66277  0.83723  Biso   1.000  S
  Zr293    1.0000 0.03297  0.25000  0.46703  Biso   1.000  Zr
  S197     1.0000 0.16277  0.25000  0.33723  Biso   1.000  S
  Zr294    1.0000 0.03297  0.75000  0.53297  Biso   1.000  Zr
  S198     1.0000 0.16277  0.75000  0.66277  Biso   1.000  S
  Zr295    1.0000 0.96703  0.75000  0.46703  Biso   1.000  Zr
  S199     1.0000 0.83723  0.75000  0.33723  Biso   1.000  S
  Zr296    1.0000 0.96703  0.25000  0.53297  Biso   1.000  Zr
  S200     1.0000 0.83723  0.25000  0.66277  Biso   1.000  S
  Zr297    1.0000 0.46703  0.03297  0.25000  Biso   1.000  Zr
  S201     1.0000 0.33723  0.16277  0.25000  Biso   1.000  S
  Zr298    1.0000 0.53297  0.03297  0.75000  Biso   1.000  Zr
  S202     1.0000 0.66277  0.16277  0.75000  Biso   1.000  S
  Zr299    1.0000 0.46703  0.96703  0.75000  Biso   1.000  Zr
  S203     1.0000 0.33723  0.83723  0.75000  Biso   1.000  S
  Zr300    1.0000 0.53297  0.96703  0.25000  Biso   1.000  Zr
  S204     1.0000 0.66277  0.83723  0.25000  Biso   1.000  S
  Zr301    1.0000 0.46703  0.25000  0.96703  Biso   1.000  Zr
  S205     1.0000 0.33723  0.25000  0.83723  Biso   1.000  S
  Zr302    1.0000 0.53297  0.75000  0.96703  Biso   1.000  Zr
  S206     1.0000 0.66277  0.75000  0.83723  Biso   1.000  S
  Zr303    1.0000 0.46703  0.75000  0.03297  Biso   1.000  Zr
  S207     1.0000 0.33723  0.75000  0.16277  Biso   1.000  S
  Zr304    1.0000 0.53297  0.25000  0.03297  Biso   1.000  Zr
  S208     1.0000 0.66277  0.25000  0.16277  Biso   1.000  S
  Zr305    1.0000 0.25000  0.03297  0.53297  Biso   1.000  Zr
  S209     1.0000 0.25000  0.16277  0.66277  Biso   1.000  S
  Zr306    1.0000 0.75000  0.03297  0.46703  Biso   1.000  Zr
  S210     1.0000 0.75000  0.16277  0.33723  Biso   1.000  S
  Zr307    1.0000 0.75000  0.96703  0.53297  Biso   1.000  Zr
  S211     1.0000 0.75000  0.83723  0.66277  Biso   1.000  S
  Zr308    1.0000 0.25000  0.96703  0.46703  Biso   1.000  Zr
  S212     1.0000 0.25000  0.83723  0.33723  Biso   1.000  S
  Zr309    1.0000 0.03297  0.46703  0.75000  Biso   1.000  Zr
  S213     1.0000 0.16277  0.33723  0.75000  Biso   1.000  S
  Zr310    1.0000 0.03297  0.53297  0.25000  Biso   1.000  Zr
  S214     1.0000 0.16277  0.66277  0.25000  Biso   1.000  S
  Zr311    1.0000 0.96703  0.46703  0.25000  Biso   1.000  Zr
  S215     1.0000 0.83723  0.33723  0.25000  Biso   1.000  S
  Zr312    1.0000 0.96703  0.53297  0.75000  Biso   1.000  Zr
  S216     1.0000 0.83723  0.66277  0.75000  Biso   1.000  S
  Zr313    1.0000 0.75000  0.53297  0.96703  Biso   1.000  Zr
  S217     1.0000 0.75000  0.66277  0.83723  Biso   1.000  S
  Zr314    1.0000 0.25000  0.03297  0.46703  Biso   1.000  Zr
  S218     1.0000 0.25000  0.16277  0.33723  Biso   1.000  S
  Zr315    1.0000 0.25000  0.46703  0.96703  Biso   1.000  Zr
  S219     1.0000 0.25000  0.33723  0.83723  Biso   1.000  S
  Zr316    1.0000 0.25000  0.53297  0.03297  Biso   1.000  Zr
  S220     1.0000 0.25000  0.66277  0.16277  Biso   1.000  S
  Zr317    1.0000 0.75000  0.46703  0.03297  Biso   1.000  Zr
  S221     1.0000 0.75000  0.33723  0.16277  Biso   1.000  S
  Zr318    1.0000 0.96703  0.75000  0.53297  Biso   1.000  Zr
  S222     1.0000 0.83723  0.75000  0.66277  Biso   1.000  S
  Zr319    1.0000 0.46703  0.25000  0.03297  Biso   1.000  Zr
  S223     1.0000 0.33723  0.25000  0.16277  Biso   1.000  S
  Zr320    1.0000 0.96703  0.25000  0.46703  Biso   1.000  Zr
  S224     1.0000 0.83723  0.25000  0.33723  Biso   1.000  S
  Zr321    1.0000 0.03297  0.25000  0.53297  Biso   1.000  Zr
  S225     1.0000 0.16277  0.25000  0.66277  Biso   1.000  S
  Zr322    1.0000 0.03297  0.75000  0.46703  Biso   1.000  Zr
  S226     1.0000 0.16277  0.75000  0.33723  Biso   1.000  S
  Zr323    1.0000 0.53297  0.96703  0.75000  Biso   1.000  Zr
  S227     1.0000 0.66277  0.83723  0.75000  Biso   1.000  S
  Zr324    1.0000 0.03297  0.46703  0.25000  Biso   1.000  Zr
  S228     1.0000 0.16277  0.33723  0.25000  Biso   1.000  S
  Zr325    1.0000 0.46703  0.96703  0.25000  Biso   1.000  Zr
  S229     1.0000 0.33723  0.83723  0.25000  Biso   1.000  S
  Zr326    1.0000 0.53297  0.03297  0.25000  Biso   1.000  Zr
  S230     1.0000 0.66277  0.16277  0.25000  Biso   1.000  S
  Zr327    1.0000 0.46703  0.03297  0.75000  Biso   1.000  Zr
  S231     1.0000 0.33723  0.16277  0.75000  Biso   1.000  S
  Zr328    1.0000 0.53297  0.75000  0.03297  Biso   1.000  Zr
  S232     1.0000 0.66277  0.75000  0.16277  Biso   1.000  S
  Zr329    1.0000 0.53297  0.25000  0.96703  Biso   1.000  Zr
  S233     1.0000 0.66277  0.25000  0.83723  Biso   1.000  S
  Zr330    1.0000 0.46703  0.75000  0.96703  Biso   1.000  Zr
  S234     1.0000 0.33723  0.75000  0.83723  Biso   1.000  S
  Zr331    1.0000 0.75000  0.96703  0.46703  Biso   1.000  Zr
  S235     1.0000 0.75000  0.83723  0.33723  Biso   1.000  S
  Zr332    1.0000 0.25000  0.96703  0.53297  Biso   1.000  Zr
  S236     1.0000 0.25000  0.83723  0.66277  Biso   1.000  S
  Zr333    1.0000 0.75000  0.03297  0.53297  Biso   1.000  Zr
  S237     1.0000 0.75000  0.16277  0.66277  Biso   1.000  S
  Zr334    1.0000 0.96703  0.53297  0.25000  Biso   1.000  Zr
  S238     1.0000 0.83723  0.66277  0.25000  Biso   1.000  S
  Zr335    1.0000 0.96703  0.46703  0.75000  Biso   1.000  Zr
  S239     1.0000 0.83723  0.33723  0.75000  Biso   1.000  S
  Zr336    1.0000 0.03297  0.53297  0.75000  Biso   1.000  Zr
  S240     1.0000 0.16277  0.66277  0.75000  Biso   1.000  S
  Zr337    1.0000 0.29596  0.50000  0.00000  Biso   1.000  Zr
  Zr338    1.0000 0.79596  0.00000  0.50000  Biso   1.000  Zr
  Zr339    1.0000 0.70404  0.50000  0.00000  Biso   1.000  Zr
  Zr340    1.0000 0.20404  0.00000  0.50000  Biso   1.000  Zr
  Zr341    1.0000 0.00000  0.29596  0.50000  Biso   1.000  Zr
  Zr342    1.0000 0.50000  0.79596  0.00000  Biso   1.000  Zr
  Zr343    1.0000 0.00000  0.70404  0.50000  Biso   1.000  Zr
  Zr344    1.0000 0.50000  0.20404  0.00000  Biso   1.000  Zr
  Zr345    1.0000 0.50000  0.00000  0.29596  Biso   1.000  Zr
  Zr346    1.0000 0.00000  0.50000  0.79596  Biso   1.000  Zr
  Zr347    1.0000 0.50000  0.00000  0.70404  Biso   1.000  Zr
  Zr348    1.0000 0.00000  0.50000  0.20404  Biso   1.000  Zr
  Zr349    1.0000 0.50000  0.29596  0.00000  Biso   1.000  Zr
  Zr350    1.0000 0.00000  0.79596  0.50000  Biso   1.000  Zr
  Zr351    1.0000 0.50000  0.70404  0.00000  Biso   1.000  Zr
  Zr352    1.0000 0.00000  0.20404  0.50000  Biso   1.000  Zr
  Zr353    1.0000 0.29596  0.00000  0.50000  Biso   1.000  Zr
  Zr354    1.0000 0.79596  0.50000  0.00000  Biso   1.000  Zr
  Zr355    1.0000 0.70404  0.00000  0.50000  Biso   1.000  Zr
  Zr356    1.0000 0.20404  0.50000  0.00000  Biso   1.000  Zr
  Zr357    1.0000 0.00000  0.50000  0.70404  Biso   1.000  Zr
  Zr358    1.0000 0.50000  0.00000  0.20404  Biso   1.000  Zr
  Zr359    1.0000 0.00000  0.50000  0.29596  Biso   1.000  Zr
  Zr360    1.0000 0.50000  0.00000  0.79596  Biso   1.000  Zr
  S241     1.0000 0.29068  0.36918  0.29068  Biso   1.000  S
  S242     1.0000 0.79068  0.86918  0.79068  Biso   1.000  S
  S243     1.0000 0.70932  0.63082  0.29068  Biso   1.000  S
  S244     1.0000 0.20932  0.13082  0.79068  Biso   1.000  S
  S245     1.0000 0.70932  0.36918  0.70932  Biso   1.000  S
  S246     1.0000 0.20932  0.86918  0.20932  Biso   1.000  S
  S247     1.0000 0.29068  0.63082  0.70932  Biso   1.000  S
  S248     1.0000 0.79068  0.13082  0.20932  Biso   1.000  S
  S249     1.0000 0.29068  0.29068  0.36918  Biso   1.000  S
  S250     1.0000 0.79068  0.79068  0.86918  Biso   1.000  S
  S251     1.0000 0.29068  0.70932  0.63082  Biso   1.000  S
  S252     1.0000 0.79068  0.20932  0.13082  Biso   1.000  S
  S253     1.0000 0.70932  0.70932  0.36918  Biso   1.000  S
  S254     1.0000 0.20932  0.20932  0.86918  Biso   1.000  S
  S255     1.0000 0.70932  0.29068  0.63082  Biso   1.000  S
  S256     1.0000 0.20932  0.79068  0.13082  Biso   1.000  S
  S257     1.0000 0.36918  0.29068  0.29068  Biso   1.000  S
  S258     1.0000 0.86918  0.79068  0.79068  Biso   1.000  S
  S259     1.0000 0.63082  0.29068  0.70932  Biso   1.000  S
  S260     1.0000 0.13082  0.79068  0.20932  Biso   1.000  S
  S261     1.0000 0.36918  0.70932  0.70932  Biso   1.000  S
  S262     1.0000 0.86918  0.20932  0.20932  Biso   1.000  S
  S263     1.0000 0.63082  0.70932  0.29068  Biso   1.000  S
  S264     1.0000 0.13082  0.20932  0.79068  Biso   1.000  S
  S265     1.0000 0.36918  0.29068  0.70932  Biso   1.000  S
  S266     1.0000 0.86918  0.79068  0.20932  Biso   1.000  S
  S267     1.0000 0.63082  0.70932  0.70932  Biso   1.000  S
  S268     1.0000 0.13082  0.20932  0.20932  Biso   1.000  S
  S269     1.0000 0.36918  0.70932  0.29068  Biso   1.000  S
  S270     1.0000 0.86918  0.20932  0.79068  Biso   1.000  S
  S271     1.0000 0.63082  0.29068  0.29068  Biso   1.000  S
  S272     1.0000 0.13082  0.79068  0.79068  Biso   1.000  S
  S273     1.0000 0.29068  0.29068  0.63082  Biso   1.000  S
  S274     1.0000 0.79068  0.79068  0.13082  Biso   1.000  S
  S275     1.0000 0.70932  0.29068  0.36918  Biso   1.000  S
  S276     1.0000 0.20932  0.79068  0.86918  Biso   1.000  S
  S277     1.0000 0.70932  0.70932  0.63082  Biso   1.000  S
  S278     1.0000 0.20932  0.20932  0.13082  Biso   1.000  S
  S279     1.0000 0.29068  0.70932  0.36918  Biso   1.000  S
  S280     1.0000 0.79068  0.20932  0.86918  Biso   1.000  S
  S281     1.0000 0.29068  0.36918  0.70932  Biso   1.000  S
  S282     1.0000 0.79068  0.86918  0.20932  Biso   1.000  S
  S283     1.0000 0.29068  0.63082  0.29068  Biso   1.000  S
  S284     1.0000 0.79068  0.13082  0.79068  Biso   1.000  S
  S285     1.0000 0.70932  0.36918  0.29068  Biso   1.000  S
  S286     1.0000 0.20932  0.86918  0.79068  Biso   1.000  S
  S287     1.0000 0.70932  0.63082  0.70932  Biso   1.000  S
  S288     1.0000 0.20932  0.13082  0.20932  Biso   1.000  S
  S289     1.0000 0.38324  0.50000  0.19185  Biso   1.000  S
  O1489    1.0000 0.26961  0.50000  0.02802  Biso   1.000  O
  S290     1.0000 0.88324  0.00000  0.69185  Biso   1.000  S
  O1490    1.0000 0.76961  0.00000  0.52802  Biso   1.000  O
  S291     1.0000 0.61676  0.50000  0.19185  Biso   1.000  S
  O1491    1.0000 0.73039  0.50000  0.02802  Biso   1.000  O
  S292     1.0000 0.11676  0.00000  0.69185  Biso   1.000  S
  O1492    1.0000 0.23039  0.00000  0.52802  Biso   1.000  O
  S293     1.0000 0.61676  0.50000  0.80815  Biso   1.000  S
  O1493    1.0000 0.73039  0.50000  0.97198  Biso   1.000  O
  S294     1.0000 0.11676  0.00000  0.30815  Biso   1.000  S
  O1494    1.0000 0.23039  0.00000  0.47198  Biso   1.000  O
  S295     1.0000 0.38324  0.50000  0.80815  Biso   1.000  S
  O1495    1.0000 0.26961  0.50000  0.97198  Biso   1.000  O
  S296     1.0000 0.88324  0.00000  0.30815  Biso   1.000  S
  O1496    1.0000 0.76961  0.00000  0.47198  Biso   1.000  O
  S297     1.0000 0.19185  0.38324  0.50000  Biso   1.000  S
  O1497    1.0000 0.02802  0.26961  0.50000  Biso   1.000  O
  S298     1.0000 0.69185  0.88324  0.00000  Biso   1.000  S
  O1498    1.0000 0.52802  0.76961  0.00000  Biso   1.000  O
  S299     1.0000 0.19185  0.61676  0.50000  Biso   1.000  S
  O1499    1.0000 0.02802  0.73039  0.50000  Biso   1.000  O
  S300     1.0000 0.69185  0.11676  0.00000  Biso   1.000  S
  O1500    1.0000 0.52802  0.23039  0.00000  Biso   1.000  O
  S301     1.0000 0.80815  0.61676  0.50000  Biso   1.000  S
  O1501    1.0000 0.97198  0.73039  0.50000  Biso   1.000  O
  S302     1.0000 0.30815  0.11676  0.00000  Biso   1.000  S
  O1502    1.0000 0.47198  0.23039  0.00000  Biso   1.000  O
  S303     1.0000 0.80815  0.38324  0.50000  Biso   1.000  S
  O1503    1.0000 0.97198  0.26961  0.50000  Biso   1.000  O
  S304     1.0000 0.30815  0.88324  0.00000  Biso   1.000  S
  O1504    1.0000 0.47198  0.76961  0.00000  Biso   1.000  O
  S305     1.0000 0.50000  0.19185  0.38324  Biso   1.000  S
  O1505    1.0000 0.50000  0.02802  0.26961  Biso   1.000  O
  S306     1.0000 0.00000  0.69185  0.88324  Biso   1.000  S
  O1506    1.0000 0.00000  0.52802  0.76961  Biso   1.000  O
  S307     1.0000 0.50000  0.19185  0.61676  Biso   1.000  S
  O1507    1.0000 0.50000  0.02802  0.73039  Biso   1.000  O
  S308     1.0000 0.00000  0.69185  0.11676  Biso   1.000  S
  O1508    1.0000 0.00000  0.52802  0.23039  Biso   1.000  O
  S309     1.0000 0.50000  0.80815  0.61676  Biso   1.000  S
  O1509    1.0000 0.50000  0.97198  0.73039  Biso   1.000  O
  S310     1.0000 0.00000  0.30815  0.11676  Biso   1.000  S
  O1510    1.0000 0.00000  0.47198  0.23039  Biso   1.000  O
  S311     1.0000 0.50000  0.80815  0.38324  Biso   1.000  S
  O1511    1.0000 0.50000  0.97198  0.26961  Biso   1.000  O
  S312     1.0000 0.00000  0.30815  0.88324  Biso   1.000  S
  O1512    1.0000 0.00000  0.47198  0.76961  Biso   1.000  O
  S313     1.0000 0.50000  0.38324  0.80815  Biso   1.000  S
  O1513    1.0000 0.50000  0.26961  0.97198  Biso   1.000  O
  S314     1.0000 0.00000  0.88324  0.30815  Biso   1.000  S
  O1514    1.0000 0.00000  0.76961  0.47198  Biso   1.000  O
  S315     1.0000 0.50000  0.61676  0.80815  Biso   1.000  S
  O1515    1.0000 0.50000  0.73039  0.97198  Biso   1.000  O
  S316     1.0000 0.00000  0.11676  0.30815  Biso   1.000  S
  O1516    1.0000 0.00000  0.23039  0.47198  Biso   1.000  O
  S317     1.0000 0.50000  0.61676  0.19185  Biso   1.000  S
  O1517    1.0000 0.50000  0.73039  0.02802  Biso   1.000  O
  S318     1.0000 0.00000  0.11676  0.69185  Biso   1.000  S
  O1518    1.0000 0.00000  0.23039  0.52802  Biso   1.000  O
  S319     1.0000 0.50000  0.38324  0.19185  Biso   1.000  S
  O1519    1.0000 0.50000  0.26961  0.02802  Biso   1.000  O
  S320     1.0000 0.00000  0.88324  0.69185  Biso   1.000  S
  O1520    1.0000 0.00000  0.76961  0.52802  Biso   1.000  O
  S321     1.0000 0.38324  0.19185  0.50000  Biso   1.000  S
  O1521    1.0000 0.26961  0.02802  0.50000  Biso   1.000  O
  S322     1.0000 0.88324  0.69185  0.00000  Biso   1.000  S
  O1522    1.0000 0.76961  0.52802  0.00000  Biso   1.000  O
  S323     1.0000 0.61676  0.19185  0.50000  Biso   1.000  S
  O1523    1.0000 0.73039  0.02802  0.50000  Biso   1.000  O
  S324     1.0000 0.11676  0.69185  0.00000  Biso   1.000  S
  O1524    1.0000 0.23039  0.52802  0.00000  Biso   1.000  O
  S325     1.0000 0.61676  0.80815  0.50000  Biso   1.000  S
  O1525    1.0000 0.73039  0.97198  0.50000  Biso   1.000  O
  S326     1.0000 0.11676  0.30815  0.00000  Biso   1.000  S
  O1526    1.0000 0.23039  0.47198  0.00000  Biso   1.000  O
  S327     1.0000 0.38324  0.80815  0.50000  Biso   1.000  S
  O1527    1.0000 0.26961  0.97198  0.50000  Biso   1.000  O
  S328     1.0000 0.88324  0.30815  0.00000  Biso   1.000  S
  O1528    1.0000 0.76961  0.47198  0.00000  Biso   1.000  O
  S329     1.0000 0.19185  0.50000  0.61676  Biso   1.000  S
  O1529    1.0000 0.02802  0.50000  0.73039  Biso   1.000  O
  S330     1.0000 0.69185  0.00000  0.11676  Biso   1.000  S
  O1530    1.0000 0.52802  0.00000  0.23039  Biso   1.000  O
  S331     1.0000 0.19185  0.50000  0.38324  Biso   1.000  S
  O1531    1.0000 0.02802  0.50000  0.26961  Biso   1.000  O
  S332     1.0000 0.69185  0.00000  0.88324  Biso   1.000  S
  O1532    1.0000 0.52802  0.00000  0.76961  Biso   1.000  O
  S333     1.0000 0.80815  0.50000  0.38324  Biso   1.000  S
  O1533    1.0000 0.97198  0.50000  0.26961  Biso   1.000  O
  S334     1.0000 0.30815  0.00000  0.88324  Biso   1.000  S
  O1534    1.0000 0.47198  0.00000  0.76961  Biso   1.000  O
  S335     1.0000 0.80815  0.50000  0.61676  Biso   1.000  S
  O1535    1.0000 0.97198  0.50000  0.73039  Biso   1.000  O
  S336     1.0000 0.30815  0.00000  0.11676  Biso   1.000  S
  O1536    1.0000 0.47198  0.00000  0.23039  Biso   1.000  O
  O1537    1.0000 0.27548  0.46224  0.00000  Biso   1.000  O
  O1538    1.0000 0.77548  0.96224  0.50000  Biso   1.000  O
  O1539    1.0000 0.72452  0.53776  0.00000  Biso   1.000  O
  O1540    1.0000 0.22452  0.03776  0.50000  Biso   1.000  O
  O1541    1.0000 0.72452  0.46224  0.00000  Biso   1.000  O
  O1542    1.0000 0.22452  0.96224  0.50000  Biso   1.000  O
  O1543    1.0000 0.27548  0.53776  0.00000  Biso   1.000  O
  O1544    1.0000 0.77548  0.03776  0.50000  Biso   1.000  O
  O1545    1.0000 0.00000  0.27548  0.46224  Biso   1.000  O
  O1546    1.0000 0.50000  0.77548  0.96224  Biso   1.000  O
  O1547    1.0000 0.00000  0.72452  0.53776  Biso   1.000  O
  O1548    1.0000 0.50000  0.22452  0.03776  Biso   1.000  O
  O1549    1.0000 0.00000  0.72452  0.46224  Biso   1.000  O
  O1550    1.0000 0.50000  0.22452  0.96224  Biso   1.000  O
  O1551    1.0000 0.00000  0.27548  0.53776  Biso   1.000  O
  O1552    1.0000 0.50000  0.77548  0.03776  Biso   1.000  O
  O1553    1.0000 0.46224  0.00000  0.27548  Biso   1.000  O
  O1554    1.0000 0.96224  0.50000  0.77548  Biso   1.000  O
  O1555    1.0000 0.53776  0.00000  0.72452  Biso   1.000  O
  O1556    1.0000 0.03776  0.50000  0.22452  Biso   1.000  O
  O1557    1.0000 0.46224  0.00000  0.72452  Biso   1.000  O
  O1558    1.0000 0.96224  0.50000  0.22452  Biso   1.000  O
  O1559    1.0000 0.53776  0.00000  0.27548  Biso   1.000  O
  O1560    1.0000 0.03776  0.50000  0.77548  Biso   1.000  O
  O1561    1.0000 0.46224  0.27548  0.00000  Biso   1.000  O
  O1562    1.0000 0.96224  0.77548  0.50000  Biso   1.000  O
  O1563    1.0000 0.53776  0.72452  0.00000  Biso   1.000  O
  O1564    1.0000 0.03776  0.22452  0.50000  Biso   1.000  O
  O1565    1.0000 0.46224  0.72452  0.00000  Biso   1.000  O
  O1566    1.0000 0.96224  0.22452  0.50000  Biso   1.000  O
  O1567    1.0000 0.53776  0.27548  0.00000  Biso   1.000  O
  O1568    1.0000 0.03776  0.77548  0.50000  Biso   1.000  O
  O1569    1.0000 0.27548  0.00000  0.53776  Biso   1.000  O
  O1570    1.0000 0.77548  0.50000  0.03776  Biso   1.000  O
  O1571    1.0000 0.72452  0.00000  0.46224  Biso   1.000  O
  O1572    1.0000 0.22452  0.50000  0.96224  Biso   1.000  O
  O1573    1.0000 0.72452  0.00000  0.53776  Biso   1.000  O
  O1574    1.0000 0.22452  0.50000  0.03776  Biso   1.000  O
  O1575    1.0000 0.27548  0.00000  0.46224  Biso   1.000  O
  O1576    1.0000 0.77548  0.50000  0.96224  Biso   1.000  O
  O1577    1.0000 0.00000  0.46224  0.72452  Biso   1.000  O
  O1578    1.0000 0.50000  0.96224  0.22452  Biso   1.000  O
  O1579    1.0000 0.00000  0.53776  0.27548  Biso   1.000  O
  O1580    1.0000 0.50000  0.03776  0.77548  Biso   1.000  O
  O1581    1.0000 0.00000  0.46224  0.27548  Biso   1.000  O
  O1582    1.0000 0.50000  0.96224  0.77548  Biso   1.000  O
  O1583    1.0000 0.00000  0.53776  0.72452  Biso   1.000  O
  O1584    1.0000 0.50000  0.03776  0.22452  Biso   1.000  O
