data_image0
_cell_length_a       56.792
_cell_length_b       14.331
_cell_length_c       32.17
_cell_angle_alpha    90
_cell_angle_beta     90
_cell_angle_gamma    90

_symmetry_space_group_name_H-M    "P 1"
_symmetry_int_tables_number       1

loop_
  _symmetry_equiv_pos_as_xyz
  'x, y, z'

loop_
  _atom_site_label
  _atom_site_occupancy
  _atom_site_fract_x
  _atom_site_fract_y
  _atom_site_fract_z
  _atom_site_thermal_displace_type
  _atom_site_B_iso_or_equiv
  _atom_site_type_symbol
  Cu1      1.0000 0.40614  0.88210  0.48232  Biso   1.000  Cu
  O1       1.0000 0.32916  0.60730  0.60610  Biso   1.000  O
  O2       1.0000 0.26777  0.41220  0.67570  Biso   1.000  O
  O3       1.0000 0.30319  0.15350  0.52460  Biso   1.000  O
  N1       1.0000 0.38277  0.78890  0.50510  Biso   1.000  N
  N2       1.0000 0.18439  0.28010  0.71239  Biso   1.000  N
  N3       1.0000 0.38476  0.98420  0.49850  Biso   1.000  N
  N4       1.0000 0.33815  0.56810  0.54100  Biso   1.000  N
  H1       1.0000 0.33560  0.52180  0.52360  Biso   1.000  H
  N5       1.0000 0.24391  0.31840  0.62860  Biso   1.000  N
  H2       1.0000 0.24310  0.28340  0.60620  Biso   1.000  H
  N6       1.0000 0.34089  0.20490  0.54010  Biso   1.000  N
  H3       1.0000 0.34890  0.25050  0.55180  Biso   1.000  H
  C1       1.0000 0.37283  0.78590  0.54500  Biso   1.000  C
  H4       1.0000 0.37630  0.83410  0.56430  Biso   1.000  H
  C2       1.0000 0.35779  0.71260  0.55680  Biso   1.000  C
  H5       1.0000 0.35150  0.70760  0.58410  Biso   1.000  H
  C3       1.0000 0.35254  0.64520  0.52450  Biso   1.000  C
  C4       1.0000 0.36114  0.64120  0.47910  Biso   1.000  C
  H6       1.0000 0.35710  0.59750  0.45810  Biso   1.000  H
  C5       1.0000 0.37726  0.72220  0.47610  Biso   1.000  C
  H7       1.0000 0.38500  0.72900  0.45010  Biso   1.000  H
  C6       1.0000 0.32843  0.55850  0.57880  Biso   1.000  C
  C7       1.0000 0.18794  0.24880  0.67800  Biso   1.000  C
  H8       1.0000 0.17480  0.21300  0.66910  Biso   1.000  H
  C8       1.0000 0.20719  0.24940  0.64440  Biso   1.000  C
  H9       1.0000 0.20730  0.21510  0.61920  Biso   1.000  H
  C9       1.0000 0.22499  0.31260  0.65910  Biso   1.000  C
  C10      1.0000 0.22248  0.35990  0.69500  Biso   1.000  C
  H10      1.0000 0.23410  0.40480  0.70230  Biso   1.000  H
  C11      1.0000 0.20456  0.34640  0.72070  Biso   1.000  C
  H11      1.0000 0.20440  0.38060  0.74600  Biso   1.000  H
  C12      1.0000 0.26240  0.37500  0.63350  Biso   1.000  C
  C13      1.0000 0.39234  0.05750  0.52690  Biso   1.000  C
  H12      1.0000 0.40810  0.05470  0.53680  Biso   1.000  H
  C14      1.0000 0.37870  0.12980  0.54040  Biso   1.000  C
  H13      1.0000 0.38420  0.17740  0.55840  Biso   1.000  H
  C15      1.0000 0.35440  0.12610  0.52380  Biso   1.000  C
  C16      1.0000 0.34517  0.05630  0.49600  Biso   1.000  C
  H14      1.0000 0.32950  0.05780  0.48590  Biso   1.000  H
  C17      1.0000 0.36077  0.98800  0.48550  Biso   1.000  C
  H15      1.0000 0.35520  0.93900  0.46810  Biso   1.000  H
  C18      1.0000 0.31751  0.21360  0.53880  Biso   1.000  C
  C19      1.0000 0.31441  0.46260  0.57910  Biso   1.000  C
  C20      1.0000 0.29600  0.46190  0.60740  Biso   1.000  C
  H16      1.0000 0.29260  0.51200  0.62580  Biso   1.000  H
  C21      1.0000 0.28302  0.37900  0.60590  Biso   1.000  C
  C22      1.0000 0.28994  0.29710  0.58800  Biso   1.000  C
  H17      1.0000 0.28240  0.23990  0.59480  Biso   1.000  H
  C23      1.0000 0.30882  0.29990  0.55900  Biso   1.000  C
  C24      1.0000 0.32192  0.38510  0.55440  Biso   1.000  C
  H18      1.0000 0.33490  0.38980  0.53590  Biso   1.000  H
  O4       1.0000 0.07793  0.45780  0.61830  Biso   1.000  O
  O5       1.0000 0.00294  0.62160  0.59320  Biso   1.000  O
  O6       1.0000 0.01226  0.14580  0.53680  Biso   1.000  O
  N7       1.0000 0.13618  0.26680  0.70681  Biso   1.000  N
  N8       1.0000 0.93002  0.77990  0.52340  Biso   1.000  N
  N9       1.0000 0.93086  0.97780  0.53360  Biso   1.000  N
  N10      1.0000 0.07633  0.30530  0.62950  Biso   1.000  N
  H19      1.0000 0.06850  0.25370  0.62410  Biso   1.000  H
  N11      1.0000 0.97714  0.55690  0.54630  Biso   1.000  N
  H20      1.0000 0.97470  0.50870  0.52990  Biso   1.000  H
  N12      1.0000 0.97747  0.20000  0.56080  Biso   1.000  N
  H21      1.0000 0.97100  0.24840  0.57310  Biso   1.000  H
  C25      1.0000 0.13318  0.34170  0.68320  Biso   1.000  C
  H22      1.0000 0.14460  0.38960  0.68600  Biso   1.000  H
  C26      1.0000 0.11578  0.35790  0.65550  Biso   1.000  C
  H23      1.0000 0.11590  0.41190  0.63840  Biso   1.000  H
  C27      1.0000 0.09745  0.29250  0.65280  Biso   1.000  C
  C28      1.0000 0.09988  0.21430  0.67570  Biso   1.000  C
  H24      1.0000 0.08830  0.16690  0.67230  Biso   1.000  H
  C29      1.0000 0.11754  0.19770  0.70340  Biso   1.000  C
  H25      1.0000 0.11770  0.14280  0.71990  Biso   1.000  H
  C30      1.0000 0.06709  0.37850  0.61550  Biso   1.000  C
  C31      1.0000 0.93214  0.70940  0.50000  Biso   1.000  C
  H26      1.0000 0.92330  0.70760  0.47500  Biso   1.000  H
  C32      1.0000 0.94654  0.63600  0.50900  Biso   1.000  C
  H27      1.0000 0.94640  0.58340  0.49090  Biso   1.000  H
  C33      1.0000 0.96145  0.63470  0.54360  Biso   1.000  C
  C34      1.0000 0.96007  0.71170  0.57100  Biso   1.000  C
  H28      1.0000 0.96960  0.71660  0.59520  Biso   1.000  H
  C35      1.0000 0.94328  0.78180  0.55940  Biso   1.000  C
  H29      1.0000 0.94110  0.83300  0.57780  Biso   1.000  H
  C36      1.0000 0.99552  0.55390  0.57290  Biso   1.000  C
  C37      1.0000 0.92493  0.04630  0.55850  Biso   1.000  C
  H30      1.0000 0.90940  0.04580  0.56950  Biso   1.000  H
  C38      1.0000 0.93931  0.11850  0.56970  Biso   1.000  C
  H31      1.0000 0.93470  0.16310  0.59000  Biso   1.000  H
  C39      1.0000 0.96162  0.12320  0.54930  Biso   1.000  C
  C40      1.0000 0.96900  0.05450  0.52290  Biso   1.000  C
  H32      1.0000 0.98450  0.05380  0.51170  Biso   1.000  H
  C41      1.0000 0.95126  0.98030  0.51280  Biso   1.000  C
  H33      1.0000 0.95450  0.93550  0.49180  Biso   1.000  H
  C42      1.0000 0.00092  0.20360  0.55430  Biso   1.000  C
  C43      1.0000 0.04291  0.37910  0.59740  Biso   1.000  C
  C44      1.0000 0.03049  0.46160  0.59480  Biso   1.000  C
  H34      1.0000 0.03680  0.51690  0.60680  Biso   1.000  H
  C45      1.0000 0.00873  0.46450  0.57440  Biso   1.000  C
  C46      1.0000 0.99825  0.37930  0.56420  Biso   1.000  C
  H35      1.0000 0.98220  0.37840  0.55620  Biso   1.000  H
  C47      1.0000 0.01084  0.29480  0.56540  Biso   1.000  C
  C48      1.0000 0.03180  0.29170  0.58520  Biso   1.000  C
  H36      1.0000 0.03920  0.23370  0.59090  Biso   1.000  H
  Cu2      1.0000 0.40614  0.61790  0.01768  Biso   1.000  Cu
  O7       1.0000 0.32916  0.89270  0.89390  Biso   1.000  O
  O8       1.0000 0.26777  0.08780  0.82430  Biso   1.000  O
  O9       1.0000 0.30319  0.34650  0.97540  Biso   1.000  O
  N13      1.0000 0.38277  0.71110  0.99490  Biso   1.000  N
  N14      1.0000 0.18439  0.21990  0.78761  Biso   1.000  N
  N15      1.0000 0.38476  0.51580  0.00150  Biso   1.000  N
  N16      1.0000 0.33815  0.93190  0.95900  Biso   1.000  N
  H37      1.0000 0.33560  0.97820  0.97640  Biso   1.000  H
  N17      1.0000 0.24391  0.18160  0.87140  Biso   1.000  N
  H38      1.0000 0.24310  0.21660  0.89380  Biso   1.000  H
  N18      1.0000 0.34089  0.29510  0.95990  Biso   1.000  N
  H39      1.0000 0.34890  0.24950  0.94820  Biso   1.000  H
  C49      1.0000 0.37283  0.71410  0.95500  Biso   1.000  C
  H40      1.0000 0.37630  0.66590  0.93570  Biso   1.000  H
  C50      1.0000 0.35779  0.78740  0.94320  Biso   1.000  C
  H41      1.0000 0.35150  0.79240  0.91590  Biso   1.000  H
  C51      1.0000 0.35254  0.85480  0.97550  Biso   1.000  C
  C52      1.0000 0.36114  0.85880  0.02090  Biso   1.000  C
  H42      1.0000 0.35710  0.90250  0.04190  Biso   1.000  H
  C53      1.0000 0.37726  0.77780  0.02390  Biso   1.000  C
  H43      1.0000 0.38500  0.77100  0.04990  Biso   1.000  H
  C54      1.0000 0.32843  0.94150  0.92120  Biso   1.000  C
  C55      1.0000 0.18794  0.25120  0.82200  Biso   1.000  C
  H44      1.0000 0.17480  0.28700  0.83090  Biso   1.000  H
  C56      1.0000 0.20719  0.25060  0.85560  Biso   1.000  C
  H45      1.0000 0.20730  0.28490  0.88080  Biso   1.000  H
  C57      1.0000 0.22499  0.18740  0.84090  Biso   1.000  C
  C58      1.0000 0.22248  0.14010  0.80500  Biso   1.000  C
  H46      1.0000 0.23410  0.09520  0.79770  Biso   1.000  H
  C59      1.0000 0.20456  0.15360  0.77930  Biso   1.000  C
  H47      1.0000 0.20440  0.11940  0.75400  Biso   1.000  H
  C60      1.0000 0.26240  0.12500  0.86650  Biso   1.000  C
  C61      1.0000 0.39234  0.44250  0.97310  Biso   1.000  C
  H48      1.0000 0.40810  0.44530  0.96320  Biso   1.000  H
  C62      1.0000 0.37870  0.37020  0.95960  Biso   1.000  C
  H49      1.0000 0.38420  0.32260  0.94160  Biso   1.000  H
  C63      1.0000 0.35440  0.37390  0.97620  Biso   1.000  C
  C64      1.0000 0.34517  0.44370  0.00400  Biso   1.000  C
  H50      1.0000 0.32950  0.44220  0.01410  Biso   1.000  H
  C65      1.0000 0.36077  0.51200  0.01450  Biso   1.000  C
  H51      1.0000 0.35520  0.56100  0.03190  Biso   1.000  H
  C66      1.0000 0.31751  0.28640  0.96120  Biso   1.000  C
  C67      1.0000 0.31441  0.03740  0.92090  Biso   1.000  C
  C68      1.0000 0.29600  0.03810  0.89260  Biso   1.000  C
  H52      1.0000 0.29260  0.98800  0.87420  Biso   1.000  H
  C69      1.0000 0.28302  0.12100  0.89410  Biso   1.000  C
  C70      1.0000 0.28994  0.20290  0.91200  Biso   1.000  C
  H53      1.0000 0.28240  0.26010  0.90520  Biso   1.000  H
  C71      1.0000 0.30882  0.20010  0.94100  Biso   1.000  C
  C72      1.0000 0.32192  0.11490  0.94560  Biso   1.000  C
  H54      1.0000 0.33490  0.11020  0.96410  Biso   1.000  H
  O10      1.0000 0.07793  0.04220  0.88170  Biso   1.000  O
  O11      1.0000 0.00294  0.87840  0.90680  Biso   1.000  O
  O12      1.0000 0.01226  0.35420  0.96320  Biso   1.000  O
  N19      1.0000 0.13618  0.23320  0.79319  Biso   1.000  N
  N20      1.0000 0.93002  0.72010  0.97660  Biso   1.000  N
  N21      1.0000 0.93086  0.52220  0.96640  Biso   1.000  N
  N22      1.0000 0.07633  0.19470  0.87050  Biso   1.000  N
  H55      1.0000 0.06850  0.24630  0.87590  Biso   1.000  H
  N23      1.0000 0.97714  0.94310  0.95370  Biso   1.000  N
  H56      1.0000 0.97470  0.99130  0.97010  Biso   1.000  H
  N24      1.0000 0.97747  0.30000  0.93920  Biso   1.000  N
  H57      1.0000 0.97100  0.25160  0.92690  Biso   1.000  H
  C73      1.0000 0.13318  0.15830  0.81680  Biso   1.000  C
  H58      1.0000 0.14460  0.11040  0.81400  Biso   1.000  H
  C74      1.0000 0.11578  0.14210  0.84450  Biso   1.000  C
  H59      1.0000 0.11590  0.08810  0.86160  Biso   1.000  H
  C75      1.0000 0.09745  0.20750  0.84720  Biso   1.000  C
  C76      1.0000 0.09988  0.28570  0.82430  Biso   1.000  C
  H60      1.0000 0.08830  0.33310  0.82770  Biso   1.000  H
  C77      1.0000 0.11754  0.30230  0.79660  Biso   1.000  C
  H61      1.0000 0.11770  0.35720  0.78010  Biso   1.000  H
  C78      1.0000 0.06709  0.12150  0.88450  Biso   1.000  C
  C79      1.0000 0.93214  0.79060  0.00000  Biso   1.000  C
  H62      1.0000 0.92330  0.79240  0.02500  Biso   1.000  H
  C80      1.0000 0.94654  0.86400  0.99100  Biso   1.000  C
  H63      1.0000 0.94640  0.91660  0.00910  Biso   1.000  H
  C81      1.0000 0.96145  0.86530  0.95640  Biso   1.000  C
  C82      1.0000 0.96007  0.78830  0.92900  Biso   1.000  C
  H64      1.0000 0.96960  0.78340  0.90480  Biso   1.000  H
  C83      1.0000 0.94328  0.71820  0.94060  Biso   1.000  C
  H65      1.0000 0.94110  0.66700  0.92220  Biso   1.000  H
  C84      1.0000 0.99552  0.94610  0.92710  Biso   1.000  C
  C85      1.0000 0.92493  0.45370  0.94150  Biso   1.000  C
  H66      1.0000 0.90940  0.45420  0.93050  Biso   1.000  H
  C86      1.0000 0.93931  0.38150  0.93030  Biso   1.000  C
  H67      1.0000 0.93470  0.33690  0.91000  Biso   1.000  H
  C87      1.0000 0.96162  0.37680  0.95070  Biso   1.000  C
  C88      1.0000 0.96900  0.44550  0.97710  Biso   1.000  C
  H68      1.0000 0.98450  0.44620  0.98830  Biso   1.000  H
  C89      1.0000 0.95126  0.51970  0.98720  Biso   1.000  C
  H69      1.0000 0.95450  0.56450  0.00820  Biso   1.000  H
  C90      1.0000 0.00092  0.29640  0.94570  Biso   1.000  C
  C91      1.0000 0.04291  0.12090  0.90260  Biso   1.000  C
  C92      1.0000 0.03049  0.03840  0.90520  Biso   1.000  C
  H70      1.0000 0.03680  0.98310  0.89320  Biso   1.000  H
  C93      1.0000 0.00873  0.03550  0.92560  Biso   1.000  C
  C94      1.0000 0.99825  0.12070  0.93580  Biso   1.000  C
  H71      1.0000 0.98220  0.12160  0.94380  Biso   1.000  H
  C95      1.0000 0.01084  0.20520  0.93460  Biso   1.000  C
  C96      1.0000 0.03180  0.20830  0.91480  Biso   1.000  C
  H72      1.0000 0.03920  0.26630  0.90910  Biso   1.000  H
  Cu3      1.0000 0.90614  0.88210  0.51768  Biso   1.000  Cu
  O13      1.0000 0.82916  0.60730  0.39390  Biso   1.000  O
  O14      1.0000 0.76777  0.41220  0.32430  Biso   1.000  O
  O15      1.0000 0.80319  0.15350  0.47540  Biso   1.000  O
  N25      1.0000 0.88277  0.78890  0.49490  Biso   1.000  N
  N26      1.0000 0.68439  0.28010  0.28761  Biso   1.000  N
  N27      1.0000 0.88476  0.98420  0.50150  Biso   1.000  N
  N28      1.0000 0.83815  0.56810  0.45900  Biso   1.000  N
  H73      1.0000 0.83560  0.52180  0.47640  Biso   1.000  H
  N29      1.0000 0.74391  0.31840  0.37140  Biso   1.000  N
  H74      1.0000 0.74310  0.28340  0.39380  Biso   1.000  H
  N30      1.0000 0.84089  0.20490  0.45990  Biso   1.000  N
  H75      1.0000 0.84890  0.25050  0.44820  Biso   1.000  H
  C97      1.0000 0.87283  0.78590  0.45500  Biso   1.000  C
  H76      1.0000 0.87630  0.83410  0.43570  Biso   1.000  H
  C98      1.0000 0.85779  0.71260  0.44320  Biso   1.000  C
  H77      1.0000 0.85150  0.70760  0.41590  Biso   1.000  H
  C99      1.0000 0.85254  0.64520  0.47550  Biso   1.000  C
  C100     1.0000 0.86114  0.64120  0.52090  Biso   1.000  C
  H78      1.0000 0.85710  0.59750  0.54190  Biso   1.000  H
  C101     1.0000 0.87726  0.72220  0.52390  Biso   1.000  C
  H79      1.0000 0.88500  0.72900  0.54990  Biso   1.000  H
  C102     1.0000 0.82843  0.55850  0.42120  Biso   1.000  C
  C103     1.0000 0.68794  0.24880  0.32200  Biso   1.000  C
  H80      1.0000 0.67480  0.21300  0.33090  Biso   1.000  H
  C104     1.0000 0.70719  0.24940  0.35560  Biso   1.000  C
  H81      1.0000 0.70730  0.21510  0.38080  Biso   1.000  H
  C105     1.0000 0.72499  0.31260  0.34090  Biso   1.000  C
  C106     1.0000 0.72248  0.35990  0.30500  Biso   1.000  C
  H82      1.0000 0.73410  0.40480  0.29770  Biso   1.000  H
  C107     1.0000 0.70456  0.34640  0.27930  Biso   1.000  C
  H83      1.0000 0.70440  0.38060  0.25400  Biso   1.000  H
  C108     1.0000 0.76240  0.37500  0.36650  Biso   1.000  C
  C109     1.0000 0.89234  0.05750  0.47310  Biso   1.000  C
  H84      1.0000 0.90810  0.05470  0.46320  Biso   1.000  H
  C110     1.0000 0.87870  0.12980  0.45960  Biso   1.000  C
  H85      1.0000 0.88420  0.17740  0.44160  Biso   1.000  H
  C111     1.0000 0.85440  0.12610  0.47620  Biso   1.000  C
  C112     1.0000 0.84517  0.05630  0.50400  Biso   1.000  C
  H86      1.0000 0.82950  0.05780  0.51410  Biso   1.000  H
  C113     1.0000 0.86077  0.98800  0.51450  Biso   1.000  C
  H87      1.0000 0.85520  0.93900  0.53190  Biso   1.000  H
  C114     1.0000 0.81751  0.21360  0.46120  Biso   1.000  C
  C115     1.0000 0.81441  0.46260  0.42090  Biso   1.000  C
  C116     1.0000 0.79600  0.46190  0.39260  Biso   1.000  C
  H88      1.0000 0.79260  0.51200  0.37420  Biso   1.000  H
  C117     1.0000 0.78302  0.37900  0.39410  Biso   1.000  C
  C118     1.0000 0.78994  0.29710  0.41200  Biso   1.000  C
  H89      1.0000 0.78240  0.23990  0.40520  Biso   1.000  H
  C119     1.0000 0.80882  0.29990  0.44100  Biso   1.000  C
  C120     1.0000 0.82192  0.38510  0.44560  Biso   1.000  C
  H90      1.0000 0.83490  0.38980  0.46410  Biso   1.000  H
  O16      1.0000 0.57793  0.45780  0.38170  Biso   1.000  O
  O17      1.0000 0.50294  0.62160  0.40680  Biso   1.000  O
  O18      1.0000 0.51226  0.14580  0.46320  Biso   1.000  O
  N31      1.0000 0.63618  0.26680  0.29319  Biso   1.000  N
  N32      1.0000 0.43002  0.77990  0.47660  Biso   1.000  N
  N33      1.0000 0.43086  0.97780  0.46640  Biso   1.000  N
  N34      1.0000 0.57633  0.30530  0.37050  Biso   1.000  N
  H91      1.0000 0.56850  0.25370  0.37590  Biso   1.000  H
  N35      1.0000 0.47714  0.55690  0.45370  Biso   1.000  N
  H92      1.0000 0.47470  0.50870  0.47010  Biso   1.000  H
  N36      1.0000 0.47747  0.20000  0.43920  Biso   1.000  N
  H93      1.0000 0.47100  0.24840  0.42690  Biso   1.000  H
  C121     1.0000 0.63318  0.34170  0.31680  Biso   1.000  C
  H94      1.0000 0.64460  0.38960  0.31400  Biso   1.000  H
  C122     1.0000 0.61578  0.35790  0.34450  Biso   1.000  C
  H95      1.0000 0.61590  0.41190  0.36160  Biso   1.000  H
  C123     1.0000 0.59745  0.29250  0.34720  Biso   1.000  C
  C124     1.0000 0.59988  0.21430  0.32430  Biso   1.000  C
  H96      1.0000 0.58830  0.16690  0.32770  Biso   1.000  H
  C125     1.0000 0.61754  0.19770  0.29660  Biso   1.000  C
  H97      1.0000 0.61770  0.14280  0.28010  Biso   1.000  H
  C126     1.0000 0.56709  0.37850  0.38450  Biso   1.000  C
  C127     1.0000 0.43214  0.70940  0.50000  Biso   1.000  C
  H98      1.0000 0.42330  0.70760  0.52500  Biso   1.000  H
  C128     1.0000 0.44654  0.63600  0.49100  Biso   1.000  C
  H99      1.0000 0.44640  0.58340  0.50910  Biso   1.000  H
  C129     1.0000 0.46145  0.63470  0.45640  Biso   1.000  C
  C130     1.0000 0.46007  0.71170  0.42900  Biso   1.000  C
  H100     1.0000 0.46960  0.71660  0.40480  Biso   1.000  H
  C131     1.0000 0.44328  0.78180  0.44060  Biso   1.000  C
  H101     1.0000 0.44110  0.83300  0.42220  Biso   1.000  H
  C132     1.0000 0.49552  0.55390  0.42710  Biso   1.000  C
  C133     1.0000 0.42493  0.04630  0.44150  Biso   1.000  C
  H102     1.0000 0.40940  0.04580  0.43050  Biso   1.000  H
  C134     1.0000 0.43931  0.11850  0.43030  Biso   1.000  C
  H103     1.0000 0.43470  0.16310  0.41000  Biso   1.000  H
  C135     1.0000 0.46162  0.12320  0.45070  Biso   1.000  C
  C136     1.0000 0.46900  0.05450  0.47710  Biso   1.000  C
  H104     1.0000 0.48450  0.05380  0.48830  Biso   1.000  H
  C137     1.0000 0.45126  0.98030  0.48720  Biso   1.000  C
  H105     1.0000 0.45450  0.93550  0.50820  Biso   1.000  H
  C138     1.0000 0.50092  0.20360  0.44570  Biso   1.000  C
  C139     1.0000 0.54291  0.37910  0.40260  Biso   1.000  C
  C140     1.0000 0.53049  0.46160  0.40520  Biso   1.000  C
  H106     1.0000 0.53680  0.51690  0.39320  Biso   1.000  H
  C141     1.0000 0.50873  0.46450  0.42560  Biso   1.000  C
  C142     1.0000 0.49825  0.37930  0.43580  Biso   1.000  C
  H107     1.0000 0.48220  0.37840  0.44380  Biso   1.000  H
  C143     1.0000 0.51084  0.29480  0.43460  Biso   1.000  C
  C144     1.0000 0.53180  0.29170  0.41480  Biso   1.000  C
  H108     1.0000 0.53920  0.23370  0.40910  Biso   1.000  H
  Cu4      1.0000 0.90614  0.61790  0.98232  Biso   1.000  Cu
  O19      1.0000 0.82916  0.89270  0.10610  Biso   1.000  O
  O20      1.0000 0.76777  0.08780  0.17570  Biso   1.000  O
  O21      1.0000 0.80319  0.34650  0.02460  Biso   1.000  O
  N37      1.0000 0.88277  0.71110  0.00510  Biso   1.000  N
  N38      1.0000 0.68439  0.21990  0.21239  Biso   1.000  N
  N39      1.0000 0.88476  0.51580  0.99850  Biso   1.000  N
  N40      1.0000 0.83815  0.93190  0.04100  Biso   1.000  N
  H109     1.0000 0.83560  0.97820  0.02360  Biso   1.000  H
  N41      1.0000 0.74391  0.18160  0.12860  Biso   1.000  N
  H110     1.0000 0.74310  0.21660  0.10620  Biso   1.000  H
  N42      1.0000 0.84089  0.29510  0.04010  Biso   1.000  N
  H111     1.0000 0.84890  0.24950  0.05180  Biso   1.000  H
  C145     1.0000 0.87283  0.71410  0.04500  Biso   1.000  C
  H112     1.0000 0.87630  0.66590  0.06430  Biso   1.000  H
  C146     1.0000 0.85779  0.78740  0.05680  Biso   1.000  C
  H113     1.0000 0.85150  0.79240  0.08410  Biso   1.000  H
  C147     1.0000 0.85254  0.85480  0.02450  Biso   1.000  C
  C148     1.0000 0.86114  0.85880  0.97910  Biso   1.000  C
  H114     1.0000 0.85710  0.90250  0.95810  Biso   1.000  H
  C149     1.0000 0.87726  0.77780  0.97610  Biso   1.000  C
  H115     1.0000 0.88500  0.77100  0.95010  Biso   1.000  H
  C150     1.0000 0.82843  0.94150  0.07880  Biso   1.000  C
  C151     1.0000 0.68794  0.25120  0.17800  Biso   1.000  C
  H116     1.0000 0.67480  0.28700  0.16910  Biso   1.000  H
  C152     1.0000 0.70719  0.25060  0.14440  Biso   1.000  C
  H117     1.0000 0.70730  0.28490  0.11920  Biso   1.000  H
  C153     1.0000 0.72499  0.18740  0.15910  Biso   1.000  C
  C154     1.0000 0.72248  0.14010  0.19500  Biso   1.000  C
  H118     1.0000 0.73410  0.09520  0.20230  Biso   1.000  H
  C155     1.0000 0.70456  0.15360  0.22070  Biso   1.000  C
  H119     1.0000 0.70440  0.11940  0.24600  Biso   1.000  H
  C156     1.0000 0.76240  0.12500  0.13350  Biso   1.000  C
  C157     1.0000 0.89234  0.44250  0.02690  Biso   1.000  C
  H120     1.0000 0.90810  0.44530  0.03680  Biso   1.000  H
  C158     1.0000 0.87870  0.37020  0.04040  Biso   1.000  C
  H121     1.0000 0.88420  0.32260  0.05840  Biso   1.000  H
  C159     1.0000 0.85440  0.37390  0.02380  Biso   1.000  C
  C160     1.0000 0.84517  0.44370  0.99600  Biso   1.000  C
  H122     1.0000 0.82950  0.44220  0.98590  Biso   1.000  H
  C161     1.0000 0.86077  0.51200  0.98550  Biso   1.000  C
  H123     1.0000 0.85520  0.56100  0.96810  Biso   1.000  H
  C162     1.0000 0.81751  0.28640  0.03880  Biso   1.000  C
  C163     1.0000 0.81441  0.03740  0.07910  Biso   1.000  C
  C164     1.0000 0.79600  0.03810  0.10740  Biso   1.000  C
  H124     1.0000 0.79260  0.98800  0.12580  Biso   1.000  H
  C165     1.0000 0.78302  0.12100  0.10590  Biso   1.000  C
  C166     1.0000 0.78994  0.20290  0.08800  Biso   1.000  C
  H125     1.0000 0.78240  0.26010  0.09480  Biso   1.000  H
  C167     1.0000 0.80882  0.20010  0.05900  Biso   1.000  C
  C168     1.0000 0.82192  0.11490  0.05440  Biso   1.000  C
  H126     1.0000 0.83490  0.11020  0.03590  Biso   1.000  H
  O22      1.0000 0.57793  0.04220  0.11830  Biso   1.000  O
  O23      1.0000 0.50294  0.87840  0.09320  Biso   1.000  O
  O24      1.0000 0.51226  0.35420  0.03680  Biso   1.000  O
  N43      1.0000 0.63618  0.23320  0.20681  Biso   1.000  N
  N44      1.0000 0.43002  0.72010  0.02340  Biso   1.000  N
  N45      1.0000 0.43086  0.52220  0.03360  Biso   1.000  N
  N46      1.0000 0.57633  0.19470  0.12950  Biso   1.000  N
  H127     1.0000 0.56850  0.24630  0.12410  Biso   1.000  H
  N47      1.0000 0.47714  0.94310  0.04630  Biso   1.000  N
  H128     1.0000 0.47470  0.99130  0.02990  Biso   1.000  H
  N48      1.0000 0.47747  0.30000  0.06080  Biso   1.000  N
  H129     1.0000 0.47100  0.25160  0.07310  Biso   1.000  H
  C169     1.0000 0.63318  0.15830  0.18320  Biso   1.000  C
  H130     1.0000 0.64460  0.11040  0.18600  Biso   1.000  H
  C170     1.0000 0.61578  0.14210  0.15550  Biso   1.000  C
  H131     1.0000 0.61590  0.08810  0.13840  Biso   1.000  H
  C171     1.0000 0.59745  0.20750  0.15280  Biso   1.000  C
  C172     1.0000 0.59988  0.28570  0.17570  Biso   1.000  C
  H132     1.0000 0.58830  0.33310  0.17230  Biso   1.000  H
  C173     1.0000 0.61754  0.30230  0.20340  Biso   1.000  C
  H133     1.0000 0.61770  0.35720  0.21990  Biso   1.000  H
  C174     1.0000 0.56709  0.12150  0.11550  Biso   1.000  C
  C175     1.0000 0.43214  0.79060  0.00000  Biso   1.000  C
  H134     1.0000 0.42330  0.79240  0.97500  Biso   1.000  H
  C176     1.0000 0.44654  0.86400  0.00900  Biso   1.000  C
  H135     1.0000 0.44640  0.91660  0.99090  Biso   1.000  H
  C177     1.0000 0.46145  0.86530  0.04360  Biso   1.000  C
  C178     1.0000 0.46007  0.78830  0.07100  Biso   1.000  C
  H136     1.0000 0.46960  0.78340  0.09520  Biso   1.000  H
  C179     1.0000 0.44328  0.71820  0.05940  Biso   1.000  C
  H137     1.0000 0.44110  0.66700  0.07780  Biso   1.000  H
  C180     1.0000 0.49552  0.94610  0.07290  Biso   1.000  C
  C181     1.0000 0.42493  0.45370  0.05850  Biso   1.000  C
  H138     1.0000 0.40940  0.45420  0.06950  Biso   1.000  H
  C182     1.0000 0.43931  0.38150  0.06970  Biso   1.000  C
  H139     1.0000 0.43470  0.33690  0.09000  Biso   1.000  H
  C183     1.0000 0.46162  0.37680  0.04930  Biso   1.000  C
  C184     1.0000 0.46900  0.44550  0.02290  Biso   1.000  C
  H140     1.0000 0.48450  0.44620  0.01170  Biso   1.000  H
  C185     1.0000 0.45126  0.51970  0.01280  Biso   1.000  C
  H141     1.0000 0.45450  0.56450  0.99180  Biso   1.000  H
  C186     1.0000 0.50092  0.29640  0.05430  Biso   1.000  C
  C187     1.0000 0.54291  0.12090  0.09740  Biso   1.000  C
  C188     1.0000 0.53049  0.03840  0.09480  Biso   1.000  C
  H142     1.0000 0.53680  0.98310  0.10680  Biso   1.000  H
  C189     1.0000 0.50873  0.03550  0.07440  Biso   1.000  C
  C190     1.0000 0.49825  0.12070  0.06420  Biso   1.000  C
  H143     1.0000 0.48220  0.12160  0.05620  Biso   1.000  H
  C191     1.0000 0.51084  0.20520  0.06540  Biso   1.000  C
  C192     1.0000 0.53180  0.20830  0.08520  Biso   1.000  C
  H144     1.0000 0.53920  0.26630  0.09090  Biso   1.000  H
  Cu5      1.0000 0.16032  0.25000  0.75000  Biso   1.000  Cu
  Cu6      1.0000 0.66032  0.25000  0.25000  Biso   1.000  Cu
  Cu7      1.0000 0.09386  0.11790  0.48232  Biso   1.000  Cu
  O25      1.0000 0.17084  0.39270  0.60610  Biso   1.000  O
  O26      1.0000 0.23223  0.58780  0.67570  Biso   1.000  O
  O27      1.0000 0.19681  0.84650  0.52460  Biso   1.000  O
  N49      1.0000 0.11723  0.21110  0.50510  Biso   1.000  N
  N50      1.0000 0.31561  0.71990  0.71239  Biso   1.000  N
  N51      1.0000 0.11524  0.01580  0.49850  Biso   1.000  N
  N52      1.0000 0.16185  0.43190  0.54100  Biso   1.000  N
  H145     1.0000 0.16440  0.47820  0.52360  Biso   1.000  H
  N53      1.0000 0.25609  0.68160  0.62860  Biso   1.000  N
  H146     1.0000 0.25690  0.71660  0.60620  Biso   1.000  H
  N54      1.0000 0.15911  0.79510  0.54010  Biso   1.000  N
  H147     1.0000 0.15110  0.74950  0.55180  Biso   1.000  H
  C193     1.0000 0.12717  0.21410  0.54500  Biso   1.000  C
  H148     1.0000 0.12370  0.16590  0.56430  Biso   1.000  H
  C194     1.0000 0.14221  0.28740  0.55680  Biso   1.000  C
  H149     1.0000 0.14850  0.29240  0.58410  Biso   1.000  H
  C195     1.0000 0.14746  0.35480  0.52450  Biso   1.000  C
  C196     1.0000 0.13886  0.35880  0.47910  Biso   1.000  C
  H150     1.0000 0.14290  0.40250  0.45810  Biso   1.000  H
  C197     1.0000 0.12274  0.27780  0.47610  Biso   1.000  C
  H151     1.0000 0.11500  0.27100  0.45010  Biso   1.000  H
  C198     1.0000 0.17157  0.44150  0.57880  Biso   1.000  C
  C199     1.0000 0.31206  0.75120  0.67800  Biso   1.000  C
  H152     1.0000 0.32520  0.78700  0.66910  Biso   1.000  H
  C200     1.0000 0.29281  0.75060  0.64440  Biso   1.000  C
  H153     1.0000 0.29270  0.78490  0.61920  Biso   1.000  H
  C201     1.0000 0.27501  0.68740  0.65910  Biso   1.000  C
  C202     1.0000 0.27752  0.64010  0.69500  Biso   1.000  C
  H154     1.0000 0.26590  0.59520  0.70230  Biso   1.000  H
  C203     1.0000 0.29544  0.65360  0.72070  Biso   1.000  C
  H155     1.0000 0.29560  0.61940  0.74600  Biso   1.000  H
  C204     1.0000 0.23760  0.62500  0.63350  Biso   1.000  C
  C205     1.0000 0.10766  0.94250  0.52690  Biso   1.000  C
  H156     1.0000 0.09190  0.94530  0.53680  Biso   1.000  H
  C206     1.0000 0.12130  0.87020  0.54040  Biso   1.000  C
  H157     1.0000 0.11580  0.82260  0.55840  Biso   1.000  H
  C207     1.0000 0.14560  0.87390  0.52380  Biso   1.000  C
  C208     1.0000 0.15483  0.94370  0.49600  Biso   1.000  C
  H158     1.0000 0.17050  0.94220  0.48590  Biso   1.000  H
  C209     1.0000 0.13923  0.01200  0.48550  Biso   1.000  C
  H159     1.0000 0.14480  0.06100  0.46810  Biso   1.000  H
  C210     1.0000 0.18249  0.78640  0.53880  Biso   1.000  C
  C211     1.0000 0.18559  0.53740  0.57910  Biso   1.000  C
  C212     1.0000 0.20400  0.53810  0.60740  Biso   1.000  C
  H160     1.0000 0.20740  0.48800  0.62580  Biso   1.000  H
  C213     1.0000 0.21698  0.62100  0.60590  Biso   1.000  C
  C214     1.0000 0.21006  0.70290  0.58800  Biso   1.000  C
  H161     1.0000 0.21760  0.76010  0.59480  Biso   1.000  H
  C215     1.0000 0.19118  0.70010  0.55900  Biso   1.000  C
  C216     1.0000 0.17808  0.61490  0.55440  Biso   1.000  C
  H162     1.0000 0.16510  0.61020  0.53590  Biso   1.000  H
  O28      1.0000 0.42207  0.54220  0.61830  Biso   1.000  O
  O29      1.0000 0.49706  0.37840  0.59320  Biso   1.000  O
  O30      1.0000 0.48774  0.85420  0.53680  Biso   1.000  O
  N55      1.0000 0.36382  0.73320  0.70681  Biso   1.000  N
  N56      1.0000 0.56998  0.22010  0.52340  Biso   1.000  N
  N57      1.0000 0.56914  0.02220  0.53360  Biso   1.000  N
  N58      1.0000 0.42367  0.69470  0.62950  Biso   1.000  N
  H163     1.0000 0.43150  0.74630  0.62410  Biso   1.000  H
  N59      1.0000 0.52286  0.44310  0.54630  Biso   1.000  N
  H164     1.0000 0.52530  0.49130  0.52990  Biso   1.000  H
  N60      1.0000 0.52253  0.80000  0.56080  Biso   1.000  N
  H165     1.0000 0.52900  0.75160  0.57310  Biso   1.000  H
  C217     1.0000 0.36682  0.65830  0.68320  Biso   1.000  C
  H166     1.0000 0.35540  0.61040  0.68600  Biso   1.000  H
  C218     1.0000 0.38422  0.64210  0.65550  Biso   1.000  C
  H167     1.0000 0.38410  0.58810  0.63840  Biso   1.000  H
  C219     1.0000 0.40255  0.70750  0.65280  Biso   1.000  C
  C220     1.0000 0.40012  0.78570  0.67570  Biso   1.000  C
  H168     1.0000 0.41170  0.83310  0.67230  Biso   1.000  H
  C221     1.0000 0.38246  0.80230  0.70340  Biso   1.000  C
  H169     1.0000 0.38230  0.85720  0.71990  Biso   1.000  H
  C222     1.0000 0.43291  0.62150  0.61550  Biso   1.000  C
  C223     1.0000 0.56786  0.29060  0.50000  Biso   1.000  C
  H170     1.0000 0.57670  0.29240  0.47500  Biso   1.000  H
  C224     1.0000 0.55346  0.36400  0.50900  Biso   1.000  C
  H171     1.0000 0.55360  0.41660  0.49090  Biso   1.000  H
  C225     1.0000 0.53855  0.36530  0.54360  Biso   1.000  C
  C226     1.0000 0.53993  0.28830  0.57100  Biso   1.000  C
  H172     1.0000 0.53040  0.28340  0.59520  Biso   1.000  H
  C227     1.0000 0.55672  0.21820  0.55940  Biso   1.000  C
  H173     1.0000 0.55890  0.16700  0.57780  Biso   1.000  H
  C228     1.0000 0.50448  0.44610  0.57290  Biso   1.000  C
  C229     1.0000 0.57507  0.95370  0.55850  Biso   1.000  C
  H174     1.0000 0.59060  0.95420  0.56950  Biso   1.000  H
  C230     1.0000 0.56069  0.88150  0.56970  Biso   1.000  C
  H175     1.0000 0.56530  0.83690  0.59000  Biso   1.000  H
  C231     1.0000 0.53838  0.87680  0.54930  Biso   1.000  C
  C232     1.0000 0.53100  0.94550  0.52290  Biso   1.000  C
  H176     1.0000 0.51550  0.94620  0.51170  Biso   1.000  H
  C233     1.0000 0.54874  0.01970  0.51280  Biso   1.000  C
  H177     1.0000 0.54550  0.06450  0.49180  Biso   1.000  H
  C234     1.0000 0.49908  0.79640  0.55430  Biso   1.000  C
  C235     1.0000 0.45709  0.62090  0.59740  Biso   1.000  C
  C236     1.0000 0.46951  0.53840  0.59480  Biso   1.000  C
  H178     1.0000 0.46320  0.48310  0.60680  Biso   1.000  H
  C237     1.0000 0.49127  0.53550  0.57440  Biso   1.000  C
  C238     1.0000 0.50175  0.62070  0.56420  Biso   1.000  C
  H179     1.0000 0.51780  0.62160  0.55620  Biso   1.000  H
  C239     1.0000 0.48916  0.70520  0.56540  Biso   1.000  C
  C240     1.0000 0.46820  0.70830  0.58520  Biso   1.000  C
  H180     1.0000 0.46080  0.76630  0.59090  Biso   1.000  H
  Cu8      1.0000 0.09386  0.38210  0.01768  Biso   1.000  Cu
  O31      1.0000 0.17084  0.10730  0.89390  Biso   1.000  O
  O32      1.0000 0.23223  0.91220  0.82430  Biso   1.000  O
  O33      1.0000 0.19681  0.65350  0.97540  Biso   1.000  O
  N61      1.0000 0.11723  0.28890  0.99490  Biso   1.000  N
  N62      1.0000 0.31561  0.78010  0.78761  Biso   1.000  N
  N63      1.0000 0.11524  0.48420  0.00150  Biso   1.000  N
  N64      1.0000 0.16185  0.06810  0.95900  Biso   1.000  N
  H181     1.0000 0.16440  0.02180  0.97640  Biso   1.000  H
  N65      1.0000 0.25609  0.81840  0.87140  Biso   1.000  N
  H182     1.0000 0.25690  0.78340  0.89380  Biso   1.000  H
  N66      1.0000 0.15911  0.70490  0.95990  Biso   1.000  N
  H183     1.0000 0.15110  0.75050  0.94820  Biso   1.000  H
  C241     1.0000 0.12717  0.28590  0.95500  Biso   1.000  C
  H184     1.0000 0.12370  0.33410  0.93570  Biso   1.000  H
  C242     1.0000 0.14221  0.21260  0.94320  Biso   1.000  C
  H185     1.0000 0.14850  0.20760  0.91590  Biso   1.000  H
  C243     1.0000 0.14746  0.14520  0.97550  Biso   1.000  C
  C244     1.0000 0.13886  0.14120  0.02090  Biso   1.000  C
  H186     1.0000 0.14290  0.09750  0.04190  Biso   1.000  H
  C245     1.0000 0.12274  0.22220  0.02390  Biso   1.000  C
  H187     1.0000 0.11500  0.22900  0.04990  Biso   1.000  H
  C246     1.0000 0.17157  0.05850  0.92120  Biso   1.000  C
  C247     1.0000 0.31206  0.74880  0.82200  Biso   1.000  C
  H188     1.0000 0.32520  0.71300  0.83090  Biso   1.000  H
  C248     1.0000 0.29281  0.74940  0.85560  Biso   1.000  C
  H189     1.0000 0.29270  0.71510  0.88080  Biso   1.000  H
  C249     1.0000 0.27501  0.81260  0.84090  Biso   1.000  C
  C250     1.0000 0.27752  0.85990  0.80500  Biso   1.000  C
  H190     1.0000 0.26590  0.90480  0.79770  Biso   1.000  H
  C251     1.0000 0.29544  0.84640  0.77930  Biso   1.000  C
  H191     1.0000 0.29560  0.88060  0.75400  Biso   1.000  H
  C252     1.0000 0.23760  0.87500  0.86650  Biso   1.000  C
  C253     1.0000 0.10766  0.55750  0.97310  Biso   1.000  C
  H192     1.0000 0.09190  0.55470  0.96320  Biso   1.000  H
  C254     1.0000 0.12130  0.62980  0.95960  Biso   1.000  C
  H193     1.0000 0.11580  0.67740  0.94160  Biso   1.000  H
  C255     1.0000 0.14560  0.62610  0.97620  Biso   1.000  C
  C256     1.0000 0.15483  0.55630  0.00400  Biso   1.000  C
  H194     1.0000 0.17050  0.55780  0.01410  Biso   1.000  H
  C257     1.0000 0.13923  0.48800  0.01450  Biso   1.000  C
  H195     1.0000 0.14480  0.43900  0.03190  Biso   1.000  H
  C258     1.0000 0.18249  0.71360  0.96120  Biso   1.000  C
  C259     1.0000 0.18559  0.96260  0.92090  Biso   1.000  C
  C260     1.0000 0.20400  0.96190  0.89260  Biso   1.000  C
  H196     1.0000 0.20740  0.01200  0.87420  Biso   1.000  H
  C261     1.0000 0.21698  0.87900  0.89410  Biso   1.000  C
  C262     1.0000 0.21006  0.79710  0.91200  Biso   1.000  C
  H197     1.0000 0.21760  0.73990  0.90520  Biso   1.000  H
  C263     1.0000 0.19118  0.79990  0.94100  Biso   1.000  C
  C264     1.0000 0.17808  0.88510  0.94560  Biso   1.000  C
  H198     1.0000 0.16510  0.88980  0.96410  Biso   1.000  H
  O34      1.0000 0.42207  0.95780  0.88170  Biso   1.000  O
  O35      1.0000 0.49706  0.12160  0.90680  Biso   1.000  O
  O36      1.0000 0.48774  0.64580  0.96320  Biso   1.000  O
  N67      1.0000 0.36382  0.76680  0.79319  Biso   1.000  N
  N68      1.0000 0.56998  0.27990  0.97660  Biso   1.000  N
  N69      1.0000 0.56914  0.47780  0.96640  Biso   1.000  N
  N70      1.0000 0.42367  0.80530  0.87050  Biso   1.000  N
  H199     1.0000 0.43150  0.75370  0.87590  Biso   1.000  H
  N71      1.0000 0.52286  0.05690  0.95370  Biso   1.000  N
  H200     1.0000 0.52530  0.00870  0.97010  Biso   1.000  H
  N72      1.0000 0.52253  0.70000  0.93920  Biso   1.000  N
  H201     1.0000 0.52900  0.74840  0.92690  Biso   1.000  H
  C265     1.0000 0.36682  0.84170  0.81680  Biso   1.000  C
  H202     1.0000 0.35540  0.88960  0.81400  Biso   1.000  H
  C266     1.0000 0.38422  0.85790  0.84450  Biso   1.000  C
  H203     1.0000 0.38410  0.91190  0.86160  Biso   1.000  H
  C267     1.0000 0.40255  0.79250  0.84720  Biso   1.000  C
  C268     1.0000 0.40012  0.71430  0.82430  Biso   1.000  C
  H204     1.0000 0.41170  0.66690  0.82770  Biso   1.000  H
  C269     1.0000 0.38246  0.69770  0.79660  Biso   1.000  C
  H205     1.0000 0.38230  0.64280  0.78010  Biso   1.000  H
  C270     1.0000 0.43291  0.87850  0.88450  Biso   1.000  C
  C271     1.0000 0.56786  0.20940  0.00000  Biso   1.000  C
  H206     1.0000 0.57670  0.20760  0.02500  Biso   1.000  H
  C272     1.0000 0.55346  0.13600  0.99100  Biso   1.000  C
  H207     1.0000 0.55360  0.08340  0.00910  Biso   1.000  H
  C273     1.0000 0.53855  0.13470  0.95640  Biso   1.000  C
  C274     1.0000 0.53993  0.21170  0.92900  Biso   1.000  C
  H208     1.0000 0.53040  0.21660  0.90480  Biso   1.000  H
  C275     1.0000 0.55672  0.28180  0.94060  Biso   1.000  C
  H209     1.0000 0.55890  0.33300  0.92220  Biso   1.000  H
  C276     1.0000 0.50448  0.05390  0.92710  Biso   1.000  C
  C277     1.0000 0.57507  0.54630  0.94150  Biso   1.000  C
  H210     1.0000 0.59060  0.54580  0.93050  Biso   1.000  H
  C278     1.0000 0.56069  0.61850  0.93030  Biso   1.000  C
  H211     1.0000 0.56530  0.66310  0.91000  Biso   1.000  H
  C279     1.0000 0.53838  0.62320  0.95070  Biso   1.000  C
  C280     1.0000 0.53100  0.55450  0.97710  Biso   1.000  C
  H212     1.0000 0.51550  0.55380  0.98830  Biso   1.000  H
  C281     1.0000 0.54874  0.48030  0.98720  Biso   1.000  C
  H213     1.0000 0.54550  0.43550  0.00820  Biso   1.000  H
  C282     1.0000 0.49908  0.70360  0.94570  Biso   1.000  C
  C283     1.0000 0.45709  0.87910  0.90260  Biso   1.000  C
  C284     1.0000 0.46951  0.96160  0.90520  Biso   1.000  C
  H214     1.0000 0.46320  0.01690  0.89320  Biso   1.000  H
  C285     1.0000 0.49127  0.96450  0.92560  Biso   1.000  C
  C286     1.0000 0.50175  0.87930  0.93580  Biso   1.000  C
  H215     1.0000 0.51780  0.87840  0.94380  Biso   1.000  H
  C287     1.0000 0.48916  0.79480  0.93460  Biso   1.000  C
  C288     1.0000 0.46820  0.79170  0.91480  Biso   1.000  C
  H216     1.0000 0.46080  0.73370  0.90910  Biso   1.000  H
  Cu9      1.0000 0.59386  0.11790  0.51768  Biso   1.000  Cu
  O37      1.0000 0.67084  0.39270  0.39390  Biso   1.000  O
  O38      1.0000 0.73223  0.58780  0.32430  Biso   1.000  O
  O39      1.0000 0.69681  0.84650  0.47540  Biso   1.000  O
  N73      1.0000 0.61723  0.21110  0.49490  Biso   1.000  N
  N74      1.0000 0.81561  0.71990  0.28761  Biso   1.000  N
  N75      1.0000 0.61524  0.01580  0.50150  Biso   1.000  N
  N76      1.0000 0.66185  0.43190  0.45900  Biso   1.000  N
  H217     1.0000 0.66440  0.47820  0.47640  Biso   1.000  H
  N77      1.0000 0.75609  0.68160  0.37140  Biso   1.000  N
  H218     1.0000 0.75690  0.71660  0.39380  Biso   1.000  H
  N78      1.0000 0.65911  0.79510  0.45990  Biso   1.000  N
  H219     1.0000 0.65110  0.74950  0.44820  Biso   1.000  H
  C289     1.0000 0.62717  0.21410  0.45500  Biso   1.000  C
  H220     1.0000 0.62370  0.16590  0.43570  Biso   1.000  H
  C290     1.0000 0.64221  0.28740  0.44320  Biso   1.000  C
  H221     1.0000 0.64850  0.29240  0.41590  Biso   1.000  H
  C291     1.0000 0.64746  0.35480  0.47550  Biso   1.000  C
  C292     1.0000 0.63886  0.35880  0.52090  Biso   1.000  C
  H222     1.0000 0.64290  0.40250  0.54190  Biso   1.000  H
  C293     1.0000 0.62274  0.27780  0.52390  Biso   1.000  C
  H223     1.0000 0.61500  0.27100  0.54990  Biso   1.000  H
  C294     1.0000 0.67157  0.44150  0.42120  Biso   1.000  C
  C295     1.0000 0.81206  0.75120  0.32200  Biso   1.000  C
  H224     1.0000 0.82520  0.78700  0.33090  Biso   1.000  H
  C296     1.0000 0.79281  0.75060  0.35560  Biso   1.000  C
  H225     1.0000 0.79270  0.78490  0.38080  Biso   1.000  H
  C297     1.0000 0.77501  0.68740  0.34090  Biso   1.000  C
  C298     1.0000 0.77752  0.64010  0.30500  Biso   1.000  C
  H226     1.0000 0.76590  0.59520  0.29770  Biso   1.000  H
  C299     1.0000 0.79544  0.65360  0.27930  Biso   1.000  C
  H227     1.0000 0.79560  0.61940  0.25400  Biso   1.000  H
  C300     1.0000 0.73760  0.62500  0.36650  Biso   1.000  C
  C301     1.0000 0.60766  0.94250  0.47310  Biso   1.000  C
  H228     1.0000 0.59190  0.94530  0.46320  Biso   1.000  H
  C302     1.0000 0.62130  0.87020  0.45960  Biso   1.000  C
  H229     1.0000 0.61580  0.82260  0.44160  Biso   1.000  H
  C303     1.0000 0.64560  0.87390  0.47620  Biso   1.000  C
  C304     1.0000 0.65483  0.94370  0.50400  Biso   1.000  C
  H230     1.0000 0.67050  0.94220  0.51410  Biso   1.000  H
  C305     1.0000 0.63923  0.01200  0.51450  Biso   1.000  C
  H231     1.0000 0.64480  0.06100  0.53190  Biso   1.000  H
  C306     1.0000 0.68249  0.78640  0.46120  Biso   1.000  C
  C307     1.0000 0.68559  0.53740  0.42090  Biso   1.000  C
  C308     1.0000 0.70400  0.53810  0.39260  Biso   1.000  C
  H232     1.0000 0.70740  0.48800  0.37420  Biso   1.000  H
  C309     1.0000 0.71698  0.62100  0.39410  Biso   1.000  C
  C310     1.0000 0.71006  0.70290  0.41200  Biso   1.000  C
  H233     1.0000 0.71760  0.76010  0.40520  Biso   1.000  H
  C311     1.0000 0.69118  0.70010  0.44100  Biso   1.000  C
  C312     1.0000 0.67808  0.61490  0.44560  Biso   1.000  C
  H234     1.0000 0.66510  0.61020  0.46410  Biso   1.000  H
  O40      1.0000 0.92207  0.54220  0.38170  Biso   1.000  O
  O41      1.0000 0.99706  0.37840  0.40680  Biso   1.000  O
  O42      1.0000 0.98774  0.85420  0.46320  Biso   1.000  O
  N79      1.0000 0.86382  0.73320  0.29319  Biso   1.000  N
  N80      1.0000 0.06998  0.22010  0.47660  Biso   1.000  N
  N81      1.0000 0.06914  0.02220  0.46640  Biso   1.000  N
  N82      1.0000 0.92367  0.69470  0.37050  Biso   1.000  N
  H235     1.0000 0.93150  0.74630  0.37590  Biso   1.000  H
  N83      1.0000 0.02286  0.44310  0.45370  Biso   1.000  N
  H236     1.0000 0.02530  0.49130  0.47010  Biso   1.000  H
  N84      1.0000 0.02253  0.80000  0.43920  Biso   1.000  N
  H237     1.0000 0.02900  0.75160  0.42690  Biso   1.000  H
  C313     1.0000 0.86682  0.65830  0.31680  Biso   1.000  C
  H238     1.0000 0.85540  0.61040  0.31400  Biso   1.000  H
  C314     1.0000 0.88422  0.64210  0.34450  Biso   1.000  C
  H239     1.0000 0.88410  0.58810  0.36160  Biso   1.000  H
  C315     1.0000 0.90255  0.70750  0.34720  Biso   1.000  C
  C316     1.0000 0.90012  0.78570  0.32430  Biso   1.000  C
  H240     1.0000 0.91170  0.83310  0.32770  Biso   1.000  H
  C317     1.0000 0.88246  0.80230  0.29660  Biso   1.000  C
  H241     1.0000 0.88230  0.85720  0.28010  Biso   1.000  H
  C318     1.0000 0.93291  0.62150  0.38450  Biso   1.000  C
  C319     1.0000 0.06786  0.29060  0.50000  Biso   1.000  C
  H242     1.0000 0.07670  0.29240  0.52500  Biso   1.000  H
  C320     1.0000 0.05346  0.36400  0.49100  Biso   1.000  C
  H243     1.0000 0.05360  0.41660  0.50910  Biso   1.000  H
  C321     1.0000 0.03855  0.36530  0.45640  Biso   1.000  C
  C322     1.0000 0.03993  0.28830  0.42900  Biso   1.000  C
  H244     1.0000 0.03040  0.28340  0.40480  Biso   1.000  H
  C323     1.0000 0.05672  0.21820  0.44060  Biso   1.000  C
  H245     1.0000 0.05890  0.16700  0.42220  Biso   1.000  H
  C324     1.0000 0.00448  0.44610  0.42710  Biso   1.000  C
  C325     1.0000 0.07507  0.95370  0.44150  Biso   1.000  C
  H246     1.0000 0.09060  0.95420  0.43050  Biso   1.000  H
  C326     1.0000 0.06069  0.88150  0.43030  Biso   1.000  C
  H247     1.0000 0.06530  0.83690  0.41000  Biso   1.000  H
  C327     1.0000 0.03838  0.87680  0.45070  Biso   1.000  C
  C328     1.0000 0.03100  0.94550  0.47710  Biso   1.000  C
  H248     1.0000 0.01550  0.94620  0.48830  Biso   1.000  H
  C329     1.0000 0.04874  0.01970  0.48720  Biso   1.000  C
  H249     1.0000 0.04550  0.06450  0.50820  Biso   1.000  H
  C330     1.0000 0.99908  0.79640  0.44570  Biso   1.000  C
  C331     1.0000 0.95709  0.62090  0.40260  Biso   1.000  C
  C332     1.0000 0.96951  0.53840  0.40520  Biso   1.000  C
  H250     1.0000 0.96320  0.48310  0.39320  Biso   1.000  H
  C333     1.0000 0.99127  0.53550  0.42560  Biso   1.000  C
  C334     1.0000 0.00175  0.62070  0.43580  Biso   1.000  C
  H251     1.0000 0.01780  0.62160  0.44380  Biso   1.000  H
  C335     1.0000 0.98916  0.70520  0.43460  Biso   1.000  C
  C336     1.0000 0.96820  0.70830  0.41480  Biso   1.000  C
  H252     1.0000 0.96080  0.76630  0.40910  Biso   1.000  H
  Cu10     1.0000 0.59386  0.38210  0.98232  Biso   1.000  Cu
  O43      1.0000 0.67084  0.10730  0.10610  Biso   1.000  O
  O44      1.0000 0.73223  0.91220  0.17570  Biso   1.000  O
  O45      1.0000 0.69681  0.65350  0.02460  Biso   1.000  O
  N85      1.0000 0.61723  0.28890  0.00510  Biso   1.000  N
  N86      1.0000 0.81561  0.78010  0.21239  Biso   1.000  N
  N87      1.0000 0.61524  0.48420  0.99850  Biso   1.000  N
  N88      1.0000 0.66185  0.06810  0.04100  Biso   1.000  N
  H253     1.0000 0.66440  0.02180  0.02360  Biso   1.000  H
  N89      1.0000 0.75609  0.81840  0.12860  Biso   1.000  N
  H254     1.0000 0.75690  0.78340  0.10620  Biso   1.000  H
  N90      1.0000 0.65911  0.70490  0.04010  Biso   1.000  N
  H255     1.0000 0.65110  0.75050  0.05180  Biso   1.000  H
  C337     1.0000 0.62717  0.28590  0.04500  Biso   1.000  C
  H256     1.0000 0.62370  0.33410  0.06430  Biso   1.000  H
  C338     1.0000 0.64221  0.21260  0.05680  Biso   1.000  C
  H257     1.0000 0.64850  0.20760  0.08410  Biso   1.000  H
  C339     1.0000 0.64746  0.14520  0.02450  Biso   1.000  C
  C340     1.0000 0.63886  0.14120  0.97910  Biso   1.000  C
  H258     1.0000 0.64290  0.09750  0.95810  Biso   1.000  H
  C341     1.0000 0.62274  0.22220  0.97610  Biso   1.000  C
  H259     1.0000 0.61500  0.22900  0.95010  Biso   1.000  H
  C342     1.0000 0.67157  0.05850  0.07880  Biso   1.000  C
  C343     1.0000 0.81206  0.74880  0.17800  Biso   1.000  C
  H260     1.0000 0.82520  0.71300  0.16910  Biso   1.000  H
  C344     1.0000 0.79281  0.74940  0.14440  Biso   1.000  C
  H261     1.0000 0.79270  0.71510  0.11920  Biso   1.000  H
  C345     1.0000 0.77501  0.81260  0.15910  Biso   1.000  C
  C346     1.0000 0.77752  0.85990  0.19500  Biso   1.000  C
  H262     1.0000 0.76590  0.90480  0.20230  Biso   1.000  H
  C347     1.0000 0.79544  0.84640  0.22070  Biso   1.000  C
  H263     1.0000 0.79560  0.88060  0.24600  Biso   1.000  H
  C348     1.0000 0.73760  0.87500  0.13350  Biso   1.000  C
  C349     1.0000 0.60766  0.55750  0.02690  Biso   1.000  C
  H264     1.0000 0.59190  0.55470  0.03680  Biso   1.000  H
  C350     1.0000 0.62130  0.62980  0.04040  Biso   1.000  C
  H265     1.0000 0.61580  0.67740  0.05840  Biso   1.000  H
  C351     1.0000 0.64560  0.62610  0.02380  Biso   1.000  C
  C352     1.0000 0.65483  0.55630  0.99600  Biso   1.000  C
  H266     1.0000 0.67050  0.55780  0.98590  Biso   1.000  H
  C353     1.0000 0.63923  0.48800  0.98550  Biso   1.000  C
  H267     1.0000 0.64480  0.43900  0.96810  Biso   1.000  H
  C354     1.0000 0.68249  0.71360  0.03880  Biso   1.000  C
  C355     1.0000 0.68559  0.96260  0.07910  Biso   1.000  C
  C356     1.0000 0.70400  0.96190  0.10740  Biso   1.000  C
  H268     1.0000 0.70740  0.01200  0.12580  Biso   1.000  H
  C357     1.0000 0.71698  0.87900  0.10590  Biso   1.000  C
  C358     1.0000 0.71006  0.79710  0.08800  Biso   1.000  C
  H269     1.0000 0.71760  0.73990  0.09480  Biso   1.000  H
  C359     1.0000 0.69118  0.79990  0.05900  Biso   1.000  C
  C360     1.0000 0.67808  0.88510  0.05440  Biso   1.000  C
  H270     1.0000 0.66510  0.88980  0.03590  Biso   1.000  H
  O46      1.0000 0.92207  0.95780  0.11830  Biso   1.000  O
  O47      1.0000 0.99706  0.12160  0.09320  Biso   1.000  O
  O48      1.0000 0.98774  0.64580  0.03680  Biso   1.000  O
  N91      1.0000 0.86382  0.76680  0.20681  Biso   1.000  N
  N92      1.0000 0.06998  0.27990  0.02340  Biso   1.000  N
  N93      1.0000 0.06914  0.47780  0.03360  Biso   1.000  N
  N94      1.0000 0.92367  0.80530  0.12950  Biso   1.000  N
  H271     1.0000 0.93150  0.75370  0.12410  Biso   1.000  H
  N95      1.0000 0.02286  0.05690  0.04630  Biso   1.000  N
  H272     1.0000 0.02530  0.00870  0.02990  Biso   1.000  H
  N96      1.0000 0.02253  0.70000  0.06080  Biso   1.000  N
  H273     1.0000 0.02900  0.74840  0.07310  Biso   1.000  H
  C361     1.0000 0.86682  0.84170  0.18320  Biso   1.000  C
  H274     1.0000 0.85540  0.88960  0.18600  Biso   1.000  H
  C362     1.0000 0.88422  0.85790  0.15550  Biso   1.000  C
  H275     1.0000 0.88410  0.91190  0.13840  Biso   1.000  H
  C363     1.0000 0.90255  0.79250  0.15280  Biso   1.000  C
  C364     1.0000 0.90012  0.71430  0.17570  Biso   1.000  C
  H276     1.0000 0.91170  0.66690  0.17230  Biso   1.000  H
  C365     1.0000 0.88246  0.69770  0.20340  Biso   1.000  C
  H277     1.0000 0.88230  0.64280  0.21990  Biso   1.000  H
  C366     1.0000 0.93291  0.87850  0.11550  Biso   1.000  C
  C367     1.0000 0.06786  0.20940  0.00000  Biso   1.000  C
  H278     1.0000 0.07670  0.20760  0.97500  Biso   1.000  H
  C368     1.0000 0.05346  0.13600  0.00900  Biso   1.000  C
  H279     1.0000 0.05360  0.08340  0.99090  Biso   1.000  H
  C369     1.0000 0.03855  0.13470  0.04360  Biso   1.000  C
  C370     1.0000 0.03993  0.21170  0.07100  Biso   1.000  C
  H280     1.0000 0.03040  0.21660  0.09520  Biso   1.000  H
  C371     1.0000 0.05672  0.28180  0.05940  Biso   1.000  C
  H281     1.0000 0.05890  0.33300  0.07780  Biso   1.000  H
  C372     1.0000 0.00448  0.05390  0.07290  Biso   1.000  C
  C373     1.0000 0.07507  0.54630  0.05850  Biso   1.000  C
  H282     1.0000 0.09060  0.54580  0.06950  Biso   1.000  H
  C374     1.0000 0.06069  0.61850  0.06970  Biso   1.000  C
  H283     1.0000 0.06530  0.66310  0.09000  Biso   1.000  H
  C375     1.0000 0.03838  0.62320  0.04930  Biso   1.000  C
  C376     1.0000 0.03100  0.55450  0.02290  Biso   1.000  C
  H284     1.0000 0.01550  0.55380  0.01170  Biso   1.000  H
  C377     1.0000 0.04874  0.48030  0.01280  Biso   1.000  C
  H285     1.0000 0.04550  0.43550  0.99180  Biso   1.000  H
  C378     1.0000 0.99908  0.70360  0.05430  Biso   1.000  C
  C379     1.0000 0.95709  0.87910  0.09740  Biso   1.000  C
  C380     1.0000 0.96951  0.96160  0.09480  Biso   1.000  C
  H286     1.0000 0.96320  0.01690  0.10680  Biso   1.000  H
  C381     1.0000 0.99127  0.96450  0.07440  Biso   1.000  C
  C382     1.0000 0.00175  0.87930  0.06420  Biso   1.000  C
  H287     1.0000 0.01780  0.87840  0.05620  Biso   1.000  H
  C383     1.0000 0.98916  0.79480  0.06540  Biso   1.000  C
  C384     1.0000 0.96820  0.79170  0.08520  Biso   1.000  C
  H288     1.0000 0.96080  0.73370  0.09090  Biso   1.000  H
  Cu11     1.0000 0.33968  0.75000  0.75000  Biso   1.000  Cu
  Cu12     1.0000 0.83968  0.75000  0.25000  Biso   1.000  Cu
