data_image0
_cell_length_a       35.91
_cell_length_b       14.833
_cell_length_c       32.04
_cell_angle_alpha    90
_cell_angle_beta     102.977
_cell_angle_gamma    90

_symmetry_space_group_name_H-M    "P 1"
_symmetry_int_tables_number       1

loop_
  _symmetry_equiv_pos_as_xyz
  'x, y, z'

loop_
  _atom_site_label
  _atom_site_occupancy
  _atom_site_fract_x
  _atom_site_fract_y
  _atom_site_fract_z
  _atom_site_thermal_displace_type
  _atom_site_B_iso_or_equiv
  _atom_site_type_symbol
  I1       1.0000 0.39548  0.76237  0.90472  Biso   1.000  I
  I2       1.0000 0.72475  0.23084  0.78916  Biso   1.000  I
  I3       1.0000 0.61928  0.15515  0.69325  Biso   1.000  I
  I4       1.0000 0.35655  0.91676  0.01091  Biso   1.000  I
  I5       1.0000 0.62482  0.74269  0.04369  Biso   1.000  I
  I6       1.0000 0.53243  0.65371  0.11554  Biso   1.000  I
  Zn1      1.0000 0.66465  0.13170  0.76684  Biso   1.000  Zn
  Zn2      1.0000 0.37553  0.90645  0.93862  Biso   1.000  Zn
  Zn3      1.0000 0.59000  0.62888  0.08142  Biso   1.000  Zn
  C1       1.0000 0.64300  0.21190  0.84470  Biso   1.000  C
  H1       1.0000 0.66460  0.24890  0.84470  Biso   1.000  H
  C2       1.0000 0.62270  0.22930  0.87440  Biso   1.000  C
  H2       1.0000 0.62960  0.27820  0.89380  Biso   1.000  H
  C3       1.0000 0.59200  0.17640  0.87650  Biso   1.000  C
  C4       1.0000 0.56830  0.19550  0.90880  Biso   1.000  C
  C5       1.0000 0.53660  0.39220  0.01290  Biso   1.000  C
  H3       1.0000 0.51380  0.35910  0.01190  Biso   1.000  H
  C6       1.0000 0.56340  0.36240  0.98990  Biso   1.000  C
  C7       1.0000 0.54400  0.47110  0.03700  Biso   1.000  C
  H4       1.0000 0.52570  0.49150  0.05230  Biso   1.000  H
  C8       1.0000 0.59670  0.41270  0.99190  Biso   1.000  C
  H5       1.0000 0.61540  0.39500  0.97670  Biso   1.000  H
  C9       1.0000 0.52040  0.15500  0.94080  Biso   1.000  C
  C10      1.0000 0.60130  0.49070  0.01760  Biso   1.000  C
  H6       1.0000 0.62390  0.52520  0.01940  Biso   1.000  H
  C11      1.0000 0.55610  0.27820  0.96300  Biso   1.000  C
  C12      1.0000 0.48580  0.09860  0.94210  Biso   1.000  C
  C13      1.0000 0.60540  0.09270  0.81700  Biso   1.000  C
  H7       1.0000 0.59940  0.04400  0.79740  Biso   1.000  H
  C14      1.0000 0.58280  0.10620  0.84730  Biso   1.000  C
  H8       1.0000 0.56160  0.06810  0.84770  Biso   1.000  H
  C15      1.0000 0.69574  0.58050  0.73800  Biso   1.000  C
  C16      1.0000 0.82350  0.55210  0.89560  Biso   1.000  C
  H9       1.0000 0.83810  0.58560  0.91890  Biso   1.000  H
  C17      1.0000 0.81160  0.41870  0.85870  Biso   1.000  C
  H10      1.0000 0.81710  0.35660  0.85610  Biso   1.000  H
  C18      1.0000 0.67380  0.52750  0.70090  Biso   1.000  C
  C19      1.0000 0.65660  0.39190  0.65960  Biso   1.000  C
  H11      1.0000 0.66060  0.32930  0.65590  Biso   1.000  H
  C20      1.0000 0.65550  0.93640  0.74680  Biso   1.000  C
  H12      1.0000 0.63290  0.95820  0.72820  Biso   1.000  H
  C21      1.0000 0.78270  0.45780  0.82780  Biso   1.000  C
  H13      1.0000 0.76940  0.42350  0.80400  Biso   1.000  H
  C22      1.0000 0.77345  0.54740  0.83210  Biso   1.000  C
  C23      1.0000 0.70566  0.71390  0.77360  Biso   1.000  C
  C24      1.0000 0.74259  0.59090  0.79940  Biso   1.000  C
  C25      1.0000 0.69630  0.81100  0.77460  Biso   1.000  C
  C26      1.0000 0.72020  0.87250  0.80160  Biso   1.000  C
  H14      1.0000 0.74250  0.85210  0.82130  Biso   1.000  H
  C27      1.0000 0.71070  0.96270  0.79910  Biso   1.000  C
  H15      1.0000 0.72720  0.00380  0.81720  Biso   1.000  H
  C28      1.0000 0.64610  0.57200  0.66940  Biso   1.000  C
  H16      1.0000 0.64190  0.63480  0.67170  Biso   1.000  H
  C29      1.0000 0.79480  0.59610  0.86690  Biso   1.000  C
  H17      1.0000 0.78960  0.65800  0.87070  Biso   1.000  H
  C30      1.0000 0.62520  0.52350  0.63550  Biso   1.000  C
  H18      1.0000 0.60660  0.55450  0.61460  Biso   1.000  H
  C31      1.0000 0.67880  0.43570  0.69530  Biso   1.000  C
  H19      1.0000 0.69720  0.40290  0.71550  Biso   1.000  H
  C32      1.0000 0.66330  0.84390  0.74710  Biso   1.000  C
  H20      1.0000 0.64640  0.80400  0.72890  Biso   1.000  H
  C33      1.0000 0.43620  0.00020  0.90590  Biso   1.000  C
  H21      1.0000 0.42390  0.96850  0.88080  Biso   1.000  H
  C34      1.0000 0.43800  0.04120  0.97590  Biso   1.000  C
  H22      1.0000 0.42750  0.03780  0.00050  Biso   1.000  H
  C35      1.0000 0.46980  0.09500  0.97730  Biso   1.000  C
  H23      1.0000 0.48050  0.12900  0.00230  Biso   1.000  H
  C36      1.0000 0.46810  0.05060  0.90430  Biso   1.000  C
  H24      1.0000 0.47790  0.05310  0.87910  Biso   1.000  H
  N1       1.0000 0.42138  0.99330  0.94060  Biso   1.000  N
  N2       1.0000 0.53944  0.13710  0.90990  Biso   1.000  N
  N3       1.0000 0.57724  0.26870  0.93330  Biso   1.000  N
  N4       1.0000 0.52820  0.22220  0.97050  Biso   1.000  N
  N5       1.0000 0.63520  0.14640  0.81500  Biso   1.000  N
  N6       1.0000 0.57634  0.51930  0.03930  Biso   1.000  N
  N7       1.0000 0.62982  0.43460  0.63040  Biso   1.000  N
  N8       1.0000 0.68476  0.66670  0.74050  Biso   1.000  N
  N9       1.0000 0.72405  0.53950  0.76610  Biso   1.000  N
  N10      1.0000 0.73445  0.67960  0.80470  Biso   1.000  N
  N11      1.0000 0.83204  0.46470  0.89220  Biso   1.000  N
  N12      1.0000 0.67893  0.99610  0.77200  Biso   1.000  N
  I7       1.0000 0.89548  0.26237  0.90472  Biso   1.000  I
  I8       1.0000 0.22475  0.73084  0.78916  Biso   1.000  I
  I9       1.0000 0.11928  0.65515  0.69325  Biso   1.000  I
  I10      1.0000 0.85655  0.41676  0.01091  Biso   1.000  I
  I11      1.0000 0.12482  0.24269  0.04369  Biso   1.000  I
  I12      1.0000 0.03243  0.15371  0.11554  Biso   1.000  I
  Zn4      1.0000 0.16465  0.63170  0.76684  Biso   1.000  Zn
  Zn5      1.0000 0.87553  0.40645  0.93862  Biso   1.000  Zn
  Zn6      1.0000 0.09000  0.12888  0.08142  Biso   1.000  Zn
  C37      1.0000 0.14300  0.71190  0.84470  Biso   1.000  C
  H25      1.0000 0.16460  0.74890  0.84470  Biso   1.000  H
  C38      1.0000 0.12270  0.72930  0.87440  Biso   1.000  C
  H26      1.0000 0.12960  0.77820  0.89380  Biso   1.000  H
  C39      1.0000 0.09200  0.67640  0.87650  Biso   1.000  C
  C40      1.0000 0.06830  0.69550  0.90880  Biso   1.000  C
  C41      1.0000 0.03660  0.89220  0.01290  Biso   1.000  C
  H27      1.0000 0.01380  0.85910  0.01190  Biso   1.000  H
  C42      1.0000 0.06340  0.86240  0.98990  Biso   1.000  C
  C43      1.0000 0.04400  0.97110  0.03700  Biso   1.000  C
  H28      1.0000 0.02570  0.99150  0.05230  Biso   1.000  H
  C44      1.0000 0.09670  0.91270  0.99190  Biso   1.000  C
  H29      1.0000 0.11540  0.89500  0.97670  Biso   1.000  H
  C45      1.0000 0.02040  0.65500  0.94080  Biso   1.000  C
  C46      1.0000 0.10130  0.99070  0.01760  Biso   1.000  C
  H30      1.0000 0.12390  0.02520  0.01940  Biso   1.000  H
  C47      1.0000 0.05610  0.77820  0.96300  Biso   1.000  C
  C48      1.0000 0.98580  0.59860  0.94210  Biso   1.000  C
  C49      1.0000 0.10540  0.59270  0.81700  Biso   1.000  C
  H31      1.0000 0.09940  0.54400  0.79740  Biso   1.000  H
  C50      1.0000 0.08280  0.60620  0.84730  Biso   1.000  C
  H32      1.0000 0.06160  0.56810  0.84770  Biso   1.000  H
  C51      1.0000 0.19574  0.08050  0.73800  Biso   1.000  C
  C52      1.0000 0.32350  0.05210  0.89560  Biso   1.000  C
  H33      1.0000 0.33810  0.08560  0.91890  Biso   1.000  H
  C53      1.0000 0.31160  0.91870  0.85870  Biso   1.000  C
  H34      1.0000 0.31710  0.85660  0.85610  Biso   1.000  H
  C54      1.0000 0.17380  0.02750  0.70090  Biso   1.000  C
  C55      1.0000 0.15660  0.89190  0.65960  Biso   1.000  C
  H35      1.0000 0.16060  0.82930  0.65590  Biso   1.000  H
  C56      1.0000 0.15550  0.43640  0.74680  Biso   1.000  C
  H36      1.0000 0.13290  0.45820  0.72820  Biso   1.000  H
  C57      1.0000 0.28270  0.95780  0.82780  Biso   1.000  C
  H37      1.0000 0.26940  0.92350  0.80400  Biso   1.000  H
  C58      1.0000 0.27345  0.04740  0.83210  Biso   1.000  C
  C59      1.0000 0.20566  0.21390  0.77360  Biso   1.000  C
  C60      1.0000 0.24259  0.09090  0.79940  Biso   1.000  C
  C61      1.0000 0.19630  0.31100  0.77460  Biso   1.000  C
  C62      1.0000 0.22020  0.37250  0.80160  Biso   1.000  C
  H38      1.0000 0.24250  0.35210  0.82130  Biso   1.000  H
  C63      1.0000 0.21070  0.46270  0.79910  Biso   1.000  C
  H39      1.0000 0.22720  0.50380  0.81720  Biso   1.000  H
  C64      1.0000 0.14610  0.07200  0.66940  Biso   1.000  C
  H40      1.0000 0.14190  0.13480  0.67170  Biso   1.000  H
  C65      1.0000 0.29480  0.09610  0.86690  Biso   1.000  C
  H41      1.0000 0.28960  0.15800  0.87070  Biso   1.000  H
  C66      1.0000 0.12520  0.02350  0.63550  Biso   1.000  C
  H42      1.0000 0.10660  0.05450  0.61460  Biso   1.000  H
  C67      1.0000 0.17880  0.93570  0.69530  Biso   1.000  C
  H43      1.0000 0.19720  0.90290  0.71550  Biso   1.000  H
  C68      1.0000 0.16330  0.34390  0.74710  Biso   1.000  C
  H44      1.0000 0.14640  0.30400  0.72890  Biso   1.000  H
  C69      1.0000 0.93620  0.50020  0.90590  Biso   1.000  C
  H45      1.0000 0.92390  0.46850  0.88080  Biso   1.000  H
  C70      1.0000 0.93800  0.54120  0.97590  Biso   1.000  C
  H46      1.0000 0.92750  0.53780  0.00050  Biso   1.000  H
  C71      1.0000 0.96980  0.59500  0.97730  Biso   1.000  C
  H47      1.0000 0.98050  0.62900  0.00230  Biso   1.000  H
  C72      1.0000 0.96810  0.55060  0.90430  Biso   1.000  C
  H48      1.0000 0.97790  0.55310  0.87910  Biso   1.000  H
  N13      1.0000 0.92138  0.49330  0.94060  Biso   1.000  N
  N14      1.0000 0.03944  0.63710  0.90990  Biso   1.000  N
  N15      1.0000 0.07724  0.76870  0.93330  Biso   1.000  N
  N16      1.0000 0.02820  0.72220  0.97050  Biso   1.000  N
  N17      1.0000 0.13520  0.64640  0.81500  Biso   1.000  N
  N18      1.0000 0.07634  0.01930  0.03930  Biso   1.000  N
  N19      1.0000 0.12982  0.93460  0.63040  Biso   1.000  N
  N20      1.0000 0.18476  0.16670  0.74050  Biso   1.000  N
  N21      1.0000 0.22405  0.03950  0.76610  Biso   1.000  N
  N22      1.0000 0.23445  0.17960  0.80470  Biso   1.000  N
  N23      1.0000 0.33204  0.96470  0.89220  Biso   1.000  N
  N24      1.0000 0.17893  0.49610  0.77200  Biso   1.000  N
  I13      1.0000 0.39548  0.23763  0.40472  Biso   1.000  I
  I14      1.0000 0.72475  0.76916  0.28916  Biso   1.000  I
  I15      1.0000 0.61928  0.84485  0.19325  Biso   1.000  I
  I16      1.0000 0.35655  0.08324  0.51091  Biso   1.000  I
  I17      1.0000 0.62482  0.25731  0.54369  Biso   1.000  I
  I18      1.0000 0.53243  0.34629  0.61554  Biso   1.000  I
  Zn7      1.0000 0.66465  0.86830  0.26684  Biso   1.000  Zn
  Zn8      1.0000 0.37553  0.09355  0.43862  Biso   1.000  Zn
  Zn9      1.0000 0.59000  0.37112  0.58142  Biso   1.000  Zn
  C73      1.0000 0.64300  0.78810  0.34470  Biso   1.000  C
  H49      1.0000 0.66460  0.75110  0.34470  Biso   1.000  H
  C74      1.0000 0.62270  0.77070  0.37440  Biso   1.000  C
  H50      1.0000 0.62960  0.72180  0.39380  Biso   1.000  H
  C75      1.0000 0.59200  0.82360  0.37650  Biso   1.000  C
  C76      1.0000 0.56830  0.80450  0.40880  Biso   1.000  C
  C77      1.0000 0.53660  0.60780  0.51290  Biso   1.000  C
  H51      1.0000 0.51380  0.64090  0.51190  Biso   1.000  H
  C78      1.0000 0.56340  0.63760  0.48990  Biso   1.000  C
  C79      1.0000 0.54400  0.52890  0.53700  Biso   1.000  C
  H52      1.0000 0.52570  0.50850  0.55230  Biso   1.000  H
  C80      1.0000 0.59670  0.58730  0.49190  Biso   1.000  C
  H53      1.0000 0.61540  0.60500  0.47670  Biso   1.000  H
  C81      1.0000 0.52040  0.84500  0.44080  Biso   1.000  C
  C82      1.0000 0.60130  0.50930  0.51760  Biso   1.000  C
  H54      1.0000 0.62390  0.47480  0.51940  Biso   1.000  H
  C83      1.0000 0.55610  0.72180  0.46300  Biso   1.000  C
  C84      1.0000 0.48580  0.90140  0.44210  Biso   1.000  C
  C85      1.0000 0.60540  0.90730  0.31700  Biso   1.000  C
  H55      1.0000 0.59940  0.95600  0.29740  Biso   1.000  H
  C86      1.0000 0.58280  0.89380  0.34730  Biso   1.000  C
  H56      1.0000 0.56160  0.93190  0.34770  Biso   1.000  H
  C87      1.0000 0.69574  0.41950  0.23800  Biso   1.000  C
  C88      1.0000 0.82350  0.44790  0.39560  Biso   1.000  C
  H57      1.0000 0.83810  0.41440  0.41890  Biso   1.000  H
  C89      1.0000 0.81160  0.58130  0.35870  Biso   1.000  C
  H58      1.0000 0.81710  0.64340  0.35610  Biso   1.000  H
  C90      1.0000 0.67380  0.47250  0.20090  Biso   1.000  C
  C91      1.0000 0.65660  0.60810  0.15960  Biso   1.000  C
  H59      1.0000 0.66060  0.67070  0.15590  Biso   1.000  H
  C92      1.0000 0.65550  0.06360  0.24680  Biso   1.000  C
  H60      1.0000 0.63290  0.04180  0.22820  Biso   1.000  H
  C93      1.0000 0.78270  0.54220  0.32780  Biso   1.000  C
  H61      1.0000 0.76940  0.57650  0.30400  Biso   1.000  H
  C94      1.0000 0.77345  0.45260  0.33210  Biso   1.000  C
  C95      1.0000 0.70566  0.28610  0.27360  Biso   1.000  C
  C96      1.0000 0.74259  0.40910  0.29940  Biso   1.000  C
  C97      1.0000 0.69630  0.18900  0.27460  Biso   1.000  C
  C98      1.0000 0.72020  0.12750  0.30160  Biso   1.000  C
  H62      1.0000 0.74250  0.14790  0.32130  Biso   1.000  H
  C99      1.0000 0.71070  0.03730  0.29910  Biso   1.000  C
  H63      1.0000 0.72720  0.99620  0.31720  Biso   1.000  H
  C100     1.0000 0.64610  0.42800  0.16940  Biso   1.000  C
  H64      1.0000 0.64190  0.36520  0.17170  Biso   1.000  H
  C101     1.0000 0.79480  0.40390  0.36690  Biso   1.000  C
  H65      1.0000 0.78960  0.34200  0.37070  Biso   1.000  H
  C102     1.0000 0.62520  0.47650  0.13550  Biso   1.000  C
  H66      1.0000 0.60660  0.44550  0.11460  Biso   1.000  H
  C103     1.0000 0.67880  0.56430  0.19530  Biso   1.000  C
  H67      1.0000 0.69720  0.59710  0.21550  Biso   1.000  H
  C104     1.0000 0.66330  0.15610  0.24710  Biso   1.000  C
  H68      1.0000 0.64640  0.19600  0.22890  Biso   1.000  H
  C105     1.0000 0.43620  0.99980  0.40590  Biso   1.000  C
  H69      1.0000 0.42390  0.03150  0.38080  Biso   1.000  H
  C106     1.0000 0.43800  0.95880  0.47590  Biso   1.000  C
  H70      1.0000 0.42750  0.96220  0.50050  Biso   1.000  H
  C107     1.0000 0.46980  0.90500  0.47730  Biso   1.000  C
  H71      1.0000 0.48050  0.87100  0.50230  Biso   1.000  H
  C108     1.0000 0.46810  0.94940  0.40430  Biso   1.000  C
  H72      1.0000 0.47790  0.94690  0.37910  Biso   1.000  H
  N25      1.0000 0.42138  0.00670  0.44060  Biso   1.000  N
  N26      1.0000 0.53944  0.86290  0.40990  Biso   1.000  N
  N27      1.0000 0.57724  0.73130  0.43330  Biso   1.000  N
  N28      1.0000 0.52820  0.77780  0.47050  Biso   1.000  N
  N29      1.0000 0.63520  0.85360  0.31500  Biso   1.000  N
  N30      1.0000 0.57634  0.48070  0.53930  Biso   1.000  N
  N31      1.0000 0.62982  0.56540  0.13040  Biso   1.000  N
  N32      1.0000 0.68476  0.33330  0.24050  Biso   1.000  N
  N33      1.0000 0.72405  0.46050  0.26610  Biso   1.000  N
  N34      1.0000 0.73445  0.32040  0.30470  Biso   1.000  N
  N35      1.0000 0.83204  0.53530  0.39220  Biso   1.000  N
  N36      1.0000 0.67893  0.00390  0.27200  Biso   1.000  N
  I19      1.0000 0.89548  0.73763  0.40472  Biso   1.000  I
  I20      1.0000 0.22475  0.26916  0.28916  Biso   1.000  I
  I21      1.0000 0.11928  0.34485  0.19325  Biso   1.000  I
  I22      1.0000 0.85655  0.58324  0.51091  Biso   1.000  I
  I23      1.0000 0.12482  0.75731  0.54369  Biso   1.000  I
  I24      1.0000 0.03243  0.84629  0.61554  Biso   1.000  I
  Zn10     1.0000 0.16465  0.36830  0.26684  Biso   1.000  Zn
  Zn11     1.0000 0.87553  0.59355  0.43862  Biso   1.000  Zn
  Zn12     1.0000 0.09000  0.87112  0.58142  Biso   1.000  Zn
  C109     1.0000 0.14300  0.28810  0.34470  Biso   1.000  C
  H73      1.0000 0.16460  0.25110  0.34470  Biso   1.000  H
  C110     1.0000 0.12270  0.27070  0.37440  Biso   1.000  C
  H74      1.0000 0.12960  0.22180  0.39380  Biso   1.000  H
  C111     1.0000 0.09200  0.32360  0.37650  Biso   1.000  C
  C112     1.0000 0.06830  0.30450  0.40880  Biso   1.000  C
  C113     1.0000 0.03660  0.10780  0.51290  Biso   1.000  C
  H75      1.0000 0.01380  0.14090  0.51190  Biso   1.000  H
  C114     1.0000 0.06340  0.13760  0.48990  Biso   1.000  C
  C115     1.0000 0.04400  0.02890  0.53700  Biso   1.000  C
  H76      1.0000 0.02570  0.00850  0.55230  Biso   1.000  H
  C116     1.0000 0.09670  0.08730  0.49190  Biso   1.000  C
  H77      1.0000 0.11540  0.10500  0.47670  Biso   1.000  H
  C117     1.0000 0.02040  0.34500  0.44080  Biso   1.000  C
  C118     1.0000 0.10130  0.00930  0.51760  Biso   1.000  C
  H78      1.0000 0.12390  0.97480  0.51940  Biso   1.000  H
  C119     1.0000 0.05610  0.22180  0.46300  Biso   1.000  C
  C120     1.0000 0.98580  0.40140  0.44210  Biso   1.000  C
  C121     1.0000 0.10540  0.40730  0.31700  Biso   1.000  C
  H79      1.0000 0.09940  0.45600  0.29740  Biso   1.000  H
  C122     1.0000 0.08280  0.39380  0.34730  Biso   1.000  C
  H80      1.0000 0.06160  0.43190  0.34770  Biso   1.000  H
  C123     1.0000 0.19574  0.91950  0.23800  Biso   1.000  C
  C124     1.0000 0.32350  0.94790  0.39560  Biso   1.000  C
  H81      1.0000 0.33810  0.91440  0.41890  Biso   1.000  H
  C125     1.0000 0.31160  0.08130  0.35870  Biso   1.000  C
  H82      1.0000 0.31710  0.14340  0.35610  Biso   1.000  H
  C126     1.0000 0.17380  0.97250  0.20090  Biso   1.000  C
  C127     1.0000 0.15660  0.10810  0.15960  Biso   1.000  C
  H83      1.0000 0.16060  0.17070  0.15590  Biso   1.000  H
  C128     1.0000 0.15550  0.56360  0.24680  Biso   1.000  C
  H84      1.0000 0.13290  0.54180  0.22820  Biso   1.000  H
  C129     1.0000 0.28270  0.04220  0.32780  Biso   1.000  C
  H85      1.0000 0.26940  0.07650  0.30400  Biso   1.000  H
  C130     1.0000 0.27345  0.95260  0.33210  Biso   1.000  C
  C131     1.0000 0.20566  0.78610  0.27360  Biso   1.000  C
  C132     1.0000 0.24259  0.90910  0.29940  Biso   1.000  C
  C133     1.0000 0.19630  0.68900  0.27460  Biso   1.000  C
  C134     1.0000 0.22020  0.62750  0.30160  Biso   1.000  C
  H86      1.0000 0.24250  0.64790  0.32130  Biso   1.000  H
  C135     1.0000 0.21070  0.53730  0.29910  Biso   1.000  C
  H87      1.0000 0.22720  0.49620  0.31720  Biso   1.000  H
  C136     1.0000 0.14610  0.92800  0.16940  Biso   1.000  C
  H88      1.0000 0.14190  0.86520  0.17170  Biso   1.000  H
  C137     1.0000 0.29480  0.90390  0.36690  Biso   1.000  C
  H89      1.0000 0.28960  0.84200  0.37070  Biso   1.000  H
  C138     1.0000 0.12520  0.97650  0.13550  Biso   1.000  C
  H90      1.0000 0.10660  0.94550  0.11460  Biso   1.000  H
  C139     1.0000 0.17880  0.06430  0.19530  Biso   1.000  C
  H91      1.0000 0.19720  0.09710  0.21550  Biso   1.000  H
  C140     1.0000 0.16330  0.65610  0.24710  Biso   1.000  C
  H92      1.0000 0.14640  0.69600  0.22890  Biso   1.000  H
  C141     1.0000 0.93620  0.49980  0.40590  Biso   1.000  C
  H93      1.0000 0.92390  0.53150  0.38080  Biso   1.000  H
  C142     1.0000 0.93800  0.45880  0.47590  Biso   1.000  C
  H94      1.0000 0.92750  0.46220  0.50050  Biso   1.000  H
  C143     1.0000 0.96980  0.40500  0.47730  Biso   1.000  C
  H95      1.0000 0.98050  0.37100  0.50230  Biso   1.000  H
  C144     1.0000 0.96810  0.44940  0.40430  Biso   1.000  C
  H96      1.0000 0.97790  0.44690  0.37910  Biso   1.000  H
  N37      1.0000 0.92138  0.50670  0.44060  Biso   1.000  N
  N38      1.0000 0.03944  0.36290  0.40990  Biso   1.000  N
  N39      1.0000 0.07724  0.23130  0.43330  Biso   1.000  N
  N40      1.0000 0.02820  0.27780  0.47050  Biso   1.000  N
  N41      1.0000 0.13520  0.35360  0.31500  Biso   1.000  N
  N42      1.0000 0.07634  0.98070  0.53930  Biso   1.000  N
  N43      1.0000 0.12982  0.06540  0.13040  Biso   1.000  N
  N44      1.0000 0.18476  0.83330  0.24050  Biso   1.000  N
  N45      1.0000 0.22405  0.96050  0.26610  Biso   1.000  N
  N46      1.0000 0.23445  0.82040  0.30470  Biso   1.000  N
  N47      1.0000 0.33204  0.03530  0.39220  Biso   1.000  N
  N48      1.0000 0.17893  0.50390  0.27200  Biso   1.000  N
  I25      1.0000 0.60452  0.76237  0.59528  Biso   1.000  I
  I26      1.0000 0.27525  0.23084  0.71084  Biso   1.000  I
  I27      1.0000 0.38072  0.15515  0.80675  Biso   1.000  I
  I28      1.0000 0.64345  0.91676  0.48909  Biso   1.000  I
  I29      1.0000 0.37518  0.74269  0.45631  Biso   1.000  I
  I30      1.0000 0.46757  0.65371  0.38446  Biso   1.000  I
  Zn13     1.0000 0.33535  0.13170  0.73316  Biso   1.000  Zn
  Zn14     1.0000 0.62447  0.90645  0.56138  Biso   1.000  Zn
  Zn15     1.0000 0.41000  0.62888  0.41858  Biso   1.000  Zn
  C145     1.0000 0.35700  0.21190  0.65530  Biso   1.000  C
  H97      1.0000 0.33540  0.24890  0.65530  Biso   1.000  H
  C146     1.0000 0.37730  0.22930  0.62560  Biso   1.000  C
  H98      1.0000 0.37040  0.27820  0.60620  Biso   1.000  H
  C147     1.0000 0.40800  0.17640  0.62350  Biso   1.000  C
  C148     1.0000 0.43170  0.19550  0.59120  Biso   1.000  C
  C149     1.0000 0.46340  0.39220  0.48710  Biso   1.000  C
  H99      1.0000 0.48620  0.35910  0.48810  Biso   1.000  H
  C150     1.0000 0.43660  0.36240  0.51010  Biso   1.000  C
  C151     1.0000 0.45600  0.47110  0.46300  Biso   1.000  C
  H100     1.0000 0.47430  0.49150  0.44770  Biso   1.000  H
  C152     1.0000 0.40330  0.41270  0.50810  Biso   1.000  C
  H101     1.0000 0.38460  0.39500  0.52330  Biso   1.000  H
  C153     1.0000 0.47960  0.15500  0.55920  Biso   1.000  C
  C154     1.0000 0.39870  0.49070  0.48240  Biso   1.000  C
  H102     1.0000 0.37610  0.52520  0.48060  Biso   1.000  H
  C155     1.0000 0.44390  0.27820  0.53700  Biso   1.000  C
  C156     1.0000 0.51420  0.09860  0.55790  Biso   1.000  C
  C157     1.0000 0.39460  0.09270  0.68300  Biso   1.000  C
  H103     1.0000 0.40060  0.04400  0.70260  Biso   1.000  H
  C158     1.0000 0.41720  0.10620  0.65270  Biso   1.000  C
  H104     1.0000 0.43840  0.06810  0.65230  Biso   1.000  H
  C159     1.0000 0.30426  0.58050  0.76200  Biso   1.000  C
  C160     1.0000 0.17650  0.55210  0.60440  Biso   1.000  C
  H105     1.0000 0.16190  0.58560  0.58110  Biso   1.000  H
  C161     1.0000 0.18840  0.41870  0.64130  Biso   1.000  C
  H106     1.0000 0.18290  0.35660  0.64390  Biso   1.000  H
  C162     1.0000 0.32620  0.52750  0.79910  Biso   1.000  C
  C163     1.0000 0.34340  0.39190  0.84040  Biso   1.000  C
  H107     1.0000 0.33940  0.32930  0.84410  Biso   1.000  H
  C164     1.0000 0.34450  0.93640  0.75320  Biso   1.000  C
  H108     1.0000 0.36710  0.95820  0.77180  Biso   1.000  H
  C165     1.0000 0.21730  0.45780  0.67220  Biso   1.000  C
  H109     1.0000 0.23060  0.42350  0.69600  Biso   1.000  H
  C166     1.0000 0.22655  0.54740  0.66790  Biso   1.000  C
  C167     1.0000 0.29434  0.71390  0.72640  Biso   1.000  C
  C168     1.0000 0.25741  0.59090  0.70060  Biso   1.000  C
  C169     1.0000 0.30370  0.81100  0.72540  Biso   1.000  C
  C170     1.0000 0.27980  0.87250  0.69840  Biso   1.000  C
  H110     1.0000 0.25750  0.85210  0.67870  Biso   1.000  H
  C171     1.0000 0.28930  0.96270  0.70090  Biso   1.000  C
  H111     1.0000 0.27280  0.00380  0.68280  Biso   1.000  H
  C172     1.0000 0.35390  0.57200  0.83060  Biso   1.000  C
  H112     1.0000 0.35810  0.63480  0.82830  Biso   1.000  H
  C173     1.0000 0.20520  0.59610  0.63310  Biso   1.000  C
  H113     1.0000 0.21040  0.65800  0.62930  Biso   1.000  H
  C174     1.0000 0.37480  0.52350  0.86450  Biso   1.000  C
  H114     1.0000 0.39340  0.55450  0.88540  Biso   1.000  H
  C175     1.0000 0.32120  0.43570  0.80470  Biso   1.000  C
  H115     1.0000 0.30280  0.40290  0.78450  Biso   1.000  H
  C176     1.0000 0.33670  0.84390  0.75290  Biso   1.000  C
  H116     1.0000 0.35360  0.80400  0.77110  Biso   1.000  H
  C177     1.0000 0.56380  0.00020  0.59410  Biso   1.000  C
  H117     1.0000 0.57610  0.96850  0.61920  Biso   1.000  H
  C178     1.0000 0.56200  0.04120  0.52410  Biso   1.000  C
  H118     1.0000 0.57250  0.03780  0.49950  Biso   1.000  H
  C179     1.0000 0.53020  0.09500  0.52270  Biso   1.000  C
  H119     1.0000 0.51950  0.12900  0.49770  Biso   1.000  H
  C180     1.0000 0.53190  0.05060  0.59570  Biso   1.000  C
  H120     1.0000 0.52210  0.05310  0.62090  Biso   1.000  H
  N49      1.0000 0.57862  0.99330  0.55940  Biso   1.000  N
  N50      1.0000 0.46056  0.13710  0.59010  Biso   1.000  N
  N51      1.0000 0.42276  0.26870  0.56670  Biso   1.000  N
  N52      1.0000 0.47180  0.22220  0.52950  Biso   1.000  N
  N53      1.0000 0.36480  0.14640  0.68500  Biso   1.000  N
  N54      1.0000 0.42366  0.51930  0.46070  Biso   1.000  N
  N55      1.0000 0.37018  0.43460  0.86960  Biso   1.000  N
  N56      1.0000 0.31524  0.66670  0.75950  Biso   1.000  N
  N57      1.0000 0.27595  0.53950  0.73390  Biso   1.000  N
  N58      1.0000 0.26555  0.67960  0.69530  Biso   1.000  N
  N59      1.0000 0.16796  0.46470  0.60780  Biso   1.000  N
  N60      1.0000 0.32107  0.99610  0.72800  Biso   1.000  N
  I31      1.0000 0.10452  0.26237  0.59528  Biso   1.000  I
  I32      1.0000 0.77525  0.73084  0.71084  Biso   1.000  I
  I33      1.0000 0.88072  0.65515  0.80675  Biso   1.000  I
  I34      1.0000 0.14345  0.41676  0.48909  Biso   1.000  I
  I35      1.0000 0.87518  0.24269  0.45631  Biso   1.000  I
  I36      1.0000 0.96757  0.15371  0.38446  Biso   1.000  I
  Zn16     1.0000 0.83535  0.63170  0.73316  Biso   1.000  Zn
  Zn17     1.0000 0.12447  0.40645  0.56138  Biso   1.000  Zn
  Zn18     1.0000 0.91000  0.12888  0.41858  Biso   1.000  Zn
  C181     1.0000 0.85700  0.71190  0.65530  Biso   1.000  C
  H121     1.0000 0.83540  0.74890  0.65530  Biso   1.000  H
  C182     1.0000 0.87730  0.72930  0.62560  Biso   1.000  C
  H122     1.0000 0.87040  0.77820  0.60620  Biso   1.000  H
  C183     1.0000 0.90800  0.67640  0.62350  Biso   1.000  C
  C184     1.0000 0.93170  0.69550  0.59120  Biso   1.000  C
  C185     1.0000 0.96340  0.89220  0.48710  Biso   1.000  C
  H123     1.0000 0.98620  0.85910  0.48810  Biso   1.000  H
  C186     1.0000 0.93660  0.86240  0.51010  Biso   1.000  C
  C187     1.0000 0.95600  0.97110  0.46300  Biso   1.000  C
  H124     1.0000 0.97430  0.99150  0.44770  Biso   1.000  H
  C188     1.0000 0.90330  0.91270  0.50810  Biso   1.000  C
  H125     1.0000 0.88460  0.89500  0.52330  Biso   1.000  H
  C189     1.0000 0.97960  0.65500  0.55920  Biso   1.000  C
  C190     1.0000 0.89870  0.99070  0.48240  Biso   1.000  C
  H126     1.0000 0.87610  0.02520  0.48060  Biso   1.000  H
  C191     1.0000 0.94390  0.77820  0.53700  Biso   1.000  C
  C192     1.0000 0.01420  0.59860  0.55790  Biso   1.000  C
  C193     1.0000 0.89460  0.59270  0.68300  Biso   1.000  C
  H127     1.0000 0.90060  0.54400  0.70260  Biso   1.000  H
  C194     1.0000 0.91720  0.60620  0.65270  Biso   1.000  C
  H128     1.0000 0.93840  0.56810  0.65230  Biso   1.000  H
  C195     1.0000 0.80426  0.08050  0.76200  Biso   1.000  C
  C196     1.0000 0.67650  0.05210  0.60440  Biso   1.000  C
  H129     1.0000 0.66190  0.08560  0.58110  Biso   1.000  H
  C197     1.0000 0.68840  0.91870  0.64130  Biso   1.000  C
  H130     1.0000 0.68290  0.85660  0.64390  Biso   1.000  H
  C198     1.0000 0.82620  0.02750  0.79910  Biso   1.000  C
  C199     1.0000 0.84340  0.89190  0.84040  Biso   1.000  C
  H131     1.0000 0.83940  0.82930  0.84410  Biso   1.000  H
  C200     1.0000 0.84450  0.43640  0.75320  Biso   1.000  C
  H132     1.0000 0.86710  0.45820  0.77180  Biso   1.000  H
  C201     1.0000 0.71730  0.95780  0.67220  Biso   1.000  C
  H133     1.0000 0.73060  0.92350  0.69600  Biso   1.000  H
  C202     1.0000 0.72655  0.04740  0.66790  Biso   1.000  C
  C203     1.0000 0.79434  0.21390  0.72640  Biso   1.000  C
  C204     1.0000 0.75741  0.09090  0.70060  Biso   1.000  C
  C205     1.0000 0.80370  0.31100  0.72540  Biso   1.000  C
  C206     1.0000 0.77980  0.37250  0.69840  Biso   1.000  C
  H134     1.0000 0.75750  0.35210  0.67870  Biso   1.000  H
  C207     1.0000 0.78930  0.46270  0.70090  Biso   1.000  C
  H135     1.0000 0.77280  0.50380  0.68280  Biso   1.000  H
  C208     1.0000 0.85390  0.07200  0.83060  Biso   1.000  C
  H136     1.0000 0.85810  0.13480  0.82830  Biso   1.000  H
  C209     1.0000 0.70520  0.09610  0.63310  Biso   1.000  C
  H137     1.0000 0.71040  0.15800  0.62930  Biso   1.000  H
  C210     1.0000 0.87480  0.02350  0.86450  Biso   1.000  C
  H138     1.0000 0.89340  0.05450  0.88540  Biso   1.000  H
  C211     1.0000 0.82120  0.93570  0.80470  Biso   1.000  C
  H139     1.0000 0.80280  0.90290  0.78450  Biso   1.000  H
  C212     1.0000 0.83670  0.34390  0.75290  Biso   1.000  C
  H140     1.0000 0.85360  0.30400  0.77110  Biso   1.000  H
  C213     1.0000 0.06380  0.50020  0.59410  Biso   1.000  C
  H141     1.0000 0.07610  0.46850  0.61920  Biso   1.000  H
  C214     1.0000 0.06200  0.54120  0.52410  Biso   1.000  C
  H142     1.0000 0.07250  0.53780  0.49950  Biso   1.000  H
  C215     1.0000 0.03020  0.59500  0.52270  Biso   1.000  C
  H143     1.0000 0.01950  0.62900  0.49770  Biso   1.000  H
  C216     1.0000 0.03190  0.55060  0.59570  Biso   1.000  C
  H144     1.0000 0.02210  0.55310  0.62090  Biso   1.000  H
  N61      1.0000 0.07862  0.49330  0.55940  Biso   1.000  N
  N62      1.0000 0.96056  0.63710  0.59010  Biso   1.000  N
  N63      1.0000 0.92276  0.76870  0.56670  Biso   1.000  N
  N64      1.0000 0.97180  0.72220  0.52950  Biso   1.000  N
  N65      1.0000 0.86480  0.64640  0.68500  Biso   1.000  N
  N66      1.0000 0.92366  0.01930  0.46070  Biso   1.000  N
  N67      1.0000 0.87018  0.93460  0.86960  Biso   1.000  N
  N68      1.0000 0.81524  0.16670  0.75950  Biso   1.000  N
  N69      1.0000 0.77595  0.03950  0.73390  Biso   1.000  N
  N70      1.0000 0.76555  0.17960  0.69530  Biso   1.000  N
  N71      1.0000 0.66796  0.96470  0.60780  Biso   1.000  N
  N72      1.0000 0.82107  0.49610  0.72800  Biso   1.000  N
  I37      1.0000 0.60452  0.23763  0.09528  Biso   1.000  I
  I38      1.0000 0.27525  0.76916  0.21084  Biso   1.000  I
  I39      1.0000 0.38072  0.84485  0.30675  Biso   1.000  I
  I40      1.0000 0.64345  0.08324  0.98909  Biso   1.000  I
  I41      1.0000 0.37518  0.25731  0.95631  Biso   1.000  I
  I42      1.0000 0.46757  0.34629  0.88446  Biso   1.000  I
  Zn19     1.0000 0.33535  0.86830  0.23316  Biso   1.000  Zn
  Zn20     1.0000 0.62447  0.09355  0.06138  Biso   1.000  Zn
  Zn21     1.0000 0.41000  0.37112  0.91858  Biso   1.000  Zn
  C217     1.0000 0.35700  0.78810  0.15530  Biso   1.000  C
  H145     1.0000 0.33540  0.75110  0.15530  Biso   1.000  H
  C218     1.0000 0.37730  0.77070  0.12560  Biso   1.000  C
  H146     1.0000 0.37040  0.72180  0.10620  Biso   1.000  H
  C219     1.0000 0.40800  0.82360  0.12350  Biso   1.000  C
  C220     1.0000 0.43170  0.80450  0.09120  Biso   1.000  C
  C221     1.0000 0.46340  0.60780  0.98710  Biso   1.000  C
  H147     1.0000 0.48620  0.64090  0.98810  Biso   1.000  H
  C222     1.0000 0.43660  0.63760  0.01010  Biso   1.000  C
  C223     1.0000 0.45600  0.52890  0.96300  Biso   1.000  C
  H148     1.0000 0.47430  0.50850  0.94770  Biso   1.000  H
  C224     1.0000 0.40330  0.58730  0.00810  Biso   1.000  C
  H149     1.0000 0.38460  0.60500  0.02330  Biso   1.000  H
  C225     1.0000 0.47960  0.84500  0.05920  Biso   1.000  C
  C226     1.0000 0.39870  0.50930  0.98240  Biso   1.000  C
  H150     1.0000 0.37610  0.47480  0.98060  Biso   1.000  H
  C227     1.0000 0.44390  0.72180  0.03700  Biso   1.000  C
  C228     1.0000 0.51420  0.90140  0.05790  Biso   1.000  C
  C229     1.0000 0.39460  0.90730  0.18300  Biso   1.000  C
  H151     1.0000 0.40060  0.95600  0.20260  Biso   1.000  H
  C230     1.0000 0.41720  0.89380  0.15270  Biso   1.000  C
  H152     1.0000 0.43840  0.93190  0.15230  Biso   1.000  H
  C231     1.0000 0.30426  0.41950  0.26200  Biso   1.000  C
  C232     1.0000 0.17650  0.44790  0.10440  Biso   1.000  C
  H153     1.0000 0.16190  0.41440  0.08110  Biso   1.000  H
  C233     1.0000 0.18840  0.58130  0.14130  Biso   1.000  C
  H154     1.0000 0.18290  0.64340  0.14390  Biso   1.000  H
  C234     1.0000 0.32620  0.47250  0.29910  Biso   1.000  C
  C235     1.0000 0.34340  0.60810  0.34040  Biso   1.000  C
  H155     1.0000 0.33940  0.67070  0.34410  Biso   1.000  H
  C236     1.0000 0.34450  0.06360  0.25320  Biso   1.000  C
  H156     1.0000 0.36710  0.04180  0.27180  Biso   1.000  H
  C237     1.0000 0.21730  0.54220  0.17220  Biso   1.000  C
  H157     1.0000 0.23060  0.57650  0.19600  Biso   1.000  H
  C238     1.0000 0.22655  0.45260  0.16790  Biso   1.000  C
  C239     1.0000 0.29434  0.28610  0.22640  Biso   1.000  C
  C240     1.0000 0.25741  0.40910  0.20060  Biso   1.000  C
  C241     1.0000 0.30370  0.18900  0.22540  Biso   1.000  C
  C242     1.0000 0.27980  0.12750  0.19840  Biso   1.000  C
  H158     1.0000 0.25750  0.14790  0.17870  Biso   1.000  H
  C243     1.0000 0.28930  0.03730  0.20090  Biso   1.000  C
  H159     1.0000 0.27280  0.99620  0.18280  Biso   1.000  H
  C244     1.0000 0.35390  0.42800  0.33060  Biso   1.000  C
  H160     1.0000 0.35810  0.36520  0.32830  Biso   1.000  H
  C245     1.0000 0.20520  0.40390  0.13310  Biso   1.000  C
  H161     1.0000 0.21040  0.34200  0.12930  Biso   1.000  H
  C246     1.0000 0.37480  0.47650  0.36450  Biso   1.000  C
  H162     1.0000 0.39340  0.44550  0.38540  Biso   1.000  H
  C247     1.0000 0.32120  0.56430  0.30470  Biso   1.000  C
  H163     1.0000 0.30280  0.59710  0.28450  Biso   1.000  H
  C248     1.0000 0.33670  0.15610  0.25290  Biso   1.000  C
  H164     1.0000 0.35360  0.19600  0.27110  Biso   1.000  H
  C249     1.0000 0.56380  0.99980  0.09410  Biso   1.000  C
  H165     1.0000 0.57610  0.03150  0.11920  Biso   1.000  H
  C250     1.0000 0.56200  0.95880  0.02410  Biso   1.000  C
  H166     1.0000 0.57250  0.96220  0.99950  Biso   1.000  H
  C251     1.0000 0.53020  0.90500  0.02270  Biso   1.000  C
  H167     1.0000 0.51950  0.87100  0.99770  Biso   1.000  H
  C252     1.0000 0.53190  0.94940  0.09570  Biso   1.000  C
  H168     1.0000 0.52210  0.94690  0.12090  Biso   1.000  H
  N73      1.0000 0.57862  0.00670  0.05940  Biso   1.000  N
  N74      1.0000 0.46056  0.86290  0.09010  Biso   1.000  N
  N75      1.0000 0.42276  0.73130  0.06670  Biso   1.000  N
  N76      1.0000 0.47180  0.77780  0.02950  Biso   1.000  N
  N77      1.0000 0.36480  0.85360  0.18500  Biso   1.000  N
  N78      1.0000 0.42366  0.48070  0.96070  Biso   1.000  N
  N79      1.0000 0.37018  0.56540  0.36960  Biso   1.000  N
  N80      1.0000 0.31524  0.33330  0.25950  Biso   1.000  N
  N81      1.0000 0.27595  0.46050  0.23390  Biso   1.000  N
  N82      1.0000 0.26555  0.32040  0.19530  Biso   1.000  N
  N83      1.0000 0.16796  0.53530  0.10780  Biso   1.000  N
  N84      1.0000 0.32107  0.00390  0.22800  Biso   1.000  N
  I43      1.0000 0.10452  0.73763  0.09528  Biso   1.000  I
  I44      1.0000 0.77525  0.26916  0.21084  Biso   1.000  I
  I45      1.0000 0.88072  0.34485  0.30675  Biso   1.000  I
  I46      1.0000 0.14345  0.58324  0.98909  Biso   1.000  I
  I47      1.0000 0.87518  0.75731  0.95631  Biso   1.000  I
  I48      1.0000 0.96757  0.84629  0.88446  Biso   1.000  I
  Zn22     1.0000 0.83535  0.36830  0.23316  Biso   1.000  Zn
  Zn23     1.0000 0.12447  0.59355  0.06138  Biso   1.000  Zn
  Zn24     1.0000 0.91000  0.87112  0.91858  Biso   1.000  Zn
  C253     1.0000 0.85700  0.28810  0.15530  Biso   1.000  C
  H169     1.0000 0.83540  0.25110  0.15530  Biso   1.000  H
  C254     1.0000 0.87730  0.27070  0.12560  Biso   1.000  C
  H170     1.0000 0.87040  0.22180  0.10620  Biso   1.000  H
  C255     1.0000 0.90800  0.32360  0.12350  Biso   1.000  C
  C256     1.0000 0.93170  0.30450  0.09120  Biso   1.000  C
  C257     1.0000 0.96340  0.10780  0.98710  Biso   1.000  C
  H171     1.0000 0.98620  0.14090  0.98810  Biso   1.000  H
  C258     1.0000 0.93660  0.13760  0.01010  Biso   1.000  C
  C259     1.0000 0.95600  0.02890  0.96300  Biso   1.000  C
  H172     1.0000 0.97430  0.00850  0.94770  Biso   1.000  H
  C260     1.0000 0.90330  0.08730  0.00810  Biso   1.000  C
  H173     1.0000 0.88460  0.10500  0.02330  Biso   1.000  H
  C261     1.0000 0.97960  0.34500  0.05920  Biso   1.000  C
  C262     1.0000 0.89870  0.00930  0.98240  Biso   1.000  C
  H174     1.0000 0.87610  0.97480  0.98060  Biso   1.000  H
  C263     1.0000 0.94390  0.22180  0.03700  Biso   1.000  C
  C264     1.0000 0.01420  0.40140  0.05790  Biso   1.000  C
  C265     1.0000 0.89460  0.40730  0.18300  Biso   1.000  C
  H175     1.0000 0.90060  0.45600  0.20260  Biso   1.000  H
  C266     1.0000 0.91720  0.39380  0.15270  Biso   1.000  C
  H176     1.0000 0.93840  0.43190  0.15230  Biso   1.000  H
  C267     1.0000 0.80426  0.91950  0.26200  Biso   1.000  C
  C268     1.0000 0.67650  0.94790  0.10440  Biso   1.000  C
  H177     1.0000 0.66190  0.91440  0.08110  Biso   1.000  H
  C269     1.0000 0.68840  0.08130  0.14130  Biso   1.000  C
  H178     1.0000 0.68290  0.14340  0.14390  Biso   1.000  H
  C270     1.0000 0.82620  0.97250  0.29910  Biso   1.000  C
  C271     1.0000 0.84340  0.10810  0.34040  Biso   1.000  C
  H179     1.0000 0.83940  0.17070  0.34410  Biso   1.000  H
  C272     1.0000 0.84450  0.56360  0.25320  Biso   1.000  C
  H180     1.0000 0.86710  0.54180  0.27180  Biso   1.000  H
  C273     1.0000 0.71730  0.04220  0.17220  Biso   1.000  C
  H181     1.0000 0.73060  0.07650  0.19600  Biso   1.000  H
  C274     1.0000 0.72655  0.95260  0.16790  Biso   1.000  C
  C275     1.0000 0.79434  0.78610  0.22640  Biso   1.000  C
  C276     1.0000 0.75741  0.90910  0.20060  Biso   1.000  C
  C277     1.0000 0.80370  0.68900  0.22540  Biso   1.000  C
  C278     1.0000 0.77980  0.62750  0.19840  Biso   1.000  C
  H182     1.0000 0.75750  0.64790  0.17870  Biso   1.000  H
  C279     1.0000 0.78930  0.53730  0.20090  Biso   1.000  C
  H183     1.0000 0.77280  0.49620  0.18280  Biso   1.000  H
  C280     1.0000 0.85390  0.92800  0.33060  Biso   1.000  C
  H184     1.0000 0.85810  0.86520  0.32830  Biso   1.000  H
  C281     1.0000 0.70520  0.90390  0.13310  Biso   1.000  C
  H185     1.0000 0.71040  0.84200  0.12930  Biso   1.000  H
  C282     1.0000 0.87480  0.97650  0.36450  Biso   1.000  C
  H186     1.0000 0.89340  0.94550  0.38540  Biso   1.000  H
  C283     1.0000 0.82120  0.06430  0.30470  Biso   1.000  C
  H187     1.0000 0.80280  0.09710  0.28450  Biso   1.000  H
  C284     1.0000 0.83670  0.65610  0.25290  Biso   1.000  C
  H188     1.0000 0.85360  0.69600  0.27110  Biso   1.000  H
  C285     1.0000 0.06380  0.49980  0.09410  Biso   1.000  C
  H189     1.0000 0.07610  0.53150  0.11920  Biso   1.000  H
  C286     1.0000 0.06200  0.45880  0.02410  Biso   1.000  C
  H190     1.0000 0.07250  0.46220  0.99950  Biso   1.000  H
  C287     1.0000 0.03020  0.40500  0.02270  Biso   1.000  C
  H191     1.0000 0.01950  0.37100  0.99770  Biso   1.000  H
  C288     1.0000 0.03190  0.44940  0.09570  Biso   1.000  C
  H192     1.0000 0.02210  0.44690  0.12090  Biso   1.000  H
  N85      1.0000 0.07862  0.50670  0.05940  Biso   1.000  N
  N86      1.0000 0.96056  0.36290  0.09010  Biso   1.000  N
  N87      1.0000 0.92276  0.23130  0.06670  Biso   1.000  N
  N88      1.0000 0.97180  0.27780  0.02950  Biso   1.000  N
  N89      1.0000 0.86480  0.35360  0.18500  Biso   1.000  N
  N90      1.0000 0.92366  0.98070  0.96070  Biso   1.000  N
  N91      1.0000 0.87018  0.06540  0.36960  Biso   1.000  N
  N92      1.0000 0.81524  0.83330  0.25950  Biso   1.000  N
  N93      1.0000 0.77595  0.96050  0.23390  Biso   1.000  N
  N94      1.0000 0.76555  0.82040  0.19530  Biso   1.000  N
  N95      1.0000 0.66796  0.03530  0.10780  Biso   1.000  N
  N96      1.0000 0.82107  0.50390  0.22800  Biso   1.000  N
