data_image0
_cell_length_a       32.702
_cell_length_b       32.702
_cell_length_c       32.702
_cell_angle_alpha    90
_cell_angle_beta     90
_cell_angle_gamma    90

_symmetry_space_group_name_H-M    "P 1"
_symmetry_int_tables_number       1

loop_
  _symmetry_equiv_pos_as_xyz
  'x, y, z'

loop_
  _atom_site_label
  _atom_site_occupancy
  _atom_site_fract_x
  _atom_site_fract_y
  _atom_site_fract_z
  _atom_site_thermal_displace_type
  _atom_site_B_iso_or_equiv
  _atom_site_type_symbol
  C1       1.0000 0.70410  0.32950  0.13160  Biso   1.000  C
  H1       1.0000 0.71180  0.34310  0.15610  Biso   1.000  H
  C2       1.0000 0.72600  0.29970  0.11330  Biso   1.000  C
  H2       1.0000 0.75250  0.29030  0.12090  Biso   1.000  H
  C3       1.0000 0.66950  0.31001  0.08113  Biso   1.000  C
  H3       1.0000 0.64810  0.30750  0.06160  Biso   1.000  H
  C4       1.0000 0.71130  0.25220  0.05580  Biso   1.000  C
  C5       1.0000 0.68610  0.24437  0.02250  Biso   1.000  C
  H4       1.0000 0.66340  0.26170  0.01690  Biso   1.000  H
  N1       1.0000 0.66981  0.33707  0.11030  Biso   1.000  N
  N2       1.0000 0.70284  0.28604  0.08190  Biso   1.000  N
  C6       1.0000 0.70410  0.82950  0.63160  Biso   1.000  C
  H5       1.0000 0.71180  0.84310  0.65610  Biso   1.000  H
  C7       1.0000 0.72600  0.79970  0.61330  Biso   1.000  C
  H6       1.0000 0.75250  0.79030  0.62090  Biso   1.000  H
  C8       1.0000 0.66950  0.81001  0.58113  Biso   1.000  C
  H7       1.0000 0.64810  0.80750  0.56160  Biso   1.000  H
  C9       1.0000 0.71130  0.75220  0.55580  Biso   1.000  C
  C10      1.0000 0.68610  0.74437  0.52250  Biso   1.000  C
  H8       1.0000 0.66340  0.76170  0.51690  Biso   1.000  H
  N3       1.0000 0.66981  0.83707  0.61030  Biso   1.000  N
  N4       1.0000 0.70284  0.78604  0.58190  Biso   1.000  N
  C11      1.0000 0.20410  0.32950  0.63160  Biso   1.000  C
  H9       1.0000 0.21180  0.34310  0.65610  Biso   1.000  H
  C12      1.0000 0.22600  0.29970  0.61330  Biso   1.000  C
  H10      1.0000 0.25250  0.29030  0.62090  Biso   1.000  H
  C13      1.0000 0.16950  0.31001  0.58113  Biso   1.000  C
  H11      1.0000 0.14810  0.30750  0.56160  Biso   1.000  H
  C14      1.0000 0.21130  0.25220  0.55580  Biso   1.000  C
  C15      1.0000 0.18610  0.24437  0.52250  Biso   1.000  C
  H12      1.0000 0.16340  0.26170  0.51690  Biso   1.000  H
  N5       1.0000 0.16981  0.33707  0.61030  Biso   1.000  N
  N6       1.0000 0.20284  0.28604  0.58190  Biso   1.000  N
  C16      1.0000 0.20410  0.82950  0.13160  Biso   1.000  C
  H13      1.0000 0.21180  0.84310  0.15610  Biso   1.000  H
  C17      1.0000 0.22600  0.79970  0.11330  Biso   1.000  C
  H14      1.0000 0.25250  0.79030  0.12090  Biso   1.000  H
  C18      1.0000 0.16950  0.81001  0.08113  Biso   1.000  C
  H15      1.0000 0.14810  0.80750  0.06160  Biso   1.000  H
  C19      1.0000 0.21130  0.75220  0.05580  Biso   1.000  C
  C20      1.0000 0.18610  0.74437  0.02250  Biso   1.000  C
  H16      1.0000 0.16340  0.76170  0.01690  Biso   1.000  H
  N7       1.0000 0.16981  0.83707  0.11030  Biso   1.000  N
  N8       1.0000 0.20284  0.78604  0.08190  Biso   1.000  N
  C21      1.0000 0.54590  0.42050  0.63160  Biso   1.000  C
  H17      1.0000 0.53820  0.40690  0.65610  Biso   1.000  H
  C22      1.0000 0.52400  0.45030  0.61330  Biso   1.000  C
  H18      1.0000 0.49750  0.45970  0.62090  Biso   1.000  H
  C23      1.0000 0.58050  0.43999  0.58113  Biso   1.000  C
  H19      1.0000 0.60190  0.44250  0.56160  Biso   1.000  H
  C24      1.0000 0.53870  0.49780  0.55580  Biso   1.000  C
  C25      1.0000 0.56390  0.50563  0.52250  Biso   1.000  C
  H20      1.0000 0.58660  0.48830  0.51690  Biso   1.000  H
  N9       1.0000 0.58019  0.41293  0.61030  Biso   1.000  N
  N10      1.0000 0.54716  0.46396  0.58190  Biso   1.000  N
  C26      1.0000 0.54590  0.92050  0.13160  Biso   1.000  C
  H21      1.0000 0.53820  0.90690  0.15610  Biso   1.000  H
  C27      1.0000 0.52400  0.95030  0.11330  Biso   1.000  C
  H22      1.0000 0.49750  0.95970  0.12090  Biso   1.000  H
  C28      1.0000 0.58050  0.93999  0.08113  Biso   1.000  C
  H23      1.0000 0.60190  0.94250  0.06160  Biso   1.000  H
  C29      1.0000 0.53870  0.99780  0.05580  Biso   1.000  C
  C30      1.0000 0.56390  0.00563  0.02250  Biso   1.000  C
  H24      1.0000 0.58660  0.98830  0.01690  Biso   1.000  H
  N11      1.0000 0.58019  0.91293  0.11030  Biso   1.000  N
  N12      1.0000 0.54716  0.96396  0.08190  Biso   1.000  N
  C31      1.0000 0.04590  0.42050  0.13160  Biso   1.000  C
  H25      1.0000 0.03820  0.40690  0.15610  Biso   1.000  H
  C32      1.0000 0.02400  0.45030  0.11330  Biso   1.000  C
  H26      1.0000 0.99750  0.45970  0.12090  Biso   1.000  H
  C33      1.0000 0.08050  0.43999  0.08113  Biso   1.000  C
  H27      1.0000 0.10190  0.44250  0.06160  Biso   1.000  H
  C34      1.0000 0.03870  0.49780  0.05580  Biso   1.000  C
  C35      1.0000 0.06390  0.50563  0.02250  Biso   1.000  C
  H28      1.0000 0.08660  0.48830  0.01690  Biso   1.000  H
  N13      1.0000 0.08019  0.41293  0.11030  Biso   1.000  N
  N14      1.0000 0.04716  0.46396  0.08190  Biso   1.000  N
  C36      1.0000 0.04590  0.92050  0.63160  Biso   1.000  C
  H29      1.0000 0.03820  0.90690  0.65610  Biso   1.000  H
  C37      1.0000 0.02400  0.95030  0.61330  Biso   1.000  C
  H30      1.0000 0.99750  0.95970  0.62090  Biso   1.000  H
  C38      1.0000 0.08050  0.93999  0.58113  Biso   1.000  C
  H31      1.0000 0.10190  0.94250  0.56160  Biso   1.000  H
  C39      1.0000 0.03870  0.99780  0.55580  Biso   1.000  C
  C40      1.0000 0.06390  0.00563  0.52250  Biso   1.000  C
  H32      1.0000 0.08660  0.98830  0.51690  Biso   1.000  H
  N15      1.0000 0.08019  0.91293  0.61030  Biso   1.000  N
  N16      1.0000 0.04716  0.96396  0.58190  Biso   1.000  N
  C41      1.0000 0.04590  0.82950  0.11840  Biso   1.000  C
  H33      1.0000 0.03820  0.84310  0.09390  Biso   1.000  H
  C42      1.0000 0.02400  0.79970  0.13670  Biso   1.000  C
  H34      1.0000 0.99750  0.79030  0.12910  Biso   1.000  H
  C43      1.0000 0.08050  0.81001  0.16887  Biso   1.000  C
  H35      1.0000 0.10190  0.80750  0.18840  Biso   1.000  H
  C44      1.0000 0.03870  0.75220  0.19420  Biso   1.000  C
  C45      1.0000 0.06390  0.74437  0.22750  Biso   1.000  C
  H36      1.0000 0.08660  0.76170  0.23310  Biso   1.000  H
  N17      1.0000 0.08019  0.83707  0.13970  Biso   1.000  N
  N18      1.0000 0.04716  0.78604  0.16810  Biso   1.000  N
  C46      1.0000 0.04590  0.32950  0.61840  Biso   1.000  C
  H37      1.0000 0.03820  0.34310  0.59390  Biso   1.000  H
  C47      1.0000 0.02400  0.29970  0.63670  Biso   1.000  C
  H38      1.0000 0.99750  0.29030  0.62910  Biso   1.000  H
  C48      1.0000 0.08050  0.31001  0.66887  Biso   1.000  C
  H39      1.0000 0.10190  0.30750  0.68840  Biso   1.000  H
  C49      1.0000 0.03870  0.25220  0.69420  Biso   1.000  C
  C50      1.0000 0.06390  0.24437  0.72750  Biso   1.000  C
  H40      1.0000 0.08660  0.26170  0.73310  Biso   1.000  H
  N19      1.0000 0.08019  0.33707  0.63970  Biso   1.000  N
  N20      1.0000 0.04716  0.28604  0.66810  Biso   1.000  N
  C51      1.0000 0.54590  0.82950  0.61840  Biso   1.000  C
  H41      1.0000 0.53820  0.84310  0.59390  Biso   1.000  H
  C52      1.0000 0.52400  0.79970  0.63670  Biso   1.000  C
  H42      1.0000 0.49750  0.79030  0.62910  Biso   1.000  H
  C53      1.0000 0.58050  0.81001  0.66887  Biso   1.000  C
  H43      1.0000 0.60190  0.80750  0.68840  Biso   1.000  H
  C54      1.0000 0.53870  0.75220  0.69420  Biso   1.000  C
  C55      1.0000 0.56390  0.74437  0.72750  Biso   1.000  C
  H44      1.0000 0.58660  0.76170  0.73310  Biso   1.000  H
  N21      1.0000 0.58019  0.83707  0.63970  Biso   1.000  N
  N22      1.0000 0.54716  0.78604  0.66810  Biso   1.000  N
  C56      1.0000 0.54590  0.32950  0.11840  Biso   1.000  C
  H45      1.0000 0.53820  0.34310  0.09390  Biso   1.000  H
  C57      1.0000 0.52400  0.29970  0.13670  Biso   1.000  C
  H46      1.0000 0.49750  0.29030  0.12910  Biso   1.000  H
  C58      1.0000 0.58050  0.31001  0.16887  Biso   1.000  C
  H47      1.0000 0.60190  0.30750  0.18840  Biso   1.000  H
  C59      1.0000 0.53870  0.25220  0.19420  Biso   1.000  C
  C60      1.0000 0.56390  0.24437  0.22750  Biso   1.000  C
  H48      1.0000 0.58660  0.26170  0.23310  Biso   1.000  H
  N23      1.0000 0.58019  0.33707  0.13970  Biso   1.000  N
  N24      1.0000 0.54716  0.28604  0.16810  Biso   1.000  N
  C61      1.0000 0.20410  0.92050  0.61840  Biso   1.000  C
  H49      1.0000 0.21180  0.90690  0.59390  Biso   1.000  H
  C62      1.0000 0.22600  0.95030  0.63670  Biso   1.000  C
  H50      1.0000 0.25250  0.95970  0.62910  Biso   1.000  H
  C63      1.0000 0.16950  0.93999  0.66887  Biso   1.000  C
  H51      1.0000 0.14810  0.94250  0.68840  Biso   1.000  H
  C64      1.0000 0.21130  0.99780  0.69420  Biso   1.000  C
  C65      1.0000 0.18610  0.00563  0.72750  Biso   1.000  C
  H52      1.0000 0.16340  0.98830  0.73310  Biso   1.000  H
  N25      1.0000 0.16981  0.91293  0.63970  Biso   1.000  N
  N26      1.0000 0.20284  0.96396  0.66810  Biso   1.000  N
  C66      1.0000 0.20410  0.42050  0.11840  Biso   1.000  C
  H53      1.0000 0.21180  0.40690  0.09390  Biso   1.000  H
  C67      1.0000 0.22600  0.45030  0.13670  Biso   1.000  C
  H54      1.0000 0.25250  0.45970  0.12910  Biso   1.000  H
  C68      1.0000 0.16950  0.43999  0.16887  Biso   1.000  C
  H55      1.0000 0.14810  0.44250  0.18840  Biso   1.000  H
  C69      1.0000 0.21130  0.49780  0.19420  Biso   1.000  C
  C70      1.0000 0.18610  0.50563  0.22750  Biso   1.000  C
  H56      1.0000 0.16340  0.48830  0.23310  Biso   1.000  H
  N27      1.0000 0.16981  0.41293  0.13970  Biso   1.000  N
  N28      1.0000 0.20284  0.46396  0.16810  Biso   1.000  N
  C71      1.0000 0.70410  0.92050  0.11840  Biso   1.000  C
  H57      1.0000 0.71180  0.90690  0.09390  Biso   1.000  H
  C72      1.0000 0.72600  0.95030  0.13670  Biso   1.000  C
  H58      1.0000 0.75250  0.95970  0.12910  Biso   1.000  H
  C73      1.0000 0.66950  0.93999  0.16887  Biso   1.000  C
  H59      1.0000 0.64810  0.94250  0.18840  Biso   1.000  H
  C74      1.0000 0.71130  0.99780  0.19420  Biso   1.000  C
  C75      1.0000 0.68610  0.00563  0.22750  Biso   1.000  C
  H60      1.0000 0.66340  0.98830  0.23310  Biso   1.000  H
  N29      1.0000 0.66981  0.91293  0.13970  Biso   1.000  N
  N30      1.0000 0.70284  0.96396  0.16810  Biso   1.000  N
  C76      1.0000 0.70410  0.42050  0.61840  Biso   1.000  C
  H61      1.0000 0.71180  0.40690  0.59390  Biso   1.000  H
  C77      1.0000 0.72600  0.45030  0.63670  Biso   1.000  C
  H62      1.0000 0.75250  0.45970  0.62910  Biso   1.000  H
  C78      1.0000 0.66950  0.43999  0.66887  Biso   1.000  C
  H63      1.0000 0.64810  0.44250  0.68840  Biso   1.000  H
  C79      1.0000 0.71130  0.49780  0.69420  Biso   1.000  C
  C80      1.0000 0.68610  0.50563  0.72750  Biso   1.000  C
  H64      1.0000 0.66340  0.48830  0.73310  Biso   1.000  H
  N31      1.0000 0.66981  0.41293  0.63970  Biso   1.000  N
  N32      1.0000 0.70284  0.46396  0.66810  Biso   1.000  N
  C81      1.0000 0.13160  0.70410  0.32950  Biso   1.000  C
  H65      1.0000 0.15610  0.71180  0.34310  Biso   1.000  H
  C82      1.0000 0.11330  0.72600  0.29970  Biso   1.000  C
  H66      1.0000 0.12090  0.75250  0.29030  Biso   1.000  H
  C83      1.0000 0.08113  0.66950  0.31001  Biso   1.000  C
  H67      1.0000 0.06160  0.64810  0.30750  Biso   1.000  H
  C84      1.0000 0.05580  0.71130  0.25220  Biso   1.000  C
  C85      1.0000 0.02250  0.68610  0.24437  Biso   1.000  C
  H68      1.0000 0.01690  0.66340  0.26170  Biso   1.000  H
  N33      1.0000 0.11030  0.66981  0.33707  Biso   1.000  N
  N34      1.0000 0.08190  0.70284  0.28604  Biso   1.000  N
  C86      1.0000 0.13160  0.20410  0.82950  Biso   1.000  C
  H69      1.0000 0.15610  0.21180  0.84310  Biso   1.000  H
  C87      1.0000 0.11330  0.22600  0.79970  Biso   1.000  C
  H70      1.0000 0.12090  0.25250  0.79030  Biso   1.000  H
  C88      1.0000 0.08113  0.16950  0.81001  Biso   1.000  C
  H71      1.0000 0.06160  0.14810  0.80750  Biso   1.000  H
  C89      1.0000 0.05580  0.21130  0.75220  Biso   1.000  C
  C90      1.0000 0.02250  0.18610  0.74437  Biso   1.000  C
  H72      1.0000 0.01690  0.16340  0.76170  Biso   1.000  H
  N35      1.0000 0.11030  0.16981  0.83707  Biso   1.000  N
  N36      1.0000 0.08190  0.20284  0.78604  Biso   1.000  N
  C91      1.0000 0.63160  0.70410  0.82950  Biso   1.000  C
  H73      1.0000 0.65610  0.71180  0.84310  Biso   1.000  H
  C92      1.0000 0.61330  0.72600  0.79970  Biso   1.000  C
  H74      1.0000 0.62090  0.75250  0.79030  Biso   1.000  H
  C93      1.0000 0.58113  0.66950  0.81001  Biso   1.000  C
  H75      1.0000 0.56160  0.64810  0.80750  Biso   1.000  H
  C94      1.0000 0.55580  0.71130  0.75220  Biso   1.000  C
  C95      1.0000 0.52250  0.68610  0.74437  Biso   1.000  C
  H76      1.0000 0.51690  0.66340  0.76170  Biso   1.000  H
  N37      1.0000 0.61030  0.66981  0.83707  Biso   1.000  N
  N38      1.0000 0.58190  0.70284  0.78604  Biso   1.000  N
  C96      1.0000 0.63160  0.20410  0.32950  Biso   1.000  C
  H77      1.0000 0.65610  0.21180  0.34310  Biso   1.000  H
  C97      1.0000 0.61330  0.22600  0.29970  Biso   1.000  C
  H78      1.0000 0.62090  0.25250  0.29030  Biso   1.000  H
  C98      1.0000 0.58113  0.16950  0.31001  Biso   1.000  C
  H79      1.0000 0.56160  0.14810  0.30750  Biso   1.000  H
  C99      1.0000 0.55580  0.21130  0.25220  Biso   1.000  C
  C100     1.0000 0.52250  0.18610  0.24437  Biso   1.000  C
  H80      1.0000 0.51690  0.16340  0.26170  Biso   1.000  H
  N39      1.0000 0.61030  0.16981  0.33707  Biso   1.000  N
  N40      1.0000 0.58190  0.20284  0.28604  Biso   1.000  N
  C101     1.0000 0.63160  0.54590  0.42050  Biso   1.000  C
  H81      1.0000 0.65610  0.53820  0.40690  Biso   1.000  H
  C102     1.0000 0.61330  0.52400  0.45030  Biso   1.000  C
  H82      1.0000 0.62090  0.49750  0.45970  Biso   1.000  H
  C103     1.0000 0.58113  0.58050  0.43999  Biso   1.000  C
  H83      1.0000 0.56160  0.60190  0.44250  Biso   1.000  H
  C104     1.0000 0.55580  0.53870  0.49780  Biso   1.000  C
  C105     1.0000 0.52250  0.56390  0.50563  Biso   1.000  C
  H84      1.0000 0.51690  0.58660  0.48830  Biso   1.000  H
  N41      1.0000 0.61030  0.58019  0.41293  Biso   1.000  N
  N42      1.0000 0.58190  0.54716  0.46396  Biso   1.000  N
  C106     1.0000 0.63160  0.04590  0.92050  Biso   1.000  C
  H85      1.0000 0.65610  0.03820  0.90690  Biso   1.000  H
  C107     1.0000 0.61330  0.02400  0.95030  Biso   1.000  C
  H86      1.0000 0.62090  0.99750  0.95970  Biso   1.000  H
  C108     1.0000 0.58113  0.08050  0.93999  Biso   1.000  C
  H87      1.0000 0.56160  0.10190  0.94250  Biso   1.000  H
  C109     1.0000 0.55580  0.03870  0.99780  Biso   1.000  C
  C110     1.0000 0.52250  0.06390  0.00563  Biso   1.000  C
  H88      1.0000 0.51690  0.08660  0.98830  Biso   1.000  H
  N43      1.0000 0.61030  0.08019  0.91293  Biso   1.000  N
  N44      1.0000 0.58190  0.04716  0.96396  Biso   1.000  N
  C111     1.0000 0.13160  0.54590  0.92050  Biso   1.000  C
  H89      1.0000 0.15610  0.53820  0.90690  Biso   1.000  H
  C112     1.0000 0.11330  0.52400  0.95030  Biso   1.000  C
  H90      1.0000 0.12090  0.49750  0.95970  Biso   1.000  H
  C113     1.0000 0.08113  0.58050  0.93999  Biso   1.000  C
  H91      1.0000 0.06160  0.60190  0.94250  Biso   1.000  H
  C114     1.0000 0.05580  0.53870  0.99780  Biso   1.000  C
  C115     1.0000 0.02250  0.56390  0.00563  Biso   1.000  C
  H92      1.0000 0.01690  0.58660  0.98830  Biso   1.000  H
  N45      1.0000 0.11030  0.58019  0.91293  Biso   1.000  N
  N46      1.0000 0.08190  0.54716  0.96396  Biso   1.000  N
  C116     1.0000 0.13160  0.04590  0.42050  Biso   1.000  C
  H93      1.0000 0.15610  0.03820  0.40690  Biso   1.000  H
  C117     1.0000 0.11330  0.02400  0.45030  Biso   1.000  C
  H94      1.0000 0.12090  0.99750  0.45970  Biso   1.000  H
  C118     1.0000 0.08113  0.08050  0.43999  Biso   1.000  C
  H95      1.0000 0.06160  0.10190  0.44250  Biso   1.000  H
  C119     1.0000 0.05580  0.03870  0.49780  Biso   1.000  C
  C120     1.0000 0.02250  0.06390  0.50563  Biso   1.000  C
  H96      1.0000 0.01690  0.08660  0.48830  Biso   1.000  H
  N47      1.0000 0.11030  0.08019  0.41293  Biso   1.000  N
  N48      1.0000 0.08190  0.04716  0.46396  Biso   1.000  N
  C121     1.0000 0.11840  0.04590  0.82950  Biso   1.000  C
  H97      1.0000 0.09390  0.03820  0.84310  Biso   1.000  H
  C122     1.0000 0.13670  0.02400  0.79970  Biso   1.000  C
  H98      1.0000 0.12910  0.99750  0.79030  Biso   1.000  H
  C123     1.0000 0.16887  0.08050  0.81001  Biso   1.000  C
  H99      1.0000 0.18840  0.10190  0.80750  Biso   1.000  H
  C124     1.0000 0.19420  0.03870  0.75220  Biso   1.000  C
  C125     1.0000 0.22750  0.06390  0.74437  Biso   1.000  C
  H100     1.0000 0.23310  0.08660  0.76170  Biso   1.000  H
  N49      1.0000 0.13970  0.08019  0.83707  Biso   1.000  N
  N50      1.0000 0.16810  0.04716  0.78604  Biso   1.000  N
  C126     1.0000 0.11840  0.54590  0.32950  Biso   1.000  C
  H101     1.0000 0.09390  0.53820  0.34310  Biso   1.000  H
  C127     1.0000 0.13670  0.52400  0.29970  Biso   1.000  C
  H102     1.0000 0.12910  0.49750  0.29030  Biso   1.000  H
  C128     1.0000 0.16887  0.58050  0.31001  Biso   1.000  C
  H103     1.0000 0.18840  0.60190  0.30750  Biso   1.000  H
  C129     1.0000 0.19420  0.53870  0.25220  Biso   1.000  C
  C130     1.0000 0.22750  0.56390  0.24437  Biso   1.000  C
  H104     1.0000 0.23310  0.58660  0.26170  Biso   1.000  H
  N51      1.0000 0.13970  0.58019  0.33707  Biso   1.000  N
  N52      1.0000 0.16810  0.54716  0.28604  Biso   1.000  N
  C131     1.0000 0.61840  0.04590  0.32950  Biso   1.000  C
  H105     1.0000 0.59390  0.03820  0.34310  Biso   1.000  H
  C132     1.0000 0.63670  0.02400  0.29970  Biso   1.000  C
  H106     1.0000 0.62910  0.99750  0.29030  Biso   1.000  H
  C133     1.0000 0.66887  0.08050  0.31001  Biso   1.000  C
  H107     1.0000 0.68840  0.10190  0.30750  Biso   1.000  H
  C134     1.0000 0.69420  0.03870  0.25220  Biso   1.000  C
  C135     1.0000 0.72750  0.06390  0.24437  Biso   1.000  C
  H108     1.0000 0.73310  0.08660  0.26170  Biso   1.000  H
  N53      1.0000 0.63970  0.08019  0.33707  Biso   1.000  N
  N54      1.0000 0.66810  0.04716  0.28604  Biso   1.000  N
  C136     1.0000 0.61840  0.54590  0.82950  Biso   1.000  C
  H109     1.0000 0.59390  0.53820  0.84310  Biso   1.000  H
  C137     1.0000 0.63670  0.52400  0.79970  Biso   1.000  C
  H110     1.0000 0.62910  0.49750  0.79030  Biso   1.000  H
  C138     1.0000 0.66887  0.58050  0.81001  Biso   1.000  C
  H111     1.0000 0.68840  0.60190  0.80750  Biso   1.000  H
  C139     1.0000 0.69420  0.53870  0.75220  Biso   1.000  C
  C140     1.0000 0.72750  0.56390  0.74437  Biso   1.000  C
  H112     1.0000 0.73310  0.58660  0.76170  Biso   1.000  H
  N55      1.0000 0.63970  0.58019  0.83707  Biso   1.000  N
  N56      1.0000 0.66810  0.54716  0.78604  Biso   1.000  N
  C141     1.0000 0.61840  0.20410  0.92050  Biso   1.000  C
  H113     1.0000 0.59390  0.21180  0.90690  Biso   1.000  H
  C142     1.0000 0.63670  0.22600  0.95030  Biso   1.000  C
  H114     1.0000 0.62910  0.25250  0.95970  Biso   1.000  H
  C143     1.0000 0.66887  0.16950  0.93999  Biso   1.000  C
  H115     1.0000 0.68840  0.14810  0.94250  Biso   1.000  H
  C144     1.0000 0.69420  0.21130  0.99780  Biso   1.000  C
  C145     1.0000 0.72750  0.18610  0.00563  Biso   1.000  C
  H116     1.0000 0.73310  0.16340  0.98830  Biso   1.000  H
  N57      1.0000 0.63970  0.16981  0.91293  Biso   1.000  N
  N58      1.0000 0.66810  0.20284  0.96396  Biso   1.000  N
  C146     1.0000 0.61840  0.70410  0.42050  Biso   1.000  C
  H117     1.0000 0.59390  0.71180  0.40690  Biso   1.000  H
  C147     1.0000 0.63670  0.72600  0.45030  Biso   1.000  C
  H118     1.0000 0.62910  0.75250  0.45970  Biso   1.000  H
  C148     1.0000 0.66887  0.66950  0.43999  Biso   1.000  C
  H119     1.0000 0.68840  0.64810  0.44250  Biso   1.000  H
  C149     1.0000 0.69420  0.71130  0.49780  Biso   1.000  C
  C150     1.0000 0.72750  0.68610  0.50563  Biso   1.000  C
  H120     1.0000 0.73310  0.66340  0.48830  Biso   1.000  H
  N59      1.0000 0.63970  0.66981  0.41293  Biso   1.000  N
  N60      1.0000 0.66810  0.70284  0.46396  Biso   1.000  N
  C151     1.0000 0.11840  0.20410  0.42050  Biso   1.000  C
  H121     1.0000 0.09390  0.21180  0.40690  Biso   1.000  H
  C152     1.0000 0.13670  0.22600  0.45030  Biso   1.000  C
  H122     1.0000 0.12910  0.25250  0.45970  Biso   1.000  H
  C153     1.0000 0.16887  0.16950  0.43999  Biso   1.000  C
  H123     1.0000 0.18840  0.14810  0.44250  Biso   1.000  H
  C154     1.0000 0.19420  0.21130  0.49780  Biso   1.000  C
  C155     1.0000 0.22750  0.18610  0.50563  Biso   1.000  C
  H124     1.0000 0.23310  0.16340  0.48830  Biso   1.000  H
  N61      1.0000 0.13970  0.16981  0.41293  Biso   1.000  N
  N62      1.0000 0.16810  0.20284  0.46396  Biso   1.000  N
  C156     1.0000 0.11840  0.70410  0.92050  Biso   1.000  C
  H125     1.0000 0.09390  0.71180  0.90690  Biso   1.000  H
  C157     1.0000 0.13670  0.72600  0.95030  Biso   1.000  C
  H126     1.0000 0.12910  0.75250  0.95970  Biso   1.000  H
  C158     1.0000 0.16887  0.66950  0.93999  Biso   1.000  C
  H127     1.0000 0.18840  0.64810  0.94250  Biso   1.000  H
  C159     1.0000 0.19420  0.71130  0.99780  Biso   1.000  C
  C160     1.0000 0.22750  0.68610  0.00563  Biso   1.000  C
  H128     1.0000 0.23310  0.66340  0.98830  Biso   1.000  H
  N63      1.0000 0.13970  0.66981  0.91293  Biso   1.000  N
  N64      1.0000 0.16810  0.70284  0.96396  Biso   1.000  N
  C161     1.0000 0.32950  0.13160  0.70410  Biso   1.000  C
  H129     1.0000 0.34310  0.15610  0.71180  Biso   1.000  H
  C162     1.0000 0.29970  0.11330  0.72600  Biso   1.000  C
  H130     1.0000 0.29030  0.12090  0.75250  Biso   1.000  H
  C163     1.0000 0.31001  0.08113  0.66950  Biso   1.000  C
  H131     1.0000 0.30750  0.06160  0.64810  Biso   1.000  H
  C164     1.0000 0.25220  0.05580  0.71130  Biso   1.000  C
  C165     1.0000 0.24437  0.02250  0.68610  Biso   1.000  C
  H132     1.0000 0.26170  0.01690  0.66340  Biso   1.000  H
  N65      1.0000 0.33707  0.11030  0.66981  Biso   1.000  N
  N66      1.0000 0.28604  0.08190  0.70284  Biso   1.000  N
  C166     1.0000 0.32950  0.63160  0.20410  Biso   1.000  C
  H133     1.0000 0.34310  0.65610  0.21180  Biso   1.000  H
  C167     1.0000 0.29970  0.61330  0.22600  Biso   1.000  C
  H134     1.0000 0.29030  0.62090  0.25250  Biso   1.000  H
  C168     1.0000 0.31001  0.58113  0.16950  Biso   1.000  C
  H135     1.0000 0.30750  0.56160  0.14810  Biso   1.000  H
  C169     1.0000 0.25220  0.55580  0.21130  Biso   1.000  C
  C170     1.0000 0.24437  0.52250  0.18610  Biso   1.000  C
  H136     1.0000 0.26170  0.51690  0.16340  Biso   1.000  H
  N67      1.0000 0.33707  0.61030  0.16981  Biso   1.000  N
  N68      1.0000 0.28604  0.58190  0.20284  Biso   1.000  N
  C171     1.0000 0.82950  0.13160  0.20410  Biso   1.000  C
  H137     1.0000 0.84310  0.15610  0.21180  Biso   1.000  H
  C172     1.0000 0.79970  0.11330  0.22600  Biso   1.000  C
  H138     1.0000 0.79030  0.12090  0.25250  Biso   1.000  H
  C173     1.0000 0.81001  0.08113  0.16950  Biso   1.000  C
  H139     1.0000 0.80750  0.06160  0.14810  Biso   1.000  H
  C174     1.0000 0.75220  0.05580  0.21130  Biso   1.000  C
  C175     1.0000 0.74437  0.02250  0.18610  Biso   1.000  C
  H140     1.0000 0.76170  0.01690  0.16340  Biso   1.000  H
  N69      1.0000 0.83707  0.11030  0.16981  Biso   1.000  N
  N70      1.0000 0.78604  0.08190  0.20284  Biso   1.000  N
  C176     1.0000 0.82950  0.63160  0.70410  Biso   1.000  C
  H141     1.0000 0.84310  0.65610  0.71180  Biso   1.000  H
  C177     1.0000 0.79970  0.61330  0.72600  Biso   1.000  C
  H142     1.0000 0.79030  0.62090  0.75250  Biso   1.000  H
  C178     1.0000 0.81001  0.58113  0.66950  Biso   1.000  C
  H143     1.0000 0.80750  0.56160  0.64810  Biso   1.000  H
  C179     1.0000 0.75220  0.55580  0.71130  Biso   1.000  C
  C180     1.0000 0.74437  0.52250  0.68610  Biso   1.000  C
  H144     1.0000 0.76170  0.51690  0.66340  Biso   1.000  H
  N71      1.0000 0.83707  0.61030  0.66981  Biso   1.000  N
  N72      1.0000 0.78604  0.58190  0.70284  Biso   1.000  N
  C181     1.0000 0.42050  0.63160  0.54590  Biso   1.000  C
  H145     1.0000 0.40690  0.65610  0.53820  Biso   1.000  H
  C182     1.0000 0.45030  0.61330  0.52400  Biso   1.000  C
  H146     1.0000 0.45970  0.62090  0.49750  Biso   1.000  H
  C183     1.0000 0.43999  0.58113  0.58050  Biso   1.000  C
  H147     1.0000 0.44250  0.56160  0.60190  Biso   1.000  H
  C184     1.0000 0.49780  0.55580  0.53870  Biso   1.000  C
  C185     1.0000 0.50563  0.52250  0.56390  Biso   1.000  C
  H148     1.0000 0.48830  0.51690  0.58660  Biso   1.000  H
  N73      1.0000 0.41293  0.61030  0.58019  Biso   1.000  N
  N74      1.0000 0.46396  0.58190  0.54716  Biso   1.000  N
  C186     1.0000 0.42050  0.13160  0.04590  Biso   1.000  C
  H149     1.0000 0.40690  0.15610  0.03820  Biso   1.000  H
  C187     1.0000 0.45030  0.11330  0.02400  Biso   1.000  C
  H150     1.0000 0.45970  0.12090  0.99750  Biso   1.000  H
  C188     1.0000 0.43999  0.08113  0.08050  Biso   1.000  C
  H151     1.0000 0.44250  0.06160  0.10190  Biso   1.000  H
  C189     1.0000 0.49780  0.05580  0.03870  Biso   1.000  C
  C190     1.0000 0.50563  0.02250  0.06390  Biso   1.000  C
  H152     1.0000 0.48830  0.01690  0.08660  Biso   1.000  H
  N75      1.0000 0.41293  0.11030  0.08019  Biso   1.000  N
  N76      1.0000 0.46396  0.08190  0.04716  Biso   1.000  N
  C191     1.0000 0.92050  0.63160  0.04590  Biso   1.000  C
  H153     1.0000 0.90690  0.65610  0.03820  Biso   1.000  H
  C192     1.0000 0.95030  0.61330  0.02400  Biso   1.000  C
  H154     1.0000 0.95970  0.62090  0.99750  Biso   1.000  H
  C193     1.0000 0.93999  0.58113  0.08050  Biso   1.000  C
  H155     1.0000 0.94250  0.56160  0.10190  Biso   1.000  H
  C194     1.0000 0.99780  0.55580  0.03870  Biso   1.000  C
  C195     1.0000 0.00563  0.52250  0.06390  Biso   1.000  C
  H156     1.0000 0.98830  0.51690  0.08660  Biso   1.000  H
  N77      1.0000 0.91293  0.61030  0.08019  Biso   1.000  N
  N78      1.0000 0.96396  0.58190  0.04716  Biso   1.000  N
  C196     1.0000 0.92050  0.13160  0.54590  Biso   1.000  C
  H157     1.0000 0.90690  0.15610  0.53820  Biso   1.000  H
  C197     1.0000 0.95030  0.11330  0.52400  Biso   1.000  C
  H158     1.0000 0.95970  0.12090  0.49750  Biso   1.000  H
  C198     1.0000 0.93999  0.08113  0.58050  Biso   1.000  C
  H159     1.0000 0.94250  0.06160  0.60190  Biso   1.000  H
  C199     1.0000 0.99780  0.05580  0.53870  Biso   1.000  C
  C200     1.0000 0.00563  0.02250  0.56390  Biso   1.000  C
  H160     1.0000 0.98830  0.01690  0.58660  Biso   1.000  H
  N79      1.0000 0.91293  0.11030  0.58019  Biso   1.000  N
  N80      1.0000 0.96396  0.08190  0.54716  Biso   1.000  N
  C201     1.0000 0.82950  0.11840  0.04590  Biso   1.000  C
  H161     1.0000 0.84310  0.09390  0.03820  Biso   1.000  H
  C202     1.0000 0.79970  0.13670  0.02400  Biso   1.000  C
  H162     1.0000 0.79030  0.12910  0.99750  Biso   1.000  H
  C203     1.0000 0.81001  0.16887  0.08050  Biso   1.000  C
  H163     1.0000 0.80750  0.18840  0.10190  Biso   1.000  H
  C204     1.0000 0.75220  0.19420  0.03870  Biso   1.000  C
  C205     1.0000 0.74437  0.22750  0.06390  Biso   1.000  C
  H164     1.0000 0.76170  0.23310  0.08660  Biso   1.000  H
  N81      1.0000 0.83707  0.13970  0.08019  Biso   1.000  N
  N82      1.0000 0.78604  0.16810  0.04716  Biso   1.000  N
  C206     1.0000 0.82950  0.61840  0.54590  Biso   1.000  C
  H165     1.0000 0.84310  0.59390  0.53820  Biso   1.000  H
  C207     1.0000 0.79970  0.63670  0.52400  Biso   1.000  C
  H166     1.0000 0.79030  0.62910  0.49750  Biso   1.000  H
  C208     1.0000 0.81001  0.66887  0.58050  Biso   1.000  C
  H167     1.0000 0.80750  0.68840  0.60190  Biso   1.000  H
  C209     1.0000 0.75220  0.69420  0.53870  Biso   1.000  C
  C210     1.0000 0.74437  0.72750  0.56390  Biso   1.000  C
  H168     1.0000 0.76170  0.73310  0.58660  Biso   1.000  H
  N83      1.0000 0.83707  0.63970  0.58019  Biso   1.000  N
  N84      1.0000 0.78604  0.66810  0.54716  Biso   1.000  N
  C211     1.0000 0.32950  0.11840  0.54590  Biso   1.000  C
  H169     1.0000 0.34310  0.09390  0.53820  Biso   1.000  H
  C212     1.0000 0.29970  0.13670  0.52400  Biso   1.000  C
  H170     1.0000 0.29030  0.12910  0.49750  Biso   1.000  H
  C213     1.0000 0.31001  0.16887  0.58050  Biso   1.000  C
  H171     1.0000 0.30750  0.18840  0.60190  Biso   1.000  H
  C214     1.0000 0.25220  0.19420  0.53870  Biso   1.000  C
  C215     1.0000 0.24437  0.22750  0.56390  Biso   1.000  C
  H172     1.0000 0.26170  0.23310  0.58660  Biso   1.000  H
  N85      1.0000 0.33707  0.13970  0.58019  Biso   1.000  N
  N86      1.0000 0.28604  0.16810  0.54716  Biso   1.000  N
  C216     1.0000 0.32950  0.61840  0.04590  Biso   1.000  C
  H173     1.0000 0.34310  0.59390  0.03820  Biso   1.000  H
  C217     1.0000 0.29970  0.63670  0.02400  Biso   1.000  C
  H174     1.0000 0.29030  0.62910  0.99750  Biso   1.000  H
  C218     1.0000 0.31001  0.66887  0.08050  Biso   1.000  C
  H175     1.0000 0.30750  0.68840  0.10190  Biso   1.000  H
  C219     1.0000 0.25220  0.69420  0.03870  Biso   1.000  C
  C220     1.0000 0.24437  0.72750  0.06390  Biso   1.000  C
  H176     1.0000 0.26170  0.73310  0.08660  Biso   1.000  H
  N87      1.0000 0.33707  0.63970  0.08019  Biso   1.000  N
  N88      1.0000 0.28604  0.66810  0.04716  Biso   1.000  N
  C221     1.0000 0.92050  0.61840  0.20410  Biso   1.000  C
  H177     1.0000 0.90690  0.59390  0.21180  Biso   1.000  H
  C222     1.0000 0.95030  0.63670  0.22600  Biso   1.000  C
  H178     1.0000 0.95970  0.62910  0.25250  Biso   1.000  H
  C223     1.0000 0.93999  0.66887  0.16950  Biso   1.000  C
  H179     1.0000 0.94250  0.68840  0.14810  Biso   1.000  H
  C224     1.0000 0.99780  0.69420  0.21130  Biso   1.000  C
  C225     1.0000 0.00563  0.72750  0.18610  Biso   1.000  C
  H180     1.0000 0.98830  0.73310  0.16340  Biso   1.000  H
  N89      1.0000 0.91293  0.63970  0.16981  Biso   1.000  N
  N90      1.0000 0.96396  0.66810  0.20284  Biso   1.000  N
  C226     1.0000 0.92050  0.11840  0.70410  Biso   1.000  C
  H181     1.0000 0.90690  0.09390  0.71180  Biso   1.000  H
  C227     1.0000 0.95030  0.13670  0.72600  Biso   1.000  C
  H182     1.0000 0.95970  0.12910  0.75250  Biso   1.000  H
  C228     1.0000 0.93999  0.16887  0.66950  Biso   1.000  C
  H183     1.0000 0.94250  0.18840  0.64810  Biso   1.000  H
  C229     1.0000 0.99780  0.19420  0.71130  Biso   1.000  C
  C230     1.0000 0.00563  0.22750  0.68610  Biso   1.000  C
  H184     1.0000 0.98830  0.23310  0.66340  Biso   1.000  H
  N91      1.0000 0.91293  0.13970  0.66981  Biso   1.000  N
  N92      1.0000 0.96396  0.16810  0.70284  Biso   1.000  N
  C231     1.0000 0.42050  0.61840  0.70410  Biso   1.000  C
  H185     1.0000 0.40690  0.59390  0.71180  Biso   1.000  H
  C232     1.0000 0.45030  0.63670  0.72600  Biso   1.000  C
  H186     1.0000 0.45970  0.62910  0.75250  Biso   1.000  H
  C233     1.0000 0.43999  0.66887  0.66950  Biso   1.000  C
  H187     1.0000 0.44250  0.68840  0.64810  Biso   1.000  H
  C234     1.0000 0.49780  0.69420  0.71130  Biso   1.000  C
  C235     1.0000 0.50563  0.72750  0.68610  Biso   1.000  C
  H188     1.0000 0.48830  0.73310  0.66340  Biso   1.000  H
  N93      1.0000 0.41293  0.63970  0.66981  Biso   1.000  N
  N94      1.0000 0.46396  0.66810  0.70284  Biso   1.000  N
  C236     1.0000 0.42050  0.11840  0.20410  Biso   1.000  C
  H189     1.0000 0.40690  0.09390  0.21180  Biso   1.000  H
  C237     1.0000 0.45030  0.13670  0.22600  Biso   1.000  C
  H190     1.0000 0.45970  0.12910  0.25250  Biso   1.000  H
  C238     1.0000 0.43999  0.16887  0.16950  Biso   1.000  C
  H191     1.0000 0.44250  0.18840  0.14810  Biso   1.000  H
  C239     1.0000 0.49780  0.19420  0.21130  Biso   1.000  C
  C240     1.0000 0.50563  0.22750  0.18610  Biso   1.000  C
  H192     1.0000 0.48830  0.23310  0.16340  Biso   1.000  H
  N95      1.0000 0.41293  0.13970  0.16981  Biso   1.000  N
  N96      1.0000 0.46396  0.16810  0.20284  Biso   1.000  N
  C241     1.0000 0.92050  0.04590  0.13160  Biso   1.000  C
  H193     1.0000 0.90690  0.03820  0.15610  Biso   1.000  H
  C242     1.0000 0.95030  0.02400  0.11330  Biso   1.000  C
  H194     1.0000 0.95970  0.99750  0.12090  Biso   1.000  H
  C243     1.0000 0.93999  0.08050  0.08113  Biso   1.000  C
  H195     1.0000 0.94250  0.10190  0.06160  Biso   1.000  H
  C244     1.0000 0.99780  0.03870  0.05580  Biso   1.000  C
  C245     1.0000 0.00563  0.06390  0.02250  Biso   1.000  C
  H196     1.0000 0.98830  0.08660  0.01690  Biso   1.000  H
  N97      1.0000 0.91293  0.08019  0.11030  Biso   1.000  N
  N98      1.0000 0.96396  0.04716  0.08190  Biso   1.000  N
  C246     1.0000 0.92050  0.54590  0.63160  Biso   1.000  C
  H197     1.0000 0.90690  0.53820  0.65610  Biso   1.000  H
  C247     1.0000 0.95030  0.52400  0.61330  Biso   1.000  C
  H198     1.0000 0.95970  0.49750  0.62090  Biso   1.000  H
  C248     1.0000 0.93999  0.58050  0.58113  Biso   1.000  C
  H199     1.0000 0.94250  0.60190  0.56160  Biso   1.000  H
  C249     1.0000 0.99780  0.53870  0.55580  Biso   1.000  C
  C250     1.0000 0.00563  0.56390  0.52250  Biso   1.000  C
  H200     1.0000 0.98830  0.58660  0.51690  Biso   1.000  H
  N99      1.0000 0.91293  0.58019  0.61030  Biso   1.000  N
  N100     1.0000 0.96396  0.54716  0.58190  Biso   1.000  N
  C251     1.0000 0.42050  0.04590  0.63160  Biso   1.000  C
  H201     1.0000 0.40690  0.03820  0.65610  Biso   1.000  H
  C252     1.0000 0.45030  0.02400  0.61330  Biso   1.000  C
  H202     1.0000 0.45970  0.99750  0.62090  Biso   1.000  H
  C253     1.0000 0.43999  0.08050  0.58113  Biso   1.000  C
  H203     1.0000 0.44250  0.10190  0.56160  Biso   1.000  H
  C254     1.0000 0.49780  0.03870  0.55580  Biso   1.000  C
  C255     1.0000 0.50563  0.06390  0.52250  Biso   1.000  C
  H204     1.0000 0.48830  0.08660  0.51690  Biso   1.000  H
  N101     1.0000 0.41293  0.08019  0.61030  Biso   1.000  N
  N102     1.0000 0.46396  0.04716  0.58190  Biso   1.000  N
  C256     1.0000 0.42050  0.54590  0.13160  Biso   1.000  C
  H205     1.0000 0.40690  0.53820  0.15610  Biso   1.000  H
  C257     1.0000 0.45030  0.52400  0.11330  Biso   1.000  C
  H206     1.0000 0.45970  0.49750  0.12090  Biso   1.000  H
  C258     1.0000 0.43999  0.58050  0.08113  Biso   1.000  C
  H207     1.0000 0.44250  0.60190  0.06160  Biso   1.000  H
  C259     1.0000 0.49780  0.53870  0.05580  Biso   1.000  C
  C260     1.0000 0.50563  0.56390  0.02250  Biso   1.000  C
  H208     1.0000 0.48830  0.58660  0.01690  Biso   1.000  H
  N103     1.0000 0.41293  0.58019  0.11030  Biso   1.000  N
  N104     1.0000 0.46396  0.54716  0.08190  Biso   1.000  N
  C261     1.0000 0.82950  0.20410  0.63160  Biso   1.000  C
  H209     1.0000 0.84310  0.21180  0.65610  Biso   1.000  H
  C262     1.0000 0.79970  0.22600  0.61330  Biso   1.000  C
  H210     1.0000 0.79030  0.25250  0.62090  Biso   1.000  H
  C263     1.0000 0.81001  0.16950  0.58113  Biso   1.000  C
  H211     1.0000 0.80750  0.14810  0.56160  Biso   1.000  H
  C264     1.0000 0.75220  0.21130  0.55580  Biso   1.000  C
  C265     1.0000 0.74437  0.18610  0.52250  Biso   1.000  C
  H212     1.0000 0.76170  0.16340  0.51690  Biso   1.000  H
  N105     1.0000 0.83707  0.16981  0.61030  Biso   1.000  N
  N106     1.0000 0.78604  0.20284  0.58190  Biso   1.000  N
  C266     1.0000 0.82950  0.70410  0.13160  Biso   1.000  C
  H213     1.0000 0.84310  0.71180  0.15610  Biso   1.000  H
  C267     1.0000 0.79970  0.72600  0.11330  Biso   1.000  C
  H214     1.0000 0.79030  0.75250  0.12090  Biso   1.000  H
  C268     1.0000 0.81001  0.66950  0.08113  Biso   1.000  C
  H215     1.0000 0.80750  0.64810  0.06160  Biso   1.000  H
  C269     1.0000 0.75220  0.71130  0.05580  Biso   1.000  C
  C270     1.0000 0.74437  0.68610  0.02250  Biso   1.000  C
  H216     1.0000 0.76170  0.66340  0.01690  Biso   1.000  H
  N107     1.0000 0.83707  0.66981  0.11030  Biso   1.000  N
  N108     1.0000 0.78604  0.70284  0.08190  Biso   1.000  N
  C271     1.0000 0.32950  0.20410  0.13160  Biso   1.000  C
  H217     1.0000 0.34310  0.21180  0.15610  Biso   1.000  H
  C272     1.0000 0.29970  0.22600  0.11330  Biso   1.000  C
  H218     1.0000 0.29030  0.25250  0.12090  Biso   1.000  H
  C273     1.0000 0.31001  0.16950  0.08113  Biso   1.000  C
  H219     1.0000 0.30750  0.14810  0.06160  Biso   1.000  H
  C274     1.0000 0.25220  0.21130  0.05580  Biso   1.000  C
  C275     1.0000 0.24437  0.18610  0.02250  Biso   1.000  C
  H220     1.0000 0.26170  0.16340  0.01690  Biso   1.000  H
  N109     1.0000 0.33707  0.16981  0.11030  Biso   1.000  N
  N110     1.0000 0.28604  0.20284  0.08190  Biso   1.000  N
  C276     1.0000 0.32950  0.70410  0.63160  Biso   1.000  C
  H221     1.0000 0.34310  0.71180  0.65610  Biso   1.000  H
  C277     1.0000 0.29970  0.72600  0.61330  Biso   1.000  C
  H222     1.0000 0.29030  0.75250  0.62090  Biso   1.000  H
  C278     1.0000 0.31001  0.66950  0.58113  Biso   1.000  C
  H223     1.0000 0.30750  0.64810  0.56160  Biso   1.000  H
  C279     1.0000 0.25220  0.71130  0.55580  Biso   1.000  C
  C280     1.0000 0.24437  0.68610  0.52250  Biso   1.000  C
  H224     1.0000 0.26170  0.66340  0.51690  Biso   1.000  H
  N111     1.0000 0.33707  0.66981  0.61030  Biso   1.000  N
  N112     1.0000 0.28604  0.70284  0.58190  Biso   1.000  N
  C281     1.0000 0.42050  0.70410  0.11840  Biso   1.000  C
  H225     1.0000 0.40690  0.71180  0.09390  Biso   1.000  H
  C282     1.0000 0.45030  0.72600  0.13670  Biso   1.000  C
  H226     1.0000 0.45970  0.75250  0.12910  Biso   1.000  H
  C283     1.0000 0.43999  0.66950  0.16887  Biso   1.000  C
  H227     1.0000 0.44250  0.64810  0.18840  Biso   1.000  H
  C284     1.0000 0.49780  0.71130  0.19420  Biso   1.000  C
  C285     1.0000 0.50563  0.68610  0.22750  Biso   1.000  C
  H228     1.0000 0.48830  0.66340  0.23310  Biso   1.000  H
  N113     1.0000 0.41293  0.66981  0.13970  Biso   1.000  N
  N114     1.0000 0.46396  0.70284  0.16810  Biso   1.000  N
  C286     1.0000 0.42050  0.20410  0.61840  Biso   1.000  C
  H229     1.0000 0.40690  0.21180  0.59390  Biso   1.000  H
  C287     1.0000 0.45030  0.22600  0.63670  Biso   1.000  C
  H230     1.0000 0.45970  0.25250  0.62910  Biso   1.000  H
  C288     1.0000 0.43999  0.16950  0.66887  Biso   1.000  C
  H231     1.0000 0.44250  0.14810  0.68840  Biso   1.000  H
  C289     1.0000 0.49780  0.21130  0.69420  Biso   1.000  C
  C290     1.0000 0.50563  0.18610  0.72750  Biso   1.000  C
  H232     1.0000 0.48830  0.16340  0.73310  Biso   1.000  H
  N115     1.0000 0.41293  0.16981  0.63970  Biso   1.000  N
  N116     1.0000 0.46396  0.20284  0.66810  Biso   1.000  N
  C291     1.0000 0.92050  0.70410  0.61840  Biso   1.000  C
  H233     1.0000 0.90690  0.71180  0.59390  Biso   1.000  H
  C292     1.0000 0.95030  0.72600  0.63670  Biso   1.000  C
  H234     1.0000 0.95970  0.75250  0.62910  Biso   1.000  H
  C293     1.0000 0.93999  0.66950  0.66887  Biso   1.000  C
  H235     1.0000 0.94250  0.64810  0.68840  Biso   1.000  H
  C294     1.0000 0.99780  0.71130  0.69420  Biso   1.000  C
  C295     1.0000 0.00563  0.68610  0.72750  Biso   1.000  C
  H236     1.0000 0.98830  0.66340  0.73310  Biso   1.000  H
  N117     1.0000 0.91293  0.66981  0.63970  Biso   1.000  N
  N118     1.0000 0.96396  0.70284  0.66810  Biso   1.000  N
  C296     1.0000 0.92050  0.20410  0.11840  Biso   1.000  C
  H237     1.0000 0.90690  0.21180  0.09390  Biso   1.000  H
  C297     1.0000 0.95030  0.22600  0.13670  Biso   1.000  C
  H238     1.0000 0.95970  0.25250  0.12910  Biso   1.000  H
  C298     1.0000 0.93999  0.16950  0.16887  Biso   1.000  C
  H239     1.0000 0.94250  0.14810  0.18840  Biso   1.000  H
  C299     1.0000 0.99780  0.21130  0.19420  Biso   1.000  C
  C300     1.0000 0.00563  0.18610  0.22750  Biso   1.000  C
  H240     1.0000 0.98830  0.16340  0.23310  Biso   1.000  H
  N119     1.0000 0.91293  0.16981  0.13970  Biso   1.000  N
  N120     1.0000 0.96396  0.20284  0.16810  Biso   1.000  N
  C301     1.0000 0.32950  0.54590  0.61840  Biso   1.000  C
  H241     1.0000 0.34310  0.53820  0.59390  Biso   1.000  H
  C302     1.0000 0.29970  0.52400  0.63670  Biso   1.000  C
  H242     1.0000 0.29030  0.49750  0.62910  Biso   1.000  H
  C303     1.0000 0.31001  0.58050  0.66887  Biso   1.000  C
  H243     1.0000 0.30750  0.60190  0.68840  Biso   1.000  H
  C304     1.0000 0.25220  0.53870  0.69420  Biso   1.000  C
  C305     1.0000 0.24437  0.56390  0.72750  Biso   1.000  C
  H244     1.0000 0.26170  0.58660  0.73310  Biso   1.000  H
  N121     1.0000 0.33707  0.58019  0.63970  Biso   1.000  N
  N122     1.0000 0.28604  0.54716  0.66810  Biso   1.000  N
  C306     1.0000 0.32950  0.04590  0.11840  Biso   1.000  C
  H245     1.0000 0.34310  0.03820  0.09390  Biso   1.000  H
  C307     1.0000 0.29970  0.02400  0.13670  Biso   1.000  C
  H246     1.0000 0.29030  0.99750  0.12910  Biso   1.000  H
  C308     1.0000 0.31001  0.08050  0.16887  Biso   1.000  C
  H247     1.0000 0.30750  0.10190  0.18840  Biso   1.000  H
  C309     1.0000 0.25220  0.03870  0.19420  Biso   1.000  C
  C310     1.0000 0.24437  0.06390  0.22750  Biso   1.000  C
  H248     1.0000 0.26170  0.08660  0.23310  Biso   1.000  H
  N123     1.0000 0.33707  0.08019  0.13970  Biso   1.000  N
  N124     1.0000 0.28604  0.04716  0.16810  Biso   1.000  N
  C311     1.0000 0.82950  0.54590  0.11840  Biso   1.000  C
  H249     1.0000 0.84310  0.53820  0.09390  Biso   1.000  H
  C312     1.0000 0.79970  0.52400  0.13670  Biso   1.000  C
  H250     1.0000 0.79030  0.49750  0.12910  Biso   1.000  H
  C313     1.0000 0.81001  0.58050  0.16887  Biso   1.000  C
  H251     1.0000 0.80750  0.60190  0.18840  Biso   1.000  H
  C314     1.0000 0.75220  0.53870  0.19420  Biso   1.000  C
  C315     1.0000 0.74437  0.56390  0.22750  Biso   1.000  C
  H252     1.0000 0.76170  0.58660  0.23310  Biso   1.000  H
  N125     1.0000 0.83707  0.58019  0.13970  Biso   1.000  N
  N126     1.0000 0.78604  0.54716  0.16810  Biso   1.000  N
  C316     1.0000 0.82950  0.04590  0.61840  Biso   1.000  C
  H253     1.0000 0.84310  0.03820  0.59390  Biso   1.000  H
  C317     1.0000 0.79970  0.02400  0.63670  Biso   1.000  C
  H254     1.0000 0.79030  0.99750  0.62910  Biso   1.000  H
  C318     1.0000 0.81001  0.08050  0.66887  Biso   1.000  C
  H255     1.0000 0.80750  0.10190  0.68840  Biso   1.000  H
  C319     1.0000 0.75220  0.03870  0.69420  Biso   1.000  C
  C320     1.0000 0.74437  0.06390  0.72750  Biso   1.000  C
  H256     1.0000 0.76170  0.08660  0.73310  Biso   1.000  H
  N127     1.0000 0.83707  0.08019  0.63970  Biso   1.000  N
  N128     1.0000 0.78604  0.04716  0.66810  Biso   1.000  N
  C321     1.0000 0.54590  0.61840  0.32950  Biso   1.000  C
  H257     1.0000 0.53820  0.59390  0.34310  Biso   1.000  H
  C322     1.0000 0.52400  0.63670  0.29970  Biso   1.000  C
  H258     1.0000 0.49750  0.62910  0.29030  Biso   1.000  H
  C323     1.0000 0.58050  0.66887  0.31001  Biso   1.000  C
  H259     1.0000 0.60190  0.68840  0.30750  Biso   1.000  H
  C324     1.0000 0.53870  0.69420  0.25220  Biso   1.000  C
  C325     1.0000 0.56390  0.72750  0.24437  Biso   1.000  C
  H260     1.0000 0.58660  0.73310  0.26170  Biso   1.000  H
  N129     1.0000 0.58019  0.63970  0.33707  Biso   1.000  N
  N130     1.0000 0.54716  0.66810  0.28604  Biso   1.000  N
  C326     1.0000 0.54590  0.11840  0.82950  Biso   1.000  C
  H261     1.0000 0.53820  0.09390  0.84310  Biso   1.000  H
  C327     1.0000 0.52400  0.13670  0.79970  Biso   1.000  C
  H262     1.0000 0.49750  0.12910  0.79030  Biso   1.000  H
  C328     1.0000 0.58050  0.16887  0.81001  Biso   1.000  C
  H263     1.0000 0.60190  0.18840  0.80750  Biso   1.000  H
  C329     1.0000 0.53870  0.19420  0.75220  Biso   1.000  C
  C330     1.0000 0.56390  0.22750  0.74437  Biso   1.000  C
  H264     1.0000 0.58660  0.23310  0.76170  Biso   1.000  H
  N131     1.0000 0.58019  0.13970  0.83707  Biso   1.000  N
  N132     1.0000 0.54716  0.16810  0.78604  Biso   1.000  N
  C331     1.0000 0.04590  0.61840  0.82950  Biso   1.000  C
  H265     1.0000 0.03820  0.59390  0.84310  Biso   1.000  H
  C332     1.0000 0.02400  0.63670  0.79970  Biso   1.000  C
  H266     1.0000 0.99750  0.62910  0.79030  Biso   1.000  H
  C333     1.0000 0.08050  0.66887  0.81001  Biso   1.000  C
  H267     1.0000 0.10190  0.68840  0.80750  Biso   1.000  H
  C334     1.0000 0.03870  0.69420  0.75220  Biso   1.000  C
  C335     1.0000 0.06390  0.72750  0.74437  Biso   1.000  C
  H268     1.0000 0.08660  0.73310  0.76170  Biso   1.000  H
  N133     1.0000 0.08019  0.63970  0.83707  Biso   1.000  N
  N134     1.0000 0.04716  0.66810  0.78604  Biso   1.000  N
  C336     1.0000 0.04590  0.11840  0.32950  Biso   1.000  C
  H269     1.0000 0.03820  0.09390  0.34310  Biso   1.000  H
  C337     1.0000 0.02400  0.13670  0.29970  Biso   1.000  C
  H270     1.0000 0.99750  0.12910  0.29030  Biso   1.000  H
  C338     1.0000 0.08050  0.16887  0.31001  Biso   1.000  C
  H271     1.0000 0.10190  0.18840  0.30750  Biso   1.000  H
  C339     1.0000 0.03870  0.19420  0.25220  Biso   1.000  C
  C340     1.0000 0.06390  0.22750  0.24437  Biso   1.000  C
  H272     1.0000 0.08660  0.23310  0.26170  Biso   1.000  H
  N135     1.0000 0.08019  0.13970  0.33707  Biso   1.000  N
  N136     1.0000 0.04716  0.16810  0.28604  Biso   1.000  N
  C341     1.0000 0.70410  0.11840  0.42050  Biso   1.000  C
  H273     1.0000 0.71180  0.09390  0.40690  Biso   1.000  H
  C342     1.0000 0.72600  0.13670  0.45030  Biso   1.000  C
  H274     1.0000 0.75250  0.12910  0.45970  Biso   1.000  H
  C343     1.0000 0.66950  0.16887  0.43999  Biso   1.000  C
  H275     1.0000 0.64810  0.18840  0.44250  Biso   1.000  H
  C344     1.0000 0.71130  0.19420  0.49780  Biso   1.000  C
  C345     1.0000 0.68610  0.22750  0.50563  Biso   1.000  C
  H276     1.0000 0.66340  0.23310  0.48830  Biso   1.000  H
  N137     1.0000 0.66981  0.13970  0.41293  Biso   1.000  N
  N138     1.0000 0.70284  0.16810  0.46396  Biso   1.000  N
  C346     1.0000 0.70410  0.61840  0.92050  Biso   1.000  C
  H277     1.0000 0.71180  0.59390  0.90690  Biso   1.000  H
  C347     1.0000 0.72600  0.63670  0.95030  Biso   1.000  C
  H278     1.0000 0.75250  0.62910  0.95970  Biso   1.000  H
  C348     1.0000 0.66950  0.66887  0.93999  Biso   1.000  C
  H279     1.0000 0.64810  0.68840  0.94250  Biso   1.000  H
  C349     1.0000 0.71130  0.69420  0.99780  Biso   1.000  C
  C350     1.0000 0.68610  0.72750  0.00563  Biso   1.000  C
  H280     1.0000 0.66340  0.73310  0.98830  Biso   1.000  H
  N139     1.0000 0.66981  0.63970  0.91293  Biso   1.000  N
  N140     1.0000 0.70284  0.66810  0.96396  Biso   1.000  N
  C351     1.0000 0.20410  0.11840  0.92050  Biso   1.000  C
  H281     1.0000 0.21180  0.09390  0.90690  Biso   1.000  H
  C352     1.0000 0.22600  0.13670  0.95030  Biso   1.000  C
  H282     1.0000 0.25250  0.12910  0.95970  Biso   1.000  H
  C353     1.0000 0.16950  0.16887  0.93999  Biso   1.000  C
  H283     1.0000 0.14810  0.18840  0.94250  Biso   1.000  H
  C354     1.0000 0.21130  0.19420  0.99780  Biso   1.000  C
  C355     1.0000 0.18610  0.22750  0.00563  Biso   1.000  C
  H284     1.0000 0.16340  0.23310  0.98830  Biso   1.000  H
  N141     1.0000 0.16981  0.13970  0.91293  Biso   1.000  N
  N142     1.0000 0.20284  0.16810  0.96396  Biso   1.000  N
  C356     1.0000 0.20410  0.61840  0.42050  Biso   1.000  C
  H285     1.0000 0.21180  0.59390  0.40690  Biso   1.000  H
  C357     1.0000 0.22600  0.63670  0.45030  Biso   1.000  C
  H286     1.0000 0.25250  0.62910  0.45970  Biso   1.000  H
  C358     1.0000 0.16950  0.66887  0.43999  Biso   1.000  C
  H287     1.0000 0.14810  0.68840  0.44250  Biso   1.000  H
  C359     1.0000 0.21130  0.69420  0.49780  Biso   1.000  C
  C360     1.0000 0.18610  0.72750  0.50563  Biso   1.000  C
  H288     1.0000 0.16340  0.73310  0.48830  Biso   1.000  H
  N143     1.0000 0.16981  0.63970  0.41293  Biso   1.000  N
  N144     1.0000 0.20284  0.66810  0.46396  Biso   1.000  N
  C361     1.0000 0.20410  0.63160  0.82950  Biso   1.000  C
  H289     1.0000 0.21180  0.65610  0.84310  Biso   1.000  H
  C362     1.0000 0.22600  0.61330  0.79970  Biso   1.000  C
  H290     1.0000 0.25250  0.62090  0.79030  Biso   1.000  H
  C363     1.0000 0.16950  0.58113  0.81001  Biso   1.000  C
  H291     1.0000 0.14810  0.56160  0.80750  Biso   1.000  H
  C364     1.0000 0.21130  0.55580  0.75220  Biso   1.000  C
  C365     1.0000 0.18610  0.52250  0.74437  Biso   1.000  C
  H292     1.0000 0.16340  0.51690  0.76170  Biso   1.000  H
  N145     1.0000 0.16981  0.61030  0.83707  Biso   1.000  N
  N146     1.0000 0.20284  0.58190  0.78604  Biso   1.000  N
  C366     1.0000 0.20410  0.13160  0.32950  Biso   1.000  C
  H293     1.0000 0.21180  0.15610  0.34310  Biso   1.000  H
  C367     1.0000 0.22600  0.11330  0.29970  Biso   1.000  C
  H294     1.0000 0.25250  0.12090  0.29030  Biso   1.000  H
  C368     1.0000 0.16950  0.08113  0.31001  Biso   1.000  C
  H295     1.0000 0.14810  0.06160  0.30750  Biso   1.000  H
  C369     1.0000 0.21130  0.05580  0.25220  Biso   1.000  C
  C370     1.0000 0.18610  0.02250  0.24437  Biso   1.000  C
  H296     1.0000 0.16340  0.01690  0.26170  Biso   1.000  H
  N147     1.0000 0.16981  0.11030  0.33707  Biso   1.000  N
  N148     1.0000 0.20284  0.08190  0.28604  Biso   1.000  N
  C371     1.0000 0.70410  0.63160  0.32950  Biso   1.000  C
  H297     1.0000 0.71180  0.65610  0.34310  Biso   1.000  H
  C372     1.0000 0.72600  0.61330  0.29970  Biso   1.000  C
  H298     1.0000 0.75250  0.62090  0.29030  Biso   1.000  H
  C373     1.0000 0.66950  0.58113  0.31001  Biso   1.000  C
  H299     1.0000 0.64810  0.56160  0.30750  Biso   1.000  H
  C374     1.0000 0.71130  0.55580  0.25220  Biso   1.000  C
  C375     1.0000 0.68610  0.52250  0.24437  Biso   1.000  C
  H300     1.0000 0.66340  0.51690  0.26170  Biso   1.000  H
  N149     1.0000 0.66981  0.61030  0.33707  Biso   1.000  N
  N150     1.0000 0.70284  0.58190  0.28604  Biso   1.000  N
  C376     1.0000 0.70410  0.13160  0.82950  Biso   1.000  C
  H301     1.0000 0.71180  0.15610  0.84310  Biso   1.000  H
  C377     1.0000 0.72600  0.11330  0.79970  Biso   1.000  C
  H302     1.0000 0.75250  0.12090  0.79030  Biso   1.000  H
  C378     1.0000 0.66950  0.08113  0.81001  Biso   1.000  C
  H303     1.0000 0.64810  0.06160  0.80750  Biso   1.000  H
  C379     1.0000 0.71130  0.05580  0.75220  Biso   1.000  C
  C380     1.0000 0.68610  0.02250  0.74437  Biso   1.000  C
  H304     1.0000 0.66340  0.01690  0.76170  Biso   1.000  H
  N151     1.0000 0.66981  0.11030  0.83707  Biso   1.000  N
  N152     1.0000 0.70284  0.08190  0.78604  Biso   1.000  N
  C381     1.0000 0.04590  0.13160  0.92050  Biso   1.000  C
  H305     1.0000 0.03820  0.15610  0.90690  Biso   1.000  H
  C382     1.0000 0.02400  0.11330  0.95030  Biso   1.000  C
  H306     1.0000 0.99750  0.12090  0.95970  Biso   1.000  H
  C383     1.0000 0.08050  0.08113  0.93999  Biso   1.000  C
  H307     1.0000 0.10190  0.06160  0.94250  Biso   1.000  H
  C384     1.0000 0.03870  0.05580  0.99780  Biso   1.000  C
  C385     1.0000 0.06390  0.02250  0.00563  Biso   1.000  C
  H308     1.0000 0.08660  0.01690  0.98830  Biso   1.000  H
  N153     1.0000 0.08019  0.11030  0.91293  Biso   1.000  N
  N154     1.0000 0.04716  0.08190  0.96396  Biso   1.000  N
  C386     1.0000 0.04590  0.63160  0.42050  Biso   1.000  C
  H309     1.0000 0.03820  0.65610  0.40690  Biso   1.000  H
  C387     1.0000 0.02400  0.61330  0.45030  Biso   1.000  C
  H310     1.0000 0.99750  0.62090  0.45970  Biso   1.000  H
  C388     1.0000 0.08050  0.58113  0.43999  Biso   1.000  C
  H311     1.0000 0.10190  0.56160  0.44250  Biso   1.000  H
  C389     1.0000 0.03870  0.55580  0.49780  Biso   1.000  C
  C390     1.0000 0.06390  0.52250  0.50563  Biso   1.000  C
  H312     1.0000 0.08660  0.51690  0.48830  Biso   1.000  H
  N155     1.0000 0.08019  0.61030  0.41293  Biso   1.000  N
  N156     1.0000 0.04716  0.58190  0.46396  Biso   1.000  N
  C391     1.0000 0.54590  0.13160  0.42050  Biso   1.000  C
  H313     1.0000 0.53820  0.15610  0.40690  Biso   1.000  H
  C392     1.0000 0.52400  0.11330  0.45030  Biso   1.000  C
  H314     1.0000 0.49750  0.12090  0.45970  Biso   1.000  H
  C393     1.0000 0.58050  0.08113  0.43999  Biso   1.000  C
  H315     1.0000 0.60190  0.06160  0.44250  Biso   1.000  H
  C394     1.0000 0.53870  0.05580  0.49780  Biso   1.000  C
  C395     1.0000 0.56390  0.02250  0.50563  Biso   1.000  C
  H316     1.0000 0.58660  0.01690  0.48830  Biso   1.000  H
  N157     1.0000 0.58019  0.11030  0.41293  Biso   1.000  N
  N158     1.0000 0.54716  0.08190  0.46396  Biso   1.000  N
  C396     1.0000 0.54590  0.63160  0.92050  Biso   1.000  C
  H317     1.0000 0.53820  0.65610  0.90690  Biso   1.000  H
  C397     1.0000 0.52400  0.61330  0.95030  Biso   1.000  C
  H318     1.0000 0.49750  0.62090  0.95970  Biso   1.000  H
  C398     1.0000 0.58050  0.58113  0.93999  Biso   1.000  C
  H319     1.0000 0.60190  0.56160  0.94250  Biso   1.000  H
  C399     1.0000 0.53870  0.55580  0.99780  Biso   1.000  C
  C400     1.0000 0.56390  0.52250  0.00563  Biso   1.000  C
  H320     1.0000 0.58660  0.51690  0.98830  Biso   1.000  H
  N159     1.0000 0.58019  0.61030  0.91293  Biso   1.000  N
  N160     1.0000 0.54716  0.58190  0.96396  Biso   1.000  N
  C401     1.0000 0.11840  0.42050  0.70410  Biso   1.000  C
  H321     1.0000 0.09390  0.40690  0.71180  Biso   1.000  H
  C402     1.0000 0.13670  0.45030  0.72600  Biso   1.000  C
  H322     1.0000 0.12910  0.45970  0.75250  Biso   1.000  H
  C403     1.0000 0.16887  0.43999  0.66950  Biso   1.000  C
  H323     1.0000 0.18840  0.44250  0.64810  Biso   1.000  H
  C404     1.0000 0.19420  0.49780  0.71130  Biso   1.000  C
  C405     1.0000 0.22750  0.50563  0.68610  Biso   1.000  C
  H324     1.0000 0.23310  0.48830  0.66340  Biso   1.000  H
  N161     1.0000 0.13970  0.41293  0.66981  Biso   1.000  N
  N162     1.0000 0.16810  0.46396  0.70284  Biso   1.000  N
  C406     1.0000 0.11840  0.92050  0.20410  Biso   1.000  C
  H325     1.0000 0.09390  0.90690  0.21180  Biso   1.000  H
  C407     1.0000 0.13670  0.95030  0.22600  Biso   1.000  C
  H326     1.0000 0.12910  0.95970  0.25250  Biso   1.000  H
  C408     1.0000 0.16887  0.93999  0.16950  Biso   1.000  C
  H327     1.0000 0.18840  0.94250  0.14810  Biso   1.000  H
  C409     1.0000 0.19420  0.99780  0.21130  Biso   1.000  C
  C410     1.0000 0.22750  0.00563  0.18610  Biso   1.000  C
  H328     1.0000 0.23310  0.98830  0.16340  Biso   1.000  H
  N163     1.0000 0.13970  0.91293  0.16981  Biso   1.000  N
  N164     1.0000 0.16810  0.96396  0.20284  Biso   1.000  N
  C411     1.0000 0.61840  0.42050  0.20410  Biso   1.000  C
  H329     1.0000 0.59390  0.40690  0.21180  Biso   1.000  H
  C412     1.0000 0.63670  0.45030  0.22600  Biso   1.000  C
  H330     1.0000 0.62910  0.45970  0.25250  Biso   1.000  H
  C413     1.0000 0.66887  0.43999  0.16950  Biso   1.000  C
  H331     1.0000 0.68840  0.44250  0.14810  Biso   1.000  H
  C414     1.0000 0.69420  0.49780  0.21130  Biso   1.000  C
  C415     1.0000 0.72750  0.50563  0.18610  Biso   1.000  C
  H332     1.0000 0.73310  0.48830  0.16340  Biso   1.000  H
  N165     1.0000 0.63970  0.41293  0.16981  Biso   1.000  N
  N166     1.0000 0.66810  0.46396  0.20284  Biso   1.000  N
  C416     1.0000 0.61840  0.92050  0.70410  Biso   1.000  C
  H333     1.0000 0.59390  0.90690  0.71180  Biso   1.000  H
  C417     1.0000 0.63670  0.95030  0.72600  Biso   1.000  C
  H334     1.0000 0.62910  0.95970  0.75250  Biso   1.000  H
  C418     1.0000 0.66887  0.93999  0.66950  Biso   1.000  C
  H335     1.0000 0.68840  0.94250  0.64810  Biso   1.000  H
  C419     1.0000 0.69420  0.99780  0.71130  Biso   1.000  C
  C420     1.0000 0.72750  0.00563  0.68610  Biso   1.000  C
  H336     1.0000 0.73310  0.98830  0.66340  Biso   1.000  H
  N167     1.0000 0.63970  0.91293  0.66981  Biso   1.000  N
  N168     1.0000 0.66810  0.96396  0.70284  Biso   1.000  N
  C421     1.0000 0.61840  0.32950  0.54590  Biso   1.000  C
  H337     1.0000 0.59390  0.34310  0.53820  Biso   1.000  H
  C422     1.0000 0.63670  0.29970  0.52400  Biso   1.000  C
  H338     1.0000 0.62910  0.29030  0.49750  Biso   1.000  H
  C423     1.0000 0.66887  0.31001  0.58050  Biso   1.000  C
  H339     1.0000 0.68840  0.30750  0.60190  Biso   1.000  H
  C424     1.0000 0.69420  0.25220  0.53870  Biso   1.000  C
  C425     1.0000 0.72750  0.24437  0.56390  Biso   1.000  C
  H340     1.0000 0.73310  0.26170  0.58660  Biso   1.000  H
  N169     1.0000 0.63970  0.33707  0.58019  Biso   1.000  N
  N170     1.0000 0.66810  0.28604  0.54716  Biso   1.000  N
  C426     1.0000 0.61840  0.82950  0.04590  Biso   1.000  C
  H341     1.0000 0.59390  0.84310  0.03820  Biso   1.000  H
  C427     1.0000 0.63670  0.79970  0.02400  Biso   1.000  C
  H342     1.0000 0.62910  0.79030  0.99750  Biso   1.000  H
  C428     1.0000 0.66887  0.81001  0.08050  Biso   1.000  C
  H343     1.0000 0.68840  0.80750  0.10190  Biso   1.000  H
  C429     1.0000 0.69420  0.75220  0.03870  Biso   1.000  C
  C430     1.0000 0.72750  0.74437  0.06390  Biso   1.000  C
  H344     1.0000 0.73310  0.76170  0.08660  Biso   1.000  H
  N171     1.0000 0.63970  0.83707  0.08019  Biso   1.000  N
  N172     1.0000 0.66810  0.78604  0.04716  Biso   1.000  N
  C431     1.0000 0.11840  0.32950  0.04590  Biso   1.000  C
  H345     1.0000 0.09390  0.34310  0.03820  Biso   1.000  H
  C432     1.0000 0.13670  0.29970  0.02400  Biso   1.000  C
  H346     1.0000 0.12910  0.29030  0.99750  Biso   1.000  H
  C433     1.0000 0.16887  0.31001  0.08050  Biso   1.000  C
  H347     1.0000 0.18840  0.30750  0.10190  Biso   1.000  H
  C434     1.0000 0.19420  0.25220  0.03870  Biso   1.000  C
  C435     1.0000 0.22750  0.24437  0.06390  Biso   1.000  C
  H348     1.0000 0.23310  0.26170  0.08660  Biso   1.000  H
  N173     1.0000 0.13970  0.33707  0.08019  Biso   1.000  N
  N174     1.0000 0.16810  0.28604  0.04716  Biso   1.000  N
  C436     1.0000 0.11840  0.82950  0.54590  Biso   1.000  C
  H349     1.0000 0.09390  0.84310  0.53820  Biso   1.000  H
  C437     1.0000 0.13670  0.79970  0.52400  Biso   1.000  C
  H350     1.0000 0.12910  0.79030  0.49750  Biso   1.000  H
  C438     1.0000 0.16887  0.81001  0.58050  Biso   1.000  C
  H351     1.0000 0.18840  0.80750  0.60190  Biso   1.000  H
  C439     1.0000 0.19420  0.75220  0.53870  Biso   1.000  C
  C440     1.0000 0.22750  0.74437  0.56390  Biso   1.000  C
  H352     1.0000 0.23310  0.76170  0.58660  Biso   1.000  H
  N175     1.0000 0.13970  0.83707  0.58019  Biso   1.000  N
  N176     1.0000 0.16810  0.78604  0.54716  Biso   1.000  N
  C441     1.0000 0.13160  0.92050  0.04590  Biso   1.000  C
  H353     1.0000 0.15610  0.90690  0.03820  Biso   1.000  H
  C442     1.0000 0.11330  0.95030  0.02400  Biso   1.000  C
  H354     1.0000 0.12090  0.95970  0.99750  Biso   1.000  H
  C443     1.0000 0.08113  0.93999  0.08050  Biso   1.000  C
  H355     1.0000 0.06160  0.94250  0.10190  Biso   1.000  H
  C444     1.0000 0.05580  0.99780  0.03870  Biso   1.000  C
  C445     1.0000 0.02250  0.00563  0.06390  Biso   1.000  C
  H356     1.0000 0.01690  0.98830  0.08660  Biso   1.000  H
  N177     1.0000 0.11030  0.91293  0.08019  Biso   1.000  N
  N178     1.0000 0.08190  0.96396  0.04716  Biso   1.000  N
  C446     1.0000 0.13160  0.42050  0.54590  Biso   1.000  C
  H357     1.0000 0.15610  0.40690  0.53820  Biso   1.000  H
  C447     1.0000 0.11330  0.45030  0.52400  Biso   1.000  C
  H358     1.0000 0.12090  0.45970  0.49750  Biso   1.000  H
  C448     1.0000 0.08113  0.43999  0.58050  Biso   1.000  C
  H359     1.0000 0.06160  0.44250  0.60190  Biso   1.000  H
  C449     1.0000 0.05580  0.49780  0.53870  Biso   1.000  C
  C450     1.0000 0.02250  0.50563  0.56390  Biso   1.000  C
  H360     1.0000 0.01690  0.48830  0.58660  Biso   1.000  H
  N179     1.0000 0.11030  0.41293  0.58019  Biso   1.000  N
  N180     1.0000 0.08190  0.46396  0.54716  Biso   1.000  N
  C451     1.0000 0.63160  0.92050  0.54590  Biso   1.000  C
  H361     1.0000 0.65610  0.90690  0.53820  Biso   1.000  H
  C452     1.0000 0.61330  0.95030  0.52400  Biso   1.000  C
  H362     1.0000 0.62090  0.95970  0.49750  Biso   1.000  H
  C453     1.0000 0.58113  0.93999  0.58050  Biso   1.000  C
  H363     1.0000 0.56160  0.94250  0.60190  Biso   1.000  H
  C454     1.0000 0.55580  0.99780  0.53870  Biso   1.000  C
  C455     1.0000 0.52250  0.00563  0.56390  Biso   1.000  C
  H364     1.0000 0.51690  0.98830  0.58660  Biso   1.000  H
  N181     1.0000 0.61030  0.91293  0.58019  Biso   1.000  N
  N182     1.0000 0.58190  0.96396  0.54716  Biso   1.000  N
  C456     1.0000 0.63160  0.42050  0.04590  Biso   1.000  C
  H365     1.0000 0.65610  0.40690  0.03820  Biso   1.000  H
  C457     1.0000 0.61330  0.45030  0.02400  Biso   1.000  C
  H366     1.0000 0.62090  0.45970  0.99750  Biso   1.000  H
  C458     1.0000 0.58113  0.43999  0.08050  Biso   1.000  C
  H367     1.0000 0.56160  0.44250  0.10190  Biso   1.000  H
  C459     1.0000 0.55580  0.49780  0.03870  Biso   1.000  C
  C460     1.0000 0.52250  0.50563  0.06390  Biso   1.000  C
  H368     1.0000 0.51690  0.48830  0.08660  Biso   1.000  H
  N183     1.0000 0.61030  0.41293  0.08019  Biso   1.000  N
  N184     1.0000 0.58190  0.46396  0.04716  Biso   1.000  N
  C461     1.0000 0.63160  0.82950  0.20410  Biso   1.000  C
  H369     1.0000 0.65610  0.84310  0.21180  Biso   1.000  H
  C462     1.0000 0.61330  0.79970  0.22600  Biso   1.000  C
  H370     1.0000 0.62090  0.79030  0.25250  Biso   1.000  H
  C463     1.0000 0.58113  0.81001  0.16950  Biso   1.000  C
  H371     1.0000 0.56160  0.80750  0.14810  Biso   1.000  H
  C464     1.0000 0.55580  0.75220  0.21130  Biso   1.000  C
  C465     1.0000 0.52250  0.74437  0.18610  Biso   1.000  C
  H372     1.0000 0.51690  0.76170  0.16340  Biso   1.000  H
  N185     1.0000 0.61030  0.83707  0.16981  Biso   1.000  N
  N186     1.0000 0.58190  0.78604  0.20284  Biso   1.000  N
  C466     1.0000 0.63160  0.32950  0.70410  Biso   1.000  C
  H373     1.0000 0.65610  0.34310  0.71180  Biso   1.000  H
  C467     1.0000 0.61330  0.29970  0.72600  Biso   1.000  C
  H374     1.0000 0.62090  0.29030  0.75250  Biso   1.000  H
  C468     1.0000 0.58113  0.31001  0.66950  Biso   1.000  C
  H375     1.0000 0.56160  0.30750  0.64810  Biso   1.000  H
  C469     1.0000 0.55580  0.25220  0.71130  Biso   1.000  C
  C470     1.0000 0.52250  0.24437  0.68610  Biso   1.000  C
  H376     1.0000 0.51690  0.26170  0.66340  Biso   1.000  H
  N187     1.0000 0.61030  0.33707  0.66981  Biso   1.000  N
  N188     1.0000 0.58190  0.28604  0.70284  Biso   1.000  N
  C471     1.0000 0.13160  0.82950  0.70410  Biso   1.000  C
  H377     1.0000 0.15610  0.84310  0.71180  Biso   1.000  H
  C472     1.0000 0.11330  0.79970  0.72600  Biso   1.000  C
  H378     1.0000 0.12090  0.79030  0.75250  Biso   1.000  H
  C473     1.0000 0.08113  0.81001  0.66950  Biso   1.000  C
  H379     1.0000 0.06160  0.80750  0.64810  Biso   1.000  H
  C474     1.0000 0.05580  0.75220  0.71130  Biso   1.000  C
  C475     1.0000 0.02250  0.74437  0.68610  Biso   1.000  C
  H380     1.0000 0.01690  0.76170  0.66340  Biso   1.000  H
  N189     1.0000 0.11030  0.83707  0.66981  Biso   1.000  N
  N190     1.0000 0.08190  0.78604  0.70284  Biso   1.000  N
  C476     1.0000 0.13160  0.32950  0.20410  Biso   1.000  C
  H381     1.0000 0.15610  0.34310  0.21180  Biso   1.000  H
  C477     1.0000 0.11330  0.29970  0.22600  Biso   1.000  C
  H382     1.0000 0.12090  0.29030  0.25250  Biso   1.000  H
  C478     1.0000 0.08113  0.31001  0.16950  Biso   1.000  C
  H383     1.0000 0.06160  0.30750  0.14810  Biso   1.000  H
  C479     1.0000 0.05580  0.25220  0.21130  Biso   1.000  C
  C480     1.0000 0.02250  0.24437  0.18610  Biso   1.000  C
  H384     1.0000 0.01690  0.26170  0.16340  Biso   1.000  H
  N191     1.0000 0.11030  0.33707  0.16981  Biso   1.000  N
  N192     1.0000 0.08190  0.28604  0.20284  Biso   1.000  N
  Zn1      1.0000 0.62500  0.37500  0.12500  Biso   1.000  Zn
  Zn2      1.0000 0.62500  0.87500  0.62500  Biso   1.000  Zn
  Zn3      1.0000 0.62500  0.37500  0.62500  Biso   1.000  Zn
  Zn4      1.0000 0.12500  0.87500  0.12500  Biso   1.000  Zn
  Zn5      1.0000 0.12500  0.87500  0.62500  Biso   1.000  Zn
  Zn6      1.0000 0.12500  0.37500  0.12500  Biso   1.000  Zn
  Zn7      1.0000 0.12500  0.62500  0.37500  Biso   1.000  Zn
  Zn8      1.0000 0.62500  0.62500  0.87500  Biso   1.000  Zn
  Zn9      1.0000 0.62500  0.62500  0.37500  Biso   1.000  Zn
  Zn10     1.0000 0.12500  0.12500  0.87500  Biso   1.000  Zn
  Zn11     1.0000 0.62500  0.12500  0.87500  Biso   1.000  Zn
  Zn12     1.0000 0.37500  0.12500  0.62500  Biso   1.000  Zn
  Zn13     1.0000 0.87500  0.62500  0.62500  Biso   1.000  Zn
  Zn14     1.0000 0.37500  0.62500  0.62500  Biso   1.000  Zn
  Zn15     1.0000 0.37500  0.12500  0.12500  Biso   1.000  Zn
  Zn16     1.0000 0.87500  0.12500  0.12500  Biso   1.000  Zn
  Zn17     1.0000 0.87500  0.62500  0.12500  Biso   1.000  Zn
  Zn18     1.0000 0.37500  0.62500  0.12500  Biso   1.000  Zn
  Zn19     1.0000 0.87500  0.12500  0.62500  Biso   1.000  Zn
  Zn20     1.0000 0.62500  0.12500  0.37500  Biso   1.000  Zn
  Zn21     1.0000 0.12500  0.62500  0.87500  Biso   1.000  Zn
  Zn22     1.0000 0.12500  0.12500  0.37500  Biso   1.000  Zn
  Zn23     1.0000 0.12500  0.37500  0.62500  Biso   1.000  Zn
  Zn24     1.0000 0.62500  0.87500  0.12500  Biso   1.000  Zn
  C481     1.0000 0.07950  0.95410  0.86840  Biso   1.000  C
  H385     1.0000 0.09310  0.96180  0.84390  Biso   1.000  H
  C482     1.0000 0.04970  0.97600  0.88670  Biso   1.000  C
  H386     1.0000 0.04030  0.00250  0.87910  Biso   1.000  H
  C483     1.0000 0.06001  0.91950  0.91887  Biso   1.000  C
  H387     1.0000 0.05750  0.89810  0.93840  Biso   1.000  H
  C484     1.0000 0.00220  0.96130  0.94420  Biso   1.000  C
  C485     1.0000 0.99437  0.93610  0.97750  Biso   1.000  C
  H388     1.0000 0.01170  0.91340  0.98310  Biso   1.000  H
  N193     1.0000 0.08707  0.91981  0.88970  Biso   1.000  N
  N194     1.0000 0.03604  0.95284  0.91810  Biso   1.000  N
  C486     1.0000 0.07950  0.45410  0.36840  Biso   1.000  C
  H389     1.0000 0.09310  0.46180  0.34390  Biso   1.000  H
  C487     1.0000 0.04970  0.47600  0.38670  Biso   1.000  C
  H390     1.0000 0.04030  0.50250  0.37910  Biso   1.000  H
  C488     1.0000 0.06001  0.41950  0.41887  Biso   1.000  C
  H391     1.0000 0.05750  0.39810  0.43840  Biso   1.000  H
  C489     1.0000 0.00220  0.46130  0.44420  Biso   1.000  C
  C490     1.0000 0.99437  0.43610  0.47750  Biso   1.000  C
  H392     1.0000 0.01170  0.41340  0.48310  Biso   1.000  H
  N195     1.0000 0.08707  0.41981  0.38970  Biso   1.000  N
  N196     1.0000 0.03604  0.45284  0.41810  Biso   1.000  N
  C491     1.0000 0.57950  0.95410  0.36840  Biso   1.000  C
  H393     1.0000 0.59310  0.96180  0.34390  Biso   1.000  H
  C492     1.0000 0.54970  0.97600  0.38670  Biso   1.000  C
  H394     1.0000 0.54030  0.00250  0.37910  Biso   1.000  H
  C493     1.0000 0.56001  0.91950  0.41887  Biso   1.000  C
  H395     1.0000 0.55750  0.89810  0.43840  Biso   1.000  H
  C494     1.0000 0.50220  0.96130  0.44420  Biso   1.000  C
  C495     1.0000 0.49437  0.93610  0.47750  Biso   1.000  C
  H396     1.0000 0.51170  0.91340  0.48310  Biso   1.000  H
  N197     1.0000 0.58707  0.91981  0.38970  Biso   1.000  N
  N198     1.0000 0.53604  0.95284  0.41810  Biso   1.000  N
  C496     1.0000 0.57950  0.45410  0.86840  Biso   1.000  C
  H397     1.0000 0.59310  0.46180  0.84390  Biso   1.000  H
  C497     1.0000 0.54970  0.47600  0.88670  Biso   1.000  C
  H398     1.0000 0.54030  0.50250  0.87910  Biso   1.000  H
  C498     1.0000 0.56001  0.41950  0.91887  Biso   1.000  C
  H399     1.0000 0.55750  0.39810  0.93840  Biso   1.000  H
  C499     1.0000 0.50220  0.46130  0.94420  Biso   1.000  C
  C500     1.0000 0.49437  0.43610  0.97750  Biso   1.000  C
  H400     1.0000 0.51170  0.41340  0.98310  Biso   1.000  H
  N199     1.0000 0.58707  0.41981  0.88970  Biso   1.000  N
  N200     1.0000 0.53604  0.45284  0.91810  Biso   1.000  N
  C501     1.0000 0.17050  0.79590  0.36840  Biso   1.000  C
  H401     1.0000 0.15690  0.78820  0.34390  Biso   1.000  H
  C502     1.0000 0.20030  0.77400  0.38670  Biso   1.000  C
  H402     1.0000 0.20970  0.74750  0.37910  Biso   1.000  H
  C503     1.0000 0.18999  0.83050  0.41887  Biso   1.000  C
  H403     1.0000 0.19250  0.85190  0.43840  Biso   1.000  H
  C504     1.0000 0.24780  0.78870  0.44420  Biso   1.000  C
  C505     1.0000 0.25563  0.81390  0.47750  Biso   1.000  C
  H404     1.0000 0.23830  0.83660  0.48310  Biso   1.000  H
  N201     1.0000 0.16293  0.83019  0.38970  Biso   1.000  N
  N202     1.0000 0.21396  0.79716  0.41810  Biso   1.000  N
  C506     1.0000 0.17050  0.29590  0.86840  Biso   1.000  C
  H405     1.0000 0.15690  0.28820  0.84390  Biso   1.000  H
  C507     1.0000 0.20030  0.27400  0.88670  Biso   1.000  C
  H406     1.0000 0.20970  0.24750  0.87910  Biso   1.000  H
  C508     1.0000 0.18999  0.33050  0.91887  Biso   1.000  C
  H407     1.0000 0.19250  0.35190  0.93840  Biso   1.000  H
  C509     1.0000 0.24780  0.28870  0.94420  Biso   1.000  C
  C510     1.0000 0.25563  0.31390  0.97750  Biso   1.000  C
  H408     1.0000 0.23830  0.33660  0.98310  Biso   1.000  H
  N203     1.0000 0.16293  0.33019  0.88970  Biso   1.000  N
  N204     1.0000 0.21396  0.29716  0.91810  Biso   1.000  N
  C511     1.0000 0.67050  0.79590  0.86840  Biso   1.000  C
  H409     1.0000 0.65690  0.78820  0.84390  Biso   1.000  H
  C512     1.0000 0.70030  0.77400  0.88670  Biso   1.000  C
  H410     1.0000 0.70970  0.74750  0.87910  Biso   1.000  H
  C513     1.0000 0.68999  0.83050  0.91887  Biso   1.000  C
  H411     1.0000 0.69250  0.85190  0.93840  Biso   1.000  H
  C514     1.0000 0.74780  0.78870  0.94420  Biso   1.000  C
  C515     1.0000 0.75563  0.81390  0.97750  Biso   1.000  C
  H412     1.0000 0.73830  0.83660  0.98310  Biso   1.000  H
  N205     1.0000 0.66293  0.83019  0.88970  Biso   1.000  N
  N206     1.0000 0.71396  0.79716  0.91810  Biso   1.000  N
  C516     1.0000 0.67050  0.29590  0.36840  Biso   1.000  C
  H413     1.0000 0.65690  0.28820  0.34390  Biso   1.000  H
  C517     1.0000 0.70030  0.27400  0.38670  Biso   1.000  C
  H414     1.0000 0.70970  0.24750  0.37910  Biso   1.000  H
  C518     1.0000 0.68999  0.33050  0.41887  Biso   1.000  C
  H415     1.0000 0.69250  0.35190  0.43840  Biso   1.000  H
  C519     1.0000 0.74780  0.28870  0.44420  Biso   1.000  C
  C520     1.0000 0.75563  0.31390  0.47750  Biso   1.000  C
  H416     1.0000 0.73830  0.33660  0.48310  Biso   1.000  H
  N207     1.0000 0.66293  0.33019  0.38970  Biso   1.000  N
  N208     1.0000 0.71396  0.29716  0.41810  Biso   1.000  N
  C521     1.0000 0.57950  0.29590  0.88160  Biso   1.000  C
  H417     1.0000 0.59310  0.28820  0.90610  Biso   1.000  H
  C522     1.0000 0.54970  0.27400  0.86330  Biso   1.000  C
  H418     1.0000 0.54030  0.24750  0.87090  Biso   1.000  H
  C523     1.0000 0.56001  0.33050  0.83113  Biso   1.000  C
  H419     1.0000 0.55750  0.35190  0.81160  Biso   1.000  H
  C524     1.0000 0.50220  0.28870  0.80580  Biso   1.000  C
  C525     1.0000 0.49437  0.31390  0.77250  Biso   1.000  C
  H420     1.0000 0.51170  0.33660  0.76690  Biso   1.000  H
  N209     1.0000 0.58707  0.33019  0.86030  Biso   1.000  N
  N210     1.0000 0.53604  0.29716  0.83190  Biso   1.000  N
  C526     1.0000 0.57950  0.79590  0.38160  Biso   1.000  C
  H421     1.0000 0.59310  0.78820  0.40610  Biso   1.000  H
  C527     1.0000 0.54970  0.77400  0.36330  Biso   1.000  C
  H422     1.0000 0.54030  0.74750  0.37090  Biso   1.000  H
  C528     1.0000 0.56001  0.83050  0.33113  Biso   1.000  C
  H423     1.0000 0.55750  0.85190  0.31160  Biso   1.000  H
  C529     1.0000 0.50220  0.78870  0.30580  Biso   1.000  C
  C530     1.0000 0.49437  0.81390  0.27250  Biso   1.000  C
  H424     1.0000 0.51170  0.83660  0.26690  Biso   1.000  H
  N211     1.0000 0.58707  0.83019  0.36030  Biso   1.000  N
  N212     1.0000 0.53604  0.79716  0.33190  Biso   1.000  N
  C531     1.0000 0.07950  0.29590  0.38160  Biso   1.000  C
  H425     1.0000 0.09310  0.28820  0.40610  Biso   1.000  H
  C532     1.0000 0.04970  0.27400  0.36330  Biso   1.000  C
  H426     1.0000 0.04030  0.24750  0.37090  Biso   1.000  H
  C533     1.0000 0.06001  0.33050  0.33113  Biso   1.000  C
  H427     1.0000 0.05750  0.35190  0.31160  Biso   1.000  H
  C534     1.0000 0.00220  0.28870  0.30580  Biso   1.000  C
  C535     1.0000 0.99437  0.31390  0.27250  Biso   1.000  C
  H428     1.0000 0.01170  0.33660  0.26690  Biso   1.000  H
  N213     1.0000 0.08707  0.33019  0.36030  Biso   1.000  N
  N214     1.0000 0.03604  0.29716  0.33190  Biso   1.000  N
  C536     1.0000 0.07950  0.79590  0.88160  Biso   1.000  C
  H429     1.0000 0.09310  0.78820  0.90610  Biso   1.000  H
  C537     1.0000 0.04970  0.77400  0.86330  Biso   1.000  C
  H430     1.0000 0.04030  0.74750  0.87090  Biso   1.000  H
  C538     1.0000 0.06001  0.83050  0.83113  Biso   1.000  C
  H431     1.0000 0.05750  0.85190  0.81160  Biso   1.000  H
  C539     1.0000 0.00220  0.78870  0.80580  Biso   1.000  C
  C540     1.0000 0.99437  0.81390  0.77250  Biso   1.000  C
  H432     1.0000 0.01170  0.83660  0.76690  Biso   1.000  H
  N215     1.0000 0.08707  0.83019  0.86030  Biso   1.000  N
  N216     1.0000 0.03604  0.79716  0.83190  Biso   1.000  N
  C541     1.0000 0.67050  0.45410  0.38160  Biso   1.000  C
  H433     1.0000 0.65690  0.46180  0.40610  Biso   1.000  H
  C542     1.0000 0.70030  0.47600  0.36330  Biso   1.000  C
  H434     1.0000 0.70970  0.50250  0.37090  Biso   1.000  H
  C543     1.0000 0.68999  0.41950  0.33113  Biso   1.000  C
  H435     1.0000 0.69250  0.39810  0.31160  Biso   1.000  H
  C544     1.0000 0.74780  0.46130  0.30580  Biso   1.000  C
  C545     1.0000 0.75563  0.43610  0.27250  Biso   1.000  C
  H436     1.0000 0.73830  0.41340  0.26690  Biso   1.000  H
  N217     1.0000 0.66293  0.41981  0.36030  Biso   1.000  N
  N218     1.0000 0.71396  0.45284  0.33190  Biso   1.000  N
  C546     1.0000 0.67050  0.95410  0.88160  Biso   1.000  C
  H437     1.0000 0.65690  0.96180  0.90610  Biso   1.000  H
  C547     1.0000 0.70030  0.97600  0.86330  Biso   1.000  C
  H438     1.0000 0.70970  0.00250  0.87090  Biso   1.000  H
  C548     1.0000 0.68999  0.91950  0.83113  Biso   1.000  C
  H439     1.0000 0.69250  0.89810  0.81160  Biso   1.000  H
  C549     1.0000 0.74780  0.96130  0.80580  Biso   1.000  C
  C550     1.0000 0.75563  0.93610  0.77250  Biso   1.000  C
  H440     1.0000 0.73830  0.91340  0.76690  Biso   1.000  H
  N219     1.0000 0.66293  0.91981  0.86030  Biso   1.000  N
  N220     1.0000 0.71396  0.95284  0.83190  Biso   1.000  N
  C551     1.0000 0.17050  0.45410  0.88160  Biso   1.000  C
  H441     1.0000 0.15690  0.46180  0.90610  Biso   1.000  H
  C552     1.0000 0.20030  0.47600  0.86330  Biso   1.000  C
  H442     1.0000 0.20970  0.50250  0.87090  Biso   1.000  H
  C553     1.0000 0.18999  0.41950  0.83113  Biso   1.000  C
  H443     1.0000 0.19250  0.39810  0.81160  Biso   1.000  H
  C554     1.0000 0.24780  0.46130  0.80580  Biso   1.000  C
  C555     1.0000 0.25563  0.43610  0.77250  Biso   1.000  C
  H444     1.0000 0.23830  0.41340  0.76690  Biso   1.000  H
  N221     1.0000 0.16293  0.41981  0.86030  Biso   1.000  N
  N222     1.0000 0.21396  0.45284  0.83190  Biso   1.000  N
  C556     1.0000 0.17050  0.95410  0.38160  Biso   1.000  C
  H445     1.0000 0.15690  0.96180  0.40610  Biso   1.000  H
  C557     1.0000 0.20030  0.97600  0.36330  Biso   1.000  C
  H446     1.0000 0.20970  0.00250  0.37090  Biso   1.000  H
  C558     1.0000 0.18999  0.91950  0.33113  Biso   1.000  C
  H447     1.0000 0.19250  0.89810  0.31160  Biso   1.000  H
  C559     1.0000 0.24780  0.96130  0.30580  Biso   1.000  C
  C560     1.0000 0.25563  0.93610  0.27250  Biso   1.000  C
  H448     1.0000 0.23830  0.91340  0.26690  Biso   1.000  H
  N223     1.0000 0.16293  0.91981  0.36030  Biso   1.000  N
  N224     1.0000 0.21396  0.95284  0.33190  Biso   1.000  N
  C561     1.0000 0.45410  0.38160  0.67050  Biso   1.000  C
  H449     1.0000 0.46180  0.40610  0.65690  Biso   1.000  H
  C562     1.0000 0.47600  0.36330  0.70030  Biso   1.000  C
  H450     1.0000 0.50250  0.37090  0.70970  Biso   1.000  H
  C563     1.0000 0.41950  0.33113  0.68999  Biso   1.000  C
  H451     1.0000 0.39810  0.31160  0.69250  Biso   1.000  H
  C564     1.0000 0.46130  0.30580  0.74780  Biso   1.000  C
  C565     1.0000 0.43610  0.27250  0.75563  Biso   1.000  C
  H452     1.0000 0.41340  0.26690  0.73830  Biso   1.000  H
  N225     1.0000 0.41981  0.36030  0.66293  Biso   1.000  N
  N226     1.0000 0.45284  0.33190  0.71396  Biso   1.000  N
  C566     1.0000 0.45410  0.88160  0.17050  Biso   1.000  C
  H453     1.0000 0.46180  0.90610  0.15690  Biso   1.000  H
  C567     1.0000 0.47600  0.86330  0.20030  Biso   1.000  C
  H454     1.0000 0.50250  0.87090  0.20970  Biso   1.000  H
  C568     1.0000 0.41950  0.83113  0.18999  Biso   1.000  C
  H455     1.0000 0.39810  0.81160  0.19250  Biso   1.000  H
  C569     1.0000 0.46130  0.80580  0.24780  Biso   1.000  C
  C570     1.0000 0.43610  0.77250  0.25563  Biso   1.000  C
  H456     1.0000 0.41340  0.76690  0.23830  Biso   1.000  H
  N227     1.0000 0.41981  0.86030  0.16293  Biso   1.000  N
  N228     1.0000 0.45284  0.83190  0.21396  Biso   1.000  N
  C571     1.0000 0.95410  0.38160  0.17050  Biso   1.000  C
  H457     1.0000 0.96180  0.40610  0.15690  Biso   1.000  H
  C572     1.0000 0.97600  0.36330  0.20030  Biso   1.000  C
  H458     1.0000 0.00250  0.37090  0.20970  Biso   1.000  H
  C573     1.0000 0.91950  0.33113  0.18999  Biso   1.000  C
  H459     1.0000 0.89810  0.31160  0.19250  Biso   1.000  H
  C574     1.0000 0.96130  0.30580  0.24780  Biso   1.000  C
  C575     1.0000 0.93610  0.27250  0.25563  Biso   1.000  C
  H460     1.0000 0.91340  0.26690  0.23830  Biso   1.000  H
  N229     1.0000 0.91981  0.36030  0.16293  Biso   1.000  N
  N230     1.0000 0.95284  0.33190  0.21396  Biso   1.000  N
  C576     1.0000 0.95410  0.88160  0.67050  Biso   1.000  C
  H461     1.0000 0.96180  0.90610  0.65690  Biso   1.000  H
  C577     1.0000 0.97600  0.86330  0.70030  Biso   1.000  C
  H462     1.0000 0.00250  0.87090  0.70970  Biso   1.000  H
  C578     1.0000 0.91950  0.83113  0.68999  Biso   1.000  C
  H463     1.0000 0.89810  0.81160  0.69250  Biso   1.000  H
  C579     1.0000 0.96130  0.80580  0.74780  Biso   1.000  C
  C580     1.0000 0.93610  0.77250  0.75563  Biso   1.000  C
  H464     1.0000 0.91340  0.76690  0.73830  Biso   1.000  H
  N231     1.0000 0.91981  0.86030  0.66293  Biso   1.000  N
  N232     1.0000 0.95284  0.83190  0.71396  Biso   1.000  N
  C581     1.0000 0.29590  0.88160  0.57950  Biso   1.000  C
  H465     1.0000 0.28820  0.90610  0.59310  Biso   1.000  H
  C582     1.0000 0.27400  0.86330  0.54970  Biso   1.000  C
  H466     1.0000 0.24750  0.87090  0.54030  Biso   1.000  H
  C583     1.0000 0.33050  0.83113  0.56001  Biso   1.000  C
  H467     1.0000 0.35190  0.81160  0.55750  Biso   1.000  H
  C584     1.0000 0.28870  0.80580  0.50220  Biso   1.000  C
  C585     1.0000 0.31390  0.77250  0.49437  Biso   1.000  C
  H468     1.0000 0.33660  0.76690  0.51170  Biso   1.000  H
  N233     1.0000 0.33019  0.86030  0.58707  Biso   1.000  N
  N234     1.0000 0.29716  0.83190  0.53604  Biso   1.000  N
  C586     1.0000 0.29590  0.38160  0.07950  Biso   1.000  C
  H469     1.0000 0.28820  0.40610  0.09310  Biso   1.000  H
  C587     1.0000 0.27400  0.36330  0.04970  Biso   1.000  C
  H470     1.0000 0.24750  0.37090  0.04030  Biso   1.000  H
  C588     1.0000 0.33050  0.33113  0.06001  Biso   1.000  C
  H471     1.0000 0.35190  0.31160  0.05750  Biso   1.000  H
  C589     1.0000 0.28870  0.30580  0.00220  Biso   1.000  C
  C590     1.0000 0.31390  0.27250  0.99437  Biso   1.000  C
  H472     1.0000 0.33660  0.26690  0.01170  Biso   1.000  H
  N235     1.0000 0.33019  0.36030  0.08707  Biso   1.000  N
  N236     1.0000 0.29716  0.33190  0.03604  Biso   1.000  N
  C591     1.0000 0.79590  0.88160  0.07950  Biso   1.000  C
  H473     1.0000 0.78820  0.90610  0.09310  Biso   1.000  H
  C592     1.0000 0.77400  0.86330  0.04970  Biso   1.000  C
  H474     1.0000 0.74750  0.87090  0.04030  Biso   1.000  H
  C593     1.0000 0.83050  0.83113  0.06001  Biso   1.000  C
  H475     1.0000 0.85190  0.81160  0.05750  Biso   1.000  H
  C594     1.0000 0.78870  0.80580  0.00220  Biso   1.000  C
  C595     1.0000 0.81390  0.77250  0.99437  Biso   1.000  C
  H476     1.0000 0.83660  0.76690  0.01170  Biso   1.000  H
  N237     1.0000 0.83019  0.86030  0.08707  Biso   1.000  N
  N238     1.0000 0.79716  0.83190  0.03604  Biso   1.000  N
  C596     1.0000 0.79590  0.38160  0.57950  Biso   1.000  C
  H477     1.0000 0.78820  0.40610  0.59310  Biso   1.000  H
  C597     1.0000 0.77400  0.36330  0.54970  Biso   1.000  C
  H478     1.0000 0.74750  0.37090  0.54030  Biso   1.000  H
  C598     1.0000 0.83050  0.33113  0.56001  Biso   1.000  C
  H479     1.0000 0.85190  0.31160  0.55750  Biso   1.000  H
  C599     1.0000 0.78870  0.30580  0.50220  Biso   1.000  C
  C600     1.0000 0.81390  0.27250  0.49437  Biso   1.000  C
  H480     1.0000 0.83660  0.26690  0.51170  Biso   1.000  H
  N239     1.0000 0.83019  0.36030  0.58707  Biso   1.000  N
  N240     1.0000 0.79716  0.33190  0.53604  Biso   1.000  N
  C601     1.0000 0.79590  0.36840  0.17050  Biso   1.000  C
  H481     1.0000 0.78820  0.34390  0.15690  Biso   1.000  H
  C602     1.0000 0.77400  0.38670  0.20030  Biso   1.000  C
  H482     1.0000 0.74750  0.37910  0.20970  Biso   1.000  H
  C603     1.0000 0.83050  0.41887  0.18999  Biso   1.000  C
  H483     1.0000 0.85190  0.43840  0.19250  Biso   1.000  H
  C604     1.0000 0.78870  0.44420  0.24780  Biso   1.000  C
  C605     1.0000 0.81390  0.47750  0.25563  Biso   1.000  C
  H484     1.0000 0.83660  0.48310  0.23830  Biso   1.000  H
  N241     1.0000 0.83019  0.38970  0.16293  Biso   1.000  N
  N242     1.0000 0.79716  0.41810  0.21396  Biso   1.000  N
  C606     1.0000 0.79590  0.86840  0.67050  Biso   1.000  C
  H485     1.0000 0.78820  0.84390  0.65690  Biso   1.000  H
  C607     1.0000 0.77400  0.88670  0.70030  Biso   1.000  C
  H486     1.0000 0.74750  0.87910  0.70970  Biso   1.000  H
  C608     1.0000 0.83050  0.91887  0.68999  Biso   1.000  C
  H487     1.0000 0.85190  0.93840  0.69250  Biso   1.000  H
  C609     1.0000 0.78870  0.94420  0.74780  Biso   1.000  C
  C610     1.0000 0.81390  0.97750  0.75563  Biso   1.000  C
  H488     1.0000 0.83660  0.98310  0.73830  Biso   1.000  H
  N243     1.0000 0.83019  0.88970  0.66293  Biso   1.000  N
  N244     1.0000 0.79716  0.91810  0.71396  Biso   1.000  N
  C611     1.0000 0.29590  0.36840  0.67050  Biso   1.000  C
  H489     1.0000 0.28820  0.34390  0.65690  Biso   1.000  H
  C612     1.0000 0.27400  0.38670  0.70030  Biso   1.000  C
  H490     1.0000 0.24750  0.37910  0.70970  Biso   1.000  H
  C613     1.0000 0.33050  0.41887  0.68999  Biso   1.000  C
  H491     1.0000 0.35190  0.43840  0.69250  Biso   1.000  H
  C614     1.0000 0.28870  0.44420  0.74780  Biso   1.000  C
  C615     1.0000 0.31390  0.47750  0.75563  Biso   1.000  C
  H492     1.0000 0.33660  0.48310  0.73830  Biso   1.000  H
  N245     1.0000 0.33019  0.38970  0.66293  Biso   1.000  N
  N246     1.0000 0.29716  0.41810  0.71396  Biso   1.000  N
  C616     1.0000 0.29590  0.86840  0.17050  Biso   1.000  C
  H493     1.0000 0.28820  0.84390  0.15690  Biso   1.000  H
  C617     1.0000 0.27400  0.88670  0.20030  Biso   1.000  C
  H494     1.0000 0.24750  0.87910  0.20970  Biso   1.000  H
  C618     1.0000 0.33050  0.91887  0.18999  Biso   1.000  C
  H495     1.0000 0.35190  0.93840  0.19250  Biso   1.000  H
  C619     1.0000 0.28870  0.94420  0.24780  Biso   1.000  C
  C620     1.0000 0.31390  0.97750  0.25563  Biso   1.000  C
  H496     1.0000 0.33660  0.98310  0.23830  Biso   1.000  H
  N247     1.0000 0.33019  0.88970  0.16293  Biso   1.000  N
  N248     1.0000 0.29716  0.91810  0.21396  Biso   1.000  N
  C621     1.0000 0.95410  0.86840  0.07950  Biso   1.000  C
  H497     1.0000 0.96180  0.84390  0.09310  Biso   1.000  H
  C622     1.0000 0.97600  0.88670  0.04970  Biso   1.000  C
  H498     1.0000 0.00250  0.87910  0.04030  Biso   1.000  H
  C623     1.0000 0.91950  0.91887  0.06001  Biso   1.000  C
  H499     1.0000 0.89810  0.93840  0.05750  Biso   1.000  H
  C624     1.0000 0.96130  0.94420  0.00220  Biso   1.000  C
  C625     1.0000 0.93610  0.97750  0.99437  Biso   1.000  C
  H500     1.0000 0.91340  0.98310  0.01170  Biso   1.000  H
  N249     1.0000 0.91981  0.88970  0.08707  Biso   1.000  N
  N250     1.0000 0.95284  0.91810  0.03604  Biso   1.000  N
  C626     1.0000 0.95410  0.36840  0.57950  Biso   1.000  C
  H501     1.0000 0.96180  0.34390  0.59310  Biso   1.000  H
  C627     1.0000 0.97600  0.38670  0.54970  Biso   1.000  C
  H502     1.0000 0.00250  0.37910  0.54030  Biso   1.000  H
  C628     1.0000 0.91950  0.41887  0.56001  Biso   1.000  C
  H503     1.0000 0.89810  0.43840  0.55750  Biso   1.000  H
  C629     1.0000 0.96130  0.44420  0.50220  Biso   1.000  C
  C630     1.0000 0.93610  0.47750  0.49437  Biso   1.000  C
  H504     1.0000 0.91340  0.48310  0.51170  Biso   1.000  H
  N251     1.0000 0.91981  0.38970  0.58707  Biso   1.000  N
  N252     1.0000 0.95284  0.41810  0.53604  Biso   1.000  N
  C631     1.0000 0.45410  0.86840  0.57950  Biso   1.000  C
  H505     1.0000 0.46180  0.84390  0.59310  Biso   1.000  H
  C632     1.0000 0.47600  0.88670  0.54970  Biso   1.000  C
  H506     1.0000 0.50250  0.87910  0.54030  Biso   1.000  H
  C633     1.0000 0.41950  0.91887  0.56001  Biso   1.000  C
  H507     1.0000 0.39810  0.93840  0.55750  Biso   1.000  H
  C634     1.0000 0.46130  0.94420  0.50220  Biso   1.000  C
  C635     1.0000 0.43610  0.97750  0.49437  Biso   1.000  C
  H508     1.0000 0.41340  0.98310  0.51170  Biso   1.000  H
  N253     1.0000 0.41981  0.88970  0.58707  Biso   1.000  N
  N254     1.0000 0.45284  0.91810  0.53604  Biso   1.000  N
  C636     1.0000 0.45410  0.36840  0.07950  Biso   1.000  C
  H509     1.0000 0.46180  0.34390  0.09310  Biso   1.000  H
  C637     1.0000 0.47600  0.38670  0.04970  Biso   1.000  C
  H510     1.0000 0.50250  0.37910  0.04030  Biso   1.000  H
  C638     1.0000 0.41950  0.41887  0.06001  Biso   1.000  C
  H511     1.0000 0.39810  0.43840  0.05750  Biso   1.000  H
  C639     1.0000 0.46130  0.44420  0.00220  Biso   1.000  C
  C640     1.0000 0.43610  0.47750  0.99437  Biso   1.000  C
  H512     1.0000 0.41340  0.48310  0.01170  Biso   1.000  H
  N255     1.0000 0.41981  0.38970  0.08707  Biso   1.000  N
  N256     1.0000 0.45284  0.41810  0.03604  Biso   1.000  N
  C641     1.0000 0.88160  0.57950  0.29590  Biso   1.000  C
  H513     1.0000 0.90610  0.59310  0.28820  Biso   1.000  H
  C642     1.0000 0.86330  0.54970  0.27400  Biso   1.000  C
  H514     1.0000 0.87090  0.54030  0.24750  Biso   1.000  H
  C643     1.0000 0.83113  0.56001  0.33050  Biso   1.000  C
  H515     1.0000 0.81160  0.55750  0.35190  Biso   1.000  H
  C644     1.0000 0.80580  0.50220  0.28870  Biso   1.000  C
  C645     1.0000 0.77250  0.49437  0.31390  Biso   1.000  C
  H516     1.0000 0.76690  0.51170  0.33660  Biso   1.000  H
  N257     1.0000 0.86030  0.58707  0.33019  Biso   1.000  N
  N258     1.0000 0.83190  0.53604  0.29716  Biso   1.000  N
  C646     1.0000 0.88160  0.07950  0.79590  Biso   1.000  C
  H517     1.0000 0.90610  0.09310  0.78820  Biso   1.000  H
  C647     1.0000 0.86330  0.04970  0.77400  Biso   1.000  C
  H518     1.0000 0.87090  0.04030  0.74750  Biso   1.000  H
  C648     1.0000 0.83113  0.06001  0.83050  Biso   1.000  C
  H519     1.0000 0.81160  0.05750  0.85190  Biso   1.000  H
  C649     1.0000 0.80580  0.00220  0.78870  Biso   1.000  C
  C650     1.0000 0.77250  0.99437  0.81390  Biso   1.000  C
  H520     1.0000 0.76690  0.01170  0.83660  Biso   1.000  H
  N259     1.0000 0.86030  0.08707  0.83019  Biso   1.000  N
  N260     1.0000 0.83190  0.03604  0.79716  Biso   1.000  N
  C651     1.0000 0.38160  0.57950  0.79590  Biso   1.000  C
  H521     1.0000 0.40610  0.59310  0.78820  Biso   1.000  H
  C652     1.0000 0.36330  0.54970  0.77400  Biso   1.000  C
  H522     1.0000 0.37090  0.54030  0.74750  Biso   1.000  H
  C653     1.0000 0.33113  0.56001  0.83050  Biso   1.000  C
  H523     1.0000 0.31160  0.55750  0.85190  Biso   1.000  H
  C654     1.0000 0.30580  0.50220  0.78870  Biso   1.000  C
  C655     1.0000 0.27250  0.49437  0.81390  Biso   1.000  C
  H524     1.0000 0.26690  0.51170  0.83660  Biso   1.000  H
  N261     1.0000 0.36030  0.58707  0.83019  Biso   1.000  N
  N262     1.0000 0.33190  0.53604  0.79716  Biso   1.000  N
  C656     1.0000 0.38160  0.07950  0.29590  Biso   1.000  C
  H525     1.0000 0.40610  0.09310  0.28820  Biso   1.000  H
  C657     1.0000 0.36330  0.04970  0.27400  Biso   1.000  C
  H526     1.0000 0.37090  0.04030  0.24750  Biso   1.000  H
  C658     1.0000 0.33113  0.06001  0.33050  Biso   1.000  C
  H527     1.0000 0.31160  0.05750  0.35190  Biso   1.000  H
  C659     1.0000 0.30580  0.00220  0.28870  Biso   1.000  C
  C660     1.0000 0.27250  0.99437  0.31390  Biso   1.000  C
  H528     1.0000 0.26690  0.01170  0.33660  Biso   1.000  H
  N263     1.0000 0.36030  0.08707  0.33019  Biso   1.000  N
  N264     1.0000 0.33190  0.03604  0.29716  Biso   1.000  N
  C661     1.0000 0.38160  0.67050  0.45410  Biso   1.000  C
  H529     1.0000 0.40610  0.65690  0.46180  Biso   1.000  H
  C662     1.0000 0.36330  0.70030  0.47600  Biso   1.000  C
  H530     1.0000 0.37090  0.70970  0.50250  Biso   1.000  H
  C663     1.0000 0.33113  0.68999  0.41950  Biso   1.000  C
  H531     1.0000 0.31160  0.69250  0.39810  Biso   1.000  H
  C664     1.0000 0.30580  0.74780  0.46130  Biso   1.000  C
  C665     1.0000 0.27250  0.75563  0.43610  Biso   1.000  C
  H532     1.0000 0.26690  0.73830  0.41340  Biso   1.000  H
  N265     1.0000 0.36030  0.66293  0.41981  Biso   1.000  N
  N266     1.0000 0.33190  0.71396  0.45284  Biso   1.000  N
  C666     1.0000 0.38160  0.17050  0.95410  Biso   1.000  C
  H533     1.0000 0.40610  0.15690  0.96180  Biso   1.000  H
  C667     1.0000 0.36330  0.20030  0.97600  Biso   1.000  C
  H534     1.0000 0.37090  0.20970  0.00250  Biso   1.000  H
  C668     1.0000 0.33113  0.18999  0.91950  Biso   1.000  C
  H535     1.0000 0.31160  0.19250  0.89810  Biso   1.000  H
  C669     1.0000 0.30580  0.24780  0.96130  Biso   1.000  C
  C670     1.0000 0.27250  0.25563  0.93610  Biso   1.000  C
  H536     1.0000 0.26690  0.23830  0.91340  Biso   1.000  H
  N267     1.0000 0.36030  0.16293  0.91981  Biso   1.000  N
  N268     1.0000 0.33190  0.21396  0.95284  Biso   1.000  N
  C671     1.0000 0.88160  0.67050  0.95410  Biso   1.000  C
  H537     1.0000 0.90610  0.65690  0.96180  Biso   1.000  H
  C672     1.0000 0.86330  0.70030  0.97600  Biso   1.000  C
  H538     1.0000 0.87090  0.70970  0.00250  Biso   1.000  H
  C673     1.0000 0.83113  0.68999  0.91950  Biso   1.000  C
  H539     1.0000 0.81160  0.69250  0.89810  Biso   1.000  H
  C674     1.0000 0.80580  0.74780  0.96130  Biso   1.000  C
  C675     1.0000 0.77250  0.75563  0.93610  Biso   1.000  C
  H540     1.0000 0.76690  0.73830  0.91340  Biso   1.000  H
  N269     1.0000 0.86030  0.66293  0.91981  Biso   1.000  N
  N270     1.0000 0.83190  0.71396  0.95284  Biso   1.000  N
  C676     1.0000 0.88160  0.17050  0.45410  Biso   1.000  C
  H541     1.0000 0.90610  0.15690  0.46180  Biso   1.000  H
  C677     1.0000 0.86330  0.20030  0.47600  Biso   1.000  C
  H542     1.0000 0.87090  0.20970  0.50250  Biso   1.000  H
  C678     1.0000 0.83113  0.18999  0.41950  Biso   1.000  C
  H543     1.0000 0.81160  0.19250  0.39810  Biso   1.000  H
  C679     1.0000 0.80580  0.24780  0.46130  Biso   1.000  C
  C680     1.0000 0.77250  0.25563  0.43610  Biso   1.000  C
  H544     1.0000 0.76690  0.23830  0.41340  Biso   1.000  H
  N271     1.0000 0.86030  0.16293  0.41981  Biso   1.000  N
  N272     1.0000 0.83190  0.21396  0.45284  Biso   1.000  N
  C681     1.0000 0.86840  0.07950  0.95410  Biso   1.000  C
  H545     1.0000 0.84390  0.09310  0.96180  Biso   1.000  H
  C682     1.0000 0.88670  0.04970  0.97600  Biso   1.000  C
  H546     1.0000 0.87910  0.04030  0.00250  Biso   1.000  H
  C683     1.0000 0.91887  0.06001  0.91950  Biso   1.000  C
  H547     1.0000 0.93840  0.05750  0.89810  Biso   1.000  H
  C684     1.0000 0.94420  0.00220  0.96130  Biso   1.000  C
  C685     1.0000 0.97750  0.99437  0.93610  Biso   1.000  C
  H548     1.0000 0.98310  0.01170  0.91340  Biso   1.000  H
  N273     1.0000 0.88970  0.08707  0.91981  Biso   1.000  N
  N274     1.0000 0.91810  0.03604  0.95284  Biso   1.000  N
  C686     1.0000 0.86840  0.57950  0.45410  Biso   1.000  C
  H549     1.0000 0.84390  0.59310  0.46180  Biso   1.000  H
  C687     1.0000 0.88670  0.54970  0.47600  Biso   1.000  C
  H550     1.0000 0.87910  0.54030  0.50250  Biso   1.000  H
  C688     1.0000 0.91887  0.56001  0.41950  Biso   1.000  C
  H551     1.0000 0.93840  0.55750  0.39810  Biso   1.000  H
  C689     1.0000 0.94420  0.50220  0.46130  Biso   1.000  C
  C690     1.0000 0.97750  0.49437  0.43610  Biso   1.000  C
  H552     1.0000 0.98310  0.51170  0.41340  Biso   1.000  H
  N275     1.0000 0.88970  0.58707  0.41981  Biso   1.000  N
  N276     1.0000 0.91810  0.53604  0.45284  Biso   1.000  N
  C691     1.0000 0.36840  0.07950  0.45410  Biso   1.000  C
  H553     1.0000 0.34390  0.09310  0.46180  Biso   1.000  H
  C692     1.0000 0.38670  0.04970  0.47600  Biso   1.000  C
  H554     1.0000 0.37910  0.04030  0.50250  Biso   1.000  H
  C693     1.0000 0.41887  0.06001  0.41950  Biso   1.000  C
  H555     1.0000 0.43840  0.05750  0.39810  Biso   1.000  H
  C694     1.0000 0.44420  0.00220  0.46130  Biso   1.000  C
  C695     1.0000 0.47750  0.99437  0.43610  Biso   1.000  C
  H556     1.0000 0.48310  0.01170  0.41340  Biso   1.000  H
  N277     1.0000 0.38970  0.08707  0.41981  Biso   1.000  N
  N278     1.0000 0.41810  0.03604  0.45284  Biso   1.000  N
  C696     1.0000 0.36840  0.57950  0.95410  Biso   1.000  C
  H557     1.0000 0.34390  0.59310  0.96180  Biso   1.000  H
  C697     1.0000 0.38670  0.54970  0.97600  Biso   1.000  C
  H558     1.0000 0.37910  0.54030  0.00250  Biso   1.000  H
  C698     1.0000 0.41887  0.56001  0.91950  Biso   1.000  C
  H559     1.0000 0.43840  0.55750  0.89810  Biso   1.000  H
  C699     1.0000 0.44420  0.50220  0.96130  Biso   1.000  C
  C700     1.0000 0.47750  0.49437  0.93610  Biso   1.000  C
  H560     1.0000 0.48310  0.51170  0.91340  Biso   1.000  H
  N279     1.0000 0.38970  0.58707  0.91981  Biso   1.000  N
  N280     1.0000 0.41810  0.53604  0.95284  Biso   1.000  N
  C701     1.0000 0.36840  0.17050  0.79590  Biso   1.000  C
  H561     1.0000 0.34390  0.15690  0.78820  Biso   1.000  H
  C702     1.0000 0.38670  0.20030  0.77400  Biso   1.000  C
  H562     1.0000 0.37910  0.20970  0.74750  Biso   1.000  H
  C703     1.0000 0.41887  0.18999  0.83050  Biso   1.000  C
  H563     1.0000 0.43840  0.19250  0.85190  Biso   1.000  H
  C704     1.0000 0.44420  0.24780  0.78870  Biso   1.000  C
  C705     1.0000 0.47750  0.25563  0.81390  Biso   1.000  C
  H564     1.0000 0.48310  0.23830  0.83660  Biso   1.000  H
  N281     1.0000 0.38970  0.16293  0.83019  Biso   1.000  N
  N282     1.0000 0.41810  0.21396  0.79716  Biso   1.000  N
  C706     1.0000 0.36840  0.67050  0.29590  Biso   1.000  C
  H565     1.0000 0.34390  0.65690  0.28820  Biso   1.000  H
  C707     1.0000 0.38670  0.70030  0.27400  Biso   1.000  C
  H566     1.0000 0.37910  0.70970  0.24750  Biso   1.000  H
  C708     1.0000 0.41887  0.68999  0.33050  Biso   1.000  C
  H567     1.0000 0.43840  0.69250  0.35190  Biso   1.000  H
  C709     1.0000 0.44420  0.74780  0.28870  Biso   1.000  C
  C710     1.0000 0.47750  0.75563  0.31390  Biso   1.000  C
  H568     1.0000 0.48310  0.73830  0.33660  Biso   1.000  H
  N283     1.0000 0.38970  0.66293  0.33019  Biso   1.000  N
  N284     1.0000 0.41810  0.71396  0.29716  Biso   1.000  N
  C711     1.0000 0.86840  0.17050  0.29590  Biso   1.000  C
  H569     1.0000 0.84390  0.15690  0.28820  Biso   1.000  H
  C712     1.0000 0.88670  0.20030  0.27400  Biso   1.000  C
  H570     1.0000 0.87910  0.20970  0.24750  Biso   1.000  H
  C713     1.0000 0.91887  0.18999  0.33050  Biso   1.000  C
  H571     1.0000 0.93840  0.19250  0.35190  Biso   1.000  H
  C714     1.0000 0.94420  0.24780  0.28870  Biso   1.000  C
  C715     1.0000 0.97750  0.25563  0.31390  Biso   1.000  C
  H572     1.0000 0.98310  0.23830  0.33660  Biso   1.000  H
  N285     1.0000 0.88970  0.16293  0.33019  Biso   1.000  N
  N286     1.0000 0.91810  0.21396  0.29716  Biso   1.000  N
  C716     1.0000 0.86840  0.67050  0.79590  Biso   1.000  C
  H573     1.0000 0.84390  0.65690  0.78820  Biso   1.000  H
  C717     1.0000 0.88670  0.70030  0.77400  Biso   1.000  C
  H574     1.0000 0.87910  0.70970  0.74750  Biso   1.000  H
  C718     1.0000 0.91887  0.68999  0.83050  Biso   1.000  C
  H575     1.0000 0.93840  0.69250  0.85190  Biso   1.000  H
  C719     1.0000 0.94420  0.74780  0.78870  Biso   1.000  C
  C720     1.0000 0.97750  0.75563  0.81390  Biso   1.000  C
  H576     1.0000 0.98310  0.73830  0.83660  Biso   1.000  H
  N287     1.0000 0.88970  0.66293  0.83019  Biso   1.000  N
  N288     1.0000 0.91810  0.71396  0.79716  Biso   1.000  N
  C721     1.0000 0.29590  0.67050  0.86840  Biso   1.000  C
  H577     1.0000 0.28820  0.65690  0.84390  Biso   1.000  H
  C722     1.0000 0.27400  0.70030  0.88670  Biso   1.000  C
  H578     1.0000 0.24750  0.70970  0.87910  Biso   1.000  H
  C723     1.0000 0.33050  0.68999  0.91887  Biso   1.000  C
  H579     1.0000 0.35190  0.69250  0.93840  Biso   1.000  H
  C724     1.0000 0.28870  0.74780  0.94420  Biso   1.000  C
  C725     1.0000 0.31390  0.75563  0.97750  Biso   1.000  C
  H580     1.0000 0.33660  0.73830  0.98310  Biso   1.000  H
  N289     1.0000 0.33019  0.66293  0.88970  Biso   1.000  N
  N290     1.0000 0.29716  0.71396  0.91810  Biso   1.000  N
  C726     1.0000 0.29590  0.17050  0.36840  Biso   1.000  C
  H581     1.0000 0.28820  0.15690  0.34390  Biso   1.000  H
  C727     1.0000 0.27400  0.20030  0.38670  Biso   1.000  C
  H582     1.0000 0.24750  0.20970  0.37910  Biso   1.000  H
  C728     1.0000 0.33050  0.18999  0.41887  Biso   1.000  C
  H583     1.0000 0.35190  0.19250  0.43840  Biso   1.000  H
  C729     1.0000 0.28870  0.24780  0.44420  Biso   1.000  C
  C730     1.0000 0.31390  0.25563  0.47750  Biso   1.000  C
  H584     1.0000 0.33660  0.23830  0.48310  Biso   1.000  H
  N291     1.0000 0.33019  0.16293  0.38970  Biso   1.000  N
  N292     1.0000 0.29716  0.21396  0.41810  Biso   1.000  N
  C731     1.0000 0.79590  0.67050  0.36840  Biso   1.000  C
  H585     1.0000 0.78820  0.65690  0.34390  Biso   1.000  H
  C732     1.0000 0.77400  0.70030  0.38670  Biso   1.000  C
  H586     1.0000 0.74750  0.70970  0.37910  Biso   1.000  H
  C733     1.0000 0.83050  0.68999  0.41887  Biso   1.000  C
  H587     1.0000 0.85190  0.69250  0.43840  Biso   1.000  H
  C734     1.0000 0.78870  0.74780  0.44420  Biso   1.000  C
  C735     1.0000 0.81390  0.75563  0.47750  Biso   1.000  C
  H588     1.0000 0.83660  0.73830  0.48310  Biso   1.000  H
  N293     1.0000 0.83019  0.66293  0.38970  Biso   1.000  N
  N294     1.0000 0.79716  0.71396  0.41810  Biso   1.000  N
  C736     1.0000 0.79590  0.17050  0.86840  Biso   1.000  C
  H589     1.0000 0.78820  0.15690  0.84390  Biso   1.000  H
  C737     1.0000 0.77400  0.20030  0.88670  Biso   1.000  C
  H590     1.0000 0.74750  0.20970  0.87910  Biso   1.000  H
  C738     1.0000 0.83050  0.18999  0.91887  Biso   1.000  C
  H591     1.0000 0.85190  0.19250  0.93840  Biso   1.000  H
  C739     1.0000 0.78870  0.24780  0.94420  Biso   1.000  C
  C740     1.0000 0.81390  0.25563  0.97750  Biso   1.000  C
  H592     1.0000 0.83660  0.23830  0.98310  Biso   1.000  H
  N295     1.0000 0.83019  0.16293  0.88970  Biso   1.000  N
  N296     1.0000 0.79716  0.21396  0.91810  Biso   1.000  N
  C741     1.0000 0.45410  0.57950  0.36840  Biso   1.000  C
  H593     1.0000 0.46180  0.59310  0.34390  Biso   1.000  H
  C742     1.0000 0.47600  0.54970  0.38670  Biso   1.000  C
  H594     1.0000 0.50250  0.54030  0.37910  Biso   1.000  H
  C743     1.0000 0.41950  0.56001  0.41887  Biso   1.000  C
  H595     1.0000 0.39810  0.55750  0.43840  Biso   1.000  H
  C744     1.0000 0.46130  0.50220  0.44420  Biso   1.000  C
  C745     1.0000 0.43610  0.49437  0.47750  Biso   1.000  C
  H596     1.0000 0.41340  0.51170  0.48310  Biso   1.000  H
  N297     1.0000 0.41981  0.58707  0.38970  Biso   1.000  N
  N298     1.0000 0.45284  0.53604  0.41810  Biso   1.000  N
  C746     1.0000 0.45410  0.07950  0.86840  Biso   1.000  C
  H597     1.0000 0.46180  0.09310  0.84390  Biso   1.000  H
  C747     1.0000 0.47600  0.04970  0.88670  Biso   1.000  C
  H598     1.0000 0.50250  0.04030  0.87910  Biso   1.000  H
  C748     1.0000 0.41950  0.06001  0.91887  Biso   1.000  C
  H599     1.0000 0.39810  0.05750  0.93840  Biso   1.000  H
  C749     1.0000 0.46130  0.00220  0.94420  Biso   1.000  C
  C750     1.0000 0.43610  0.99437  0.97750  Biso   1.000  C
  H600     1.0000 0.41340  0.01170  0.98310  Biso   1.000  H
  N299     1.0000 0.41981  0.08707  0.88970  Biso   1.000  N
  N300     1.0000 0.45284  0.03604  0.91810  Biso   1.000  N
  C751     1.0000 0.95410  0.57950  0.86840  Biso   1.000  C
  H601     1.0000 0.96180  0.59310  0.84390  Biso   1.000  H
  C752     1.0000 0.97600  0.54970  0.88670  Biso   1.000  C
  H602     1.0000 0.00250  0.54030  0.87910  Biso   1.000  H
  C753     1.0000 0.91950  0.56001  0.91887  Biso   1.000  C
  H603     1.0000 0.89810  0.55750  0.93840  Biso   1.000  H
  C754     1.0000 0.96130  0.50220  0.94420  Biso   1.000  C
  C755     1.0000 0.93610  0.49437  0.97750  Biso   1.000  C
  H604     1.0000 0.91340  0.51170  0.98310  Biso   1.000  H
  N301     1.0000 0.91981  0.58707  0.88970  Biso   1.000  N
  N302     1.0000 0.95284  0.53604  0.91810  Biso   1.000  N
  C756     1.0000 0.95410  0.07950  0.36840  Biso   1.000  C
  H605     1.0000 0.96180  0.09310  0.34390  Biso   1.000  H
  C757     1.0000 0.97600  0.04970  0.38670  Biso   1.000  C
  H606     1.0000 0.00250  0.04030  0.37910  Biso   1.000  H
  C758     1.0000 0.91950  0.06001  0.41887  Biso   1.000  C
  H607     1.0000 0.89810  0.05750  0.43840  Biso   1.000  H
  C759     1.0000 0.96130  0.00220  0.44420  Biso   1.000  C
  C760     1.0000 0.93610  0.99437  0.47750  Biso   1.000  C
  H608     1.0000 0.91340  0.01170  0.48310  Biso   1.000  H
  N303     1.0000 0.91981  0.08707  0.38970  Biso   1.000  N
  N304     1.0000 0.95284  0.03604  0.41810  Biso   1.000  N
  C761     1.0000 0.95410  0.17050  0.88160  Biso   1.000  C
  H609     1.0000 0.96180  0.15690  0.90610  Biso   1.000  H
  C762     1.0000 0.97600  0.20030  0.86330  Biso   1.000  C
  H610     1.0000 0.00250  0.20970  0.87090  Biso   1.000  H
  C763     1.0000 0.91950  0.18999  0.83113  Biso   1.000  C
  H611     1.0000 0.89810  0.19250  0.81160  Biso   1.000  H
  C764     1.0000 0.96130  0.24780  0.80580  Biso   1.000  C
  C765     1.0000 0.93610  0.25563  0.77250  Biso   1.000  C
  H612     1.0000 0.91340  0.23830  0.76690  Biso   1.000  H
  N305     1.0000 0.91981  0.16293  0.86030  Biso   1.000  N
  N306     1.0000 0.95284  0.21396  0.83190  Biso   1.000  N
  C766     1.0000 0.95410  0.67050  0.38160  Biso   1.000  C
  H613     1.0000 0.96180  0.65690  0.40610  Biso   1.000  H
  C767     1.0000 0.97600  0.70030  0.36330  Biso   1.000  C
  H614     1.0000 0.00250  0.70970  0.37090  Biso   1.000  H
  C768     1.0000 0.91950  0.68999  0.33113  Biso   1.000  C
  H615     1.0000 0.89810  0.69250  0.31160  Biso   1.000  H
  C769     1.0000 0.96130  0.74780  0.30580  Biso   1.000  C
  C770     1.0000 0.93610  0.75563  0.27250  Biso   1.000  C
  H616     1.0000 0.91340  0.73830  0.26690  Biso   1.000  H
  N307     1.0000 0.91981  0.66293  0.36030  Biso   1.000  N
  N308     1.0000 0.95284  0.71396  0.33190  Biso   1.000  N
  C771     1.0000 0.45410  0.17050  0.38160  Biso   1.000  C
  H617     1.0000 0.46180  0.15690  0.40610  Biso   1.000  H
  C772     1.0000 0.47600  0.20030  0.36330  Biso   1.000  C
  H618     1.0000 0.50250  0.20970  0.37090  Biso   1.000  H
  C773     1.0000 0.41950  0.18999  0.33113  Biso   1.000  C
  H619     1.0000 0.39810  0.19250  0.31160  Biso   1.000  H
  C774     1.0000 0.46130  0.24780  0.30580  Biso   1.000  C
  C775     1.0000 0.43610  0.25563  0.27250  Biso   1.000  C
  H620     1.0000 0.41340  0.23830  0.26690  Biso   1.000  H
  N309     1.0000 0.41981  0.16293  0.36030  Biso   1.000  N
  N310     1.0000 0.45284  0.21396  0.33190  Biso   1.000  N
  C776     1.0000 0.45410  0.67050  0.88160  Biso   1.000  C
  H621     1.0000 0.46180  0.65690  0.90610  Biso   1.000  H
  C777     1.0000 0.47600  0.70030  0.86330  Biso   1.000  C
  H622     1.0000 0.50250  0.70970  0.87090  Biso   1.000  H
  C778     1.0000 0.41950  0.68999  0.83113  Biso   1.000  C
  H623     1.0000 0.39810  0.69250  0.81160  Biso   1.000  H
  C779     1.0000 0.46130  0.74780  0.80580  Biso   1.000  C
  C780     1.0000 0.43610  0.75563  0.77250  Biso   1.000  C
  H624     1.0000 0.41340  0.73830  0.76690  Biso   1.000  H
  N311     1.0000 0.41981  0.66293  0.86030  Biso   1.000  N
  N312     1.0000 0.45284  0.71396  0.83190  Biso   1.000  N
  C781     1.0000 0.79590  0.07950  0.38160  Biso   1.000  C
  H625     1.0000 0.78820  0.09310  0.40610  Biso   1.000  H
  C782     1.0000 0.77400  0.04970  0.36330  Biso   1.000  C
  H626     1.0000 0.74750  0.04030  0.37090  Biso   1.000  H
  C783     1.0000 0.83050  0.06001  0.33113  Biso   1.000  C
  H627     1.0000 0.85190  0.05750  0.31160  Biso   1.000  H
  C784     1.0000 0.78870  0.00220  0.30580  Biso   1.000  C
  C785     1.0000 0.81390  0.99437  0.27250  Biso   1.000  C
  H628     1.0000 0.83660  0.01170  0.26690  Biso   1.000  H
  N313     1.0000 0.83019  0.08707  0.36030  Biso   1.000  N
  N314     1.0000 0.79716  0.03604  0.33190  Biso   1.000  N
  C786     1.0000 0.79590  0.57950  0.88160  Biso   1.000  C
  H629     1.0000 0.78820  0.59310  0.90610  Biso   1.000  H
  C787     1.0000 0.77400  0.54970  0.86330  Biso   1.000  C
  H630     1.0000 0.74750  0.54030  0.87090  Biso   1.000  H
  C788     1.0000 0.83050  0.56001  0.83113  Biso   1.000  C
  H631     1.0000 0.85190  0.55750  0.81160  Biso   1.000  H
  C789     1.0000 0.78870  0.50220  0.80580  Biso   1.000  C
  C790     1.0000 0.81390  0.49437  0.77250  Biso   1.000  C
  H632     1.0000 0.83660  0.51170  0.76690  Biso   1.000  H
  N315     1.0000 0.83019  0.58707  0.86030  Biso   1.000  N
  N316     1.0000 0.79716  0.53604  0.83190  Biso   1.000  N
  C791     1.0000 0.29590  0.07950  0.88160  Biso   1.000  C
  H633     1.0000 0.28820  0.09310  0.90610  Biso   1.000  H
  C792     1.0000 0.27400  0.04970  0.86330  Biso   1.000  C
  H634     1.0000 0.24750  0.04030  0.87090  Biso   1.000  H
  C793     1.0000 0.33050  0.06001  0.83113  Biso   1.000  C
  H635     1.0000 0.35190  0.05750  0.81160  Biso   1.000  H
  C794     1.0000 0.28870  0.00220  0.80580  Biso   1.000  C
  C795     1.0000 0.31390  0.99437  0.77250  Biso   1.000  C
  H636     1.0000 0.33660  0.01170  0.76690  Biso   1.000  H
  N317     1.0000 0.33019  0.08707  0.86030  Biso   1.000  N
  N318     1.0000 0.29716  0.03604  0.83190  Biso   1.000  N
  C796     1.0000 0.29590  0.57950  0.38160  Biso   1.000  C
  H637     1.0000 0.28820  0.59310  0.40610  Biso   1.000  H
  C797     1.0000 0.27400  0.54970  0.36330  Biso   1.000  C
  H638     1.0000 0.24750  0.54030  0.37090  Biso   1.000  H
  C798     1.0000 0.33050  0.56001  0.33113  Biso   1.000  C
  H639     1.0000 0.35190  0.55750  0.31160  Biso   1.000  H
  C799     1.0000 0.28870  0.50220  0.30580  Biso   1.000  C
  C800     1.0000 0.31390  0.49437  0.27250  Biso   1.000  C
  H640     1.0000 0.33660  0.51170  0.26690  Biso   1.000  H
  N319     1.0000 0.33019  0.58707  0.36030  Biso   1.000  N
  N320     1.0000 0.29716  0.53604  0.33190  Biso   1.000  N
  C801     1.0000 0.86840  0.29590  0.67050  Biso   1.000  C
  H641     1.0000 0.84390  0.28820  0.65690  Biso   1.000  H
  C802     1.0000 0.88670  0.27400  0.70030  Biso   1.000  C
  H642     1.0000 0.87910  0.24750  0.70970  Biso   1.000  H
  C803     1.0000 0.91887  0.33050  0.68999  Biso   1.000  C
  H643     1.0000 0.93840  0.35190  0.69250  Biso   1.000  H
  C804     1.0000 0.94420  0.28870  0.74780  Biso   1.000  C
  C805     1.0000 0.97750  0.31390  0.75563  Biso   1.000  C
  H644     1.0000 0.98310  0.33660  0.73830  Biso   1.000  H
  N321     1.0000 0.88970  0.33019  0.66293  Biso   1.000  N
  N322     1.0000 0.91810  0.29716  0.71396  Biso   1.000  N
  C806     1.0000 0.86840  0.79590  0.17050  Biso   1.000  C
  H645     1.0000 0.84390  0.78820  0.15690  Biso   1.000  H
  C807     1.0000 0.88670  0.77400  0.20030  Biso   1.000  C
  H646     1.0000 0.87910  0.74750  0.20970  Biso   1.000  H
  C808     1.0000 0.91887  0.83050  0.18999  Biso   1.000  C
  H647     1.0000 0.93840  0.85190  0.19250  Biso   1.000  H
  C809     1.0000 0.94420  0.78870  0.24780  Biso   1.000  C
  C810     1.0000 0.97750  0.81390  0.25563  Biso   1.000  C
  H648     1.0000 0.98310  0.83660  0.23830  Biso   1.000  H
  N323     1.0000 0.88970  0.83019  0.16293  Biso   1.000  N
  N324     1.0000 0.91810  0.79716  0.21396  Biso   1.000  N
  C811     1.0000 0.36840  0.29590  0.17050  Biso   1.000  C
  H649     1.0000 0.34390  0.28820  0.15690  Biso   1.000  H
  C812     1.0000 0.38670  0.27400  0.20030  Biso   1.000  C
  H650     1.0000 0.37910  0.24750  0.20970  Biso   1.000  H
  C813     1.0000 0.41887  0.33050  0.18999  Biso   1.000  C
  H651     1.0000 0.43840  0.35190  0.19250  Biso   1.000  H
  C814     1.0000 0.44420  0.28870  0.24780  Biso   1.000  C
  C815     1.0000 0.47750  0.31390  0.25563  Biso   1.000  C
  H652     1.0000 0.48310  0.33660  0.23830  Biso   1.000  H
  N325     1.0000 0.38970  0.33019  0.16293  Biso   1.000  N
  N326     1.0000 0.41810  0.29716  0.21396  Biso   1.000  N
  C816     1.0000 0.36840  0.79590  0.67050  Biso   1.000  C
  H653     1.0000 0.34390  0.78820  0.65690  Biso   1.000  H
  C817     1.0000 0.38670  0.77400  0.70030  Biso   1.000  C
  H654     1.0000 0.37910  0.74750  0.70970  Biso   1.000  H
  C818     1.0000 0.41887  0.83050  0.68999  Biso   1.000  C
  H655     1.0000 0.43840  0.85190  0.69250  Biso   1.000  H
  C819     1.0000 0.44420  0.78870  0.74780  Biso   1.000  C
  C820     1.0000 0.47750  0.81390  0.75563  Biso   1.000  C
  H656     1.0000 0.48310  0.83660  0.73830  Biso   1.000  H
  N327     1.0000 0.38970  0.83019  0.66293  Biso   1.000  N
  N328     1.0000 0.41810  0.79716  0.71396  Biso   1.000  N
  C821     1.0000 0.36840  0.45410  0.57950  Biso   1.000  C
  H657     1.0000 0.34390  0.46180  0.59310  Biso   1.000  H
  C822     1.0000 0.38670  0.47600  0.54970  Biso   1.000  C
  H658     1.0000 0.37910  0.50250  0.54030  Biso   1.000  H
  C823     1.0000 0.41887  0.41950  0.56001  Biso   1.000  C
  H659     1.0000 0.43840  0.39810  0.55750  Biso   1.000  H
  C824     1.0000 0.44420  0.46130  0.50220  Biso   1.000  C
  C825     1.0000 0.47750  0.43610  0.49437  Biso   1.000  C
  H660     1.0000 0.48310  0.41340  0.51170  Biso   1.000  H
  N329     1.0000 0.38970  0.41981  0.58707  Biso   1.000  N
  N330     1.0000 0.41810  0.45284  0.53604  Biso   1.000  N
  C826     1.0000 0.36840  0.95410  0.07950  Biso   1.000  C
  H661     1.0000 0.34390  0.96180  0.09310  Biso   1.000  H
  C827     1.0000 0.38670  0.97600  0.04970  Biso   1.000  C
  H662     1.0000 0.37910  0.00250  0.04030  Biso   1.000  H
  C828     1.0000 0.41887  0.91950  0.06001  Biso   1.000  C
  H663     1.0000 0.43840  0.89810  0.05750  Biso   1.000  H
  C829     1.0000 0.44420  0.96130  0.00220  Biso   1.000  C
  C830     1.0000 0.47750  0.93610  0.99437  Biso   1.000  C
  H664     1.0000 0.48310  0.91340  0.01170  Biso   1.000  H
  N331     1.0000 0.38970  0.91981  0.08707  Biso   1.000  N
  N332     1.0000 0.41810  0.95284  0.03604  Biso   1.000  N
  C831     1.0000 0.86840  0.45410  0.07950  Biso   1.000  C
  H665     1.0000 0.84390  0.46180  0.09310  Biso   1.000  H
  C832     1.0000 0.88670  0.47600  0.04970  Biso   1.000  C
  H666     1.0000 0.87910  0.50250  0.04030  Biso   1.000  H
  C833     1.0000 0.91887  0.41950  0.06001  Biso   1.000  C
  H667     1.0000 0.93840  0.39810  0.05750  Biso   1.000  H
  C834     1.0000 0.94420  0.46130  0.00220  Biso   1.000  C
  C835     1.0000 0.97750  0.43610  0.99437  Biso   1.000  C
  H668     1.0000 0.98310  0.41340  0.01170  Biso   1.000  H
  N333     1.0000 0.88970  0.41981  0.08707  Biso   1.000  N
  N334     1.0000 0.91810  0.45284  0.03604  Biso   1.000  N
  C836     1.0000 0.86840  0.95410  0.57950  Biso   1.000  C
  H669     1.0000 0.84390  0.96180  0.59310  Biso   1.000  H
  C837     1.0000 0.88670  0.97600  0.54970  Biso   1.000  C
  H670     1.0000 0.87910  0.00250  0.54030  Biso   1.000  H
  C838     1.0000 0.91887  0.91950  0.56001  Biso   1.000  C
  H671     1.0000 0.93840  0.89810  0.55750  Biso   1.000  H
  C839     1.0000 0.94420  0.96130  0.50220  Biso   1.000  C
  C840     1.0000 0.97750  0.93610  0.49437  Biso   1.000  C
  H672     1.0000 0.98310  0.91340  0.51170  Biso   1.000  H
  N335     1.0000 0.88970  0.91981  0.58707  Biso   1.000  N
  N336     1.0000 0.91810  0.95284  0.53604  Biso   1.000  N
  C841     1.0000 0.88160  0.95410  0.17050  Biso   1.000  C
  H673     1.0000 0.90610  0.96180  0.15690  Biso   1.000  H
  C842     1.0000 0.86330  0.97600  0.20030  Biso   1.000  C
  H674     1.0000 0.87090  0.00250  0.20970  Biso   1.000  H
  C843     1.0000 0.83113  0.91950  0.18999  Biso   1.000  C
  H675     1.0000 0.81160  0.89810  0.19250  Biso   1.000  H
  C844     1.0000 0.80580  0.96130  0.24780  Biso   1.000  C
  C845     1.0000 0.77250  0.93610  0.25563  Biso   1.000  C
  H676     1.0000 0.76690  0.91340  0.23830  Biso   1.000  H
  N337     1.0000 0.86030  0.91981  0.16293  Biso   1.000  N
  N338     1.0000 0.83190  0.95284  0.21396  Biso   1.000  N
  C846     1.0000 0.88160  0.45410  0.67050  Biso   1.000  C
  H677     1.0000 0.90610  0.46180  0.65690  Biso   1.000  H
  C847     1.0000 0.86330  0.47600  0.70030  Biso   1.000  C
  H678     1.0000 0.87090  0.50250  0.70970  Biso   1.000  H
  C848     1.0000 0.83113  0.41950  0.68999  Biso   1.000  C
  H679     1.0000 0.81160  0.39810  0.69250  Biso   1.000  H
  C849     1.0000 0.80580  0.46130  0.74780  Biso   1.000  C
  C850     1.0000 0.77250  0.43610  0.75563  Biso   1.000  C
  H680     1.0000 0.76690  0.41340  0.73830  Biso   1.000  H
  N339     1.0000 0.86030  0.41981  0.66293  Biso   1.000  N
  N340     1.0000 0.83190  0.45284  0.71396  Biso   1.000  N
  C851     1.0000 0.38160  0.95410  0.67050  Biso   1.000  C
  H681     1.0000 0.40610  0.96180  0.65690  Biso   1.000  H
  C852     1.0000 0.36330  0.97600  0.70030  Biso   1.000  C
  H682     1.0000 0.37090  0.00250  0.70970  Biso   1.000  H
  C853     1.0000 0.33113  0.91950  0.68999  Biso   1.000  C
  H683     1.0000 0.31160  0.89810  0.69250  Biso   1.000  H
  C854     1.0000 0.30580  0.96130  0.74780  Biso   1.000  C
  C855     1.0000 0.27250  0.93610  0.75563  Biso   1.000  C
  H684     1.0000 0.26690  0.91340  0.73830  Biso   1.000  H
  N341     1.0000 0.36030  0.91981  0.66293  Biso   1.000  N
  N342     1.0000 0.33190  0.95284  0.71396  Biso   1.000  N
  C856     1.0000 0.38160  0.45410  0.17050  Biso   1.000  C
  H685     1.0000 0.40610  0.46180  0.15690  Biso   1.000  H
  C857     1.0000 0.36330  0.47600  0.20030  Biso   1.000  C
  H686     1.0000 0.37090  0.50250  0.20970  Biso   1.000  H
  C858     1.0000 0.33113  0.41950  0.18999  Biso   1.000  C
  H687     1.0000 0.31160  0.39810  0.19250  Biso   1.000  H
  C859     1.0000 0.30580  0.46130  0.24780  Biso   1.000  C
  C860     1.0000 0.27250  0.43610  0.25563  Biso   1.000  C
  H688     1.0000 0.26690  0.41340  0.23830  Biso   1.000  H
  N343     1.0000 0.36030  0.41981  0.16293  Biso   1.000  N
  N344     1.0000 0.33190  0.45284  0.21396  Biso   1.000  N
  C861     1.0000 0.38160  0.79590  0.07950  Biso   1.000  C
  H689     1.0000 0.40610  0.78820  0.09310  Biso   1.000  H
  C862     1.0000 0.36330  0.77400  0.04970  Biso   1.000  C
  H690     1.0000 0.37090  0.74750  0.04030  Biso   1.000  H
  C863     1.0000 0.33113  0.83050  0.06001  Biso   1.000  C
  H691     1.0000 0.31160  0.85190  0.05750  Biso   1.000  H
  C864     1.0000 0.30580  0.78870  0.00220  Biso   1.000  C
  C865     1.0000 0.27250  0.81390  0.99437  Biso   1.000  C
  H692     1.0000 0.26690  0.83660  0.01170  Biso   1.000  H
  N345     1.0000 0.36030  0.83019  0.08707  Biso   1.000  N
  N346     1.0000 0.33190  0.79716  0.03604  Biso   1.000  N
  C866     1.0000 0.38160  0.29590  0.57950  Biso   1.000  C
  H693     1.0000 0.40610  0.28820  0.59310  Biso   1.000  H
  C867     1.0000 0.36330  0.27400  0.54970  Biso   1.000  C
  H694     1.0000 0.37090  0.24750  0.54030  Biso   1.000  H
  C868     1.0000 0.33113  0.33050  0.56001  Biso   1.000  C
  H695     1.0000 0.31160  0.35190  0.55750  Biso   1.000  H
  C869     1.0000 0.30580  0.28870  0.50220  Biso   1.000  C
  C870     1.0000 0.27250  0.31390  0.49437  Biso   1.000  C
  H696     1.0000 0.26690  0.33660  0.51170  Biso   1.000  H
  N347     1.0000 0.36030  0.33019  0.58707  Biso   1.000  N
  N348     1.0000 0.33190  0.29716  0.53604  Biso   1.000  N
  C871     1.0000 0.88160  0.79590  0.57950  Biso   1.000  C
  H697     1.0000 0.90610  0.78820  0.59310  Biso   1.000  H
  C872     1.0000 0.86330  0.77400  0.54970  Biso   1.000  C
  H698     1.0000 0.87090  0.74750  0.54030  Biso   1.000  H
  C873     1.0000 0.83113  0.83050  0.56001  Biso   1.000  C
  H699     1.0000 0.81160  0.85190  0.55750  Biso   1.000  H
  C874     1.0000 0.80580  0.78870  0.50220  Biso   1.000  C
  C875     1.0000 0.77250  0.81390  0.49437  Biso   1.000  C
  H700     1.0000 0.76690  0.83660  0.51170  Biso   1.000  H
  N349     1.0000 0.86030  0.83019  0.58707  Biso   1.000  N
  N350     1.0000 0.83190  0.79716  0.53604  Biso   1.000  N
  C876     1.0000 0.88160  0.29590  0.07950  Biso   1.000  C
  H701     1.0000 0.90610  0.28820  0.09310  Biso   1.000  H
  C877     1.0000 0.86330  0.27400  0.04970  Biso   1.000  C
  H702     1.0000 0.87090  0.24750  0.04030  Biso   1.000  H
  C878     1.0000 0.83113  0.33050  0.06001  Biso   1.000  C
  H703     1.0000 0.81160  0.35190  0.05750  Biso   1.000  H
  C879     1.0000 0.80580  0.28870  0.00220  Biso   1.000  C
  C880     1.0000 0.77250  0.31390  0.99437  Biso   1.000  C
  H704     1.0000 0.76690  0.33660  0.01170  Biso   1.000  H
  N351     1.0000 0.86030  0.33019  0.08707  Biso   1.000  N
  N352     1.0000 0.83190  0.29716  0.03604  Biso   1.000  N
  C881     1.0000 0.67050  0.86840  0.29590  Biso   1.000  C
  H705     1.0000 0.65690  0.84390  0.28820  Biso   1.000  H
  C882     1.0000 0.70030  0.88670  0.27400  Biso   1.000  C
  H706     1.0000 0.70970  0.87910  0.24750  Biso   1.000  H
  C883     1.0000 0.68999  0.91887  0.33050  Biso   1.000  C
  H707     1.0000 0.69250  0.93840  0.35190  Biso   1.000  H
  C884     1.0000 0.74780  0.94420  0.28870  Biso   1.000  C
  C885     1.0000 0.75563  0.97750  0.31390  Biso   1.000  C
  H708     1.0000 0.73830  0.98310  0.33660  Biso   1.000  H
  N353     1.0000 0.66293  0.88970  0.33019  Biso   1.000  N
  N354     1.0000 0.71396  0.91810  0.29716  Biso   1.000  N
  C886     1.0000 0.67050  0.36840  0.79590  Biso   1.000  C
  H709     1.0000 0.65690  0.34390  0.78820  Biso   1.000  H
  C887     1.0000 0.70030  0.38670  0.77400  Biso   1.000  C
  H710     1.0000 0.70970  0.37910  0.74750  Biso   1.000  H
  C888     1.0000 0.68999  0.41887  0.83050  Biso   1.000  C
  H711     1.0000 0.69250  0.43840  0.85190  Biso   1.000  H
  C889     1.0000 0.74780  0.44420  0.78870  Biso   1.000  C
  C890     1.0000 0.75563  0.47750  0.81390  Biso   1.000  C
  H712     1.0000 0.73830  0.48310  0.83660  Biso   1.000  H
  N355     1.0000 0.66293  0.38970  0.83019  Biso   1.000  N
  N356     1.0000 0.71396  0.41810  0.79716  Biso   1.000  N
  C891     1.0000 0.17050  0.86840  0.79590  Biso   1.000  C
  H713     1.0000 0.15690  0.84390  0.78820  Biso   1.000  H
  C892     1.0000 0.20030  0.88670  0.77400  Biso   1.000  C
  H714     1.0000 0.20970  0.87910  0.74750  Biso   1.000  H
  C893     1.0000 0.18999  0.91887  0.83050  Biso   1.000  C
  H715     1.0000 0.19250  0.93840  0.85190  Biso   1.000  H
  C894     1.0000 0.24780  0.94420  0.78870  Biso   1.000  C
  C895     1.0000 0.25563  0.97750  0.81390  Biso   1.000  C
  H716     1.0000 0.23830  0.98310  0.83660  Biso   1.000  H
  N357     1.0000 0.16293  0.88970  0.83019  Biso   1.000  N
  N358     1.0000 0.21396  0.91810  0.79716  Biso   1.000  N
  C896     1.0000 0.17050  0.36840  0.29590  Biso   1.000  C
  H717     1.0000 0.15690  0.34390  0.28820  Biso   1.000  H
  C897     1.0000 0.20030  0.38670  0.27400  Biso   1.000  C
  H718     1.0000 0.20970  0.37910  0.24750  Biso   1.000  H
  C898     1.0000 0.18999  0.41887  0.33050  Biso   1.000  C
  H719     1.0000 0.19250  0.43840  0.35190  Biso   1.000  H
  C899     1.0000 0.24780  0.44420  0.28870  Biso   1.000  C
  C900     1.0000 0.25563  0.47750  0.31390  Biso   1.000  C
  H720     1.0000 0.23830  0.48310  0.33660  Biso   1.000  H
  N359     1.0000 0.16293  0.38970  0.33019  Biso   1.000  N
  N360     1.0000 0.21396  0.41810  0.29716  Biso   1.000  N
  C901     1.0000 0.57950  0.36840  0.45410  Biso   1.000  C
  H721     1.0000 0.59310  0.34390  0.46180  Biso   1.000  H
  C902     1.0000 0.54970  0.38670  0.47600  Biso   1.000  C
  H722     1.0000 0.54030  0.37910  0.50250  Biso   1.000  H
  C903     1.0000 0.56001  0.41887  0.41950  Biso   1.000  C
  H723     1.0000 0.55750  0.43840  0.39810  Biso   1.000  H
  C904     1.0000 0.50220  0.44420  0.46130  Biso   1.000  C
  C905     1.0000 0.49437  0.47750  0.43610  Biso   1.000  C
  H724     1.0000 0.51170  0.48310  0.41340  Biso   1.000  H
  N361     1.0000 0.58707  0.38970  0.41981  Biso   1.000  N
  N362     1.0000 0.53604  0.41810  0.45284  Biso   1.000  N
  C906     1.0000 0.57950  0.86840  0.95410  Biso   1.000  C
  H725     1.0000 0.59310  0.84390  0.96180  Biso   1.000  H
  C907     1.0000 0.54970  0.88670  0.97600  Biso   1.000  C
  H726     1.0000 0.54030  0.87910  0.00250  Biso   1.000  H
  C908     1.0000 0.56001  0.91887  0.91950  Biso   1.000  C
  H727     1.0000 0.55750  0.93840  0.89810  Biso   1.000  H
  C909     1.0000 0.50220  0.94420  0.96130  Biso   1.000  C
  C910     1.0000 0.49437  0.97750  0.93610  Biso   1.000  C
  H728     1.0000 0.51170  0.98310  0.91340  Biso   1.000  H
  N363     1.0000 0.58707  0.88970  0.91981  Biso   1.000  N
  N364     1.0000 0.53604  0.91810  0.95284  Biso   1.000  N
  C911     1.0000 0.07950  0.36840  0.95410  Biso   1.000  C
  H729     1.0000 0.09310  0.34390  0.96180  Biso   1.000  H
  C912     1.0000 0.04970  0.38670  0.97600  Biso   1.000  C
  H730     1.0000 0.04030  0.37910  0.00250  Biso   1.000  H
  C913     1.0000 0.06001  0.41887  0.91950  Biso   1.000  C
  H731     1.0000 0.05750  0.43840  0.89810  Biso   1.000  H
  C914     1.0000 0.00220  0.44420  0.96130  Biso   1.000  C
  C915     1.0000 0.99437  0.47750  0.93610  Biso   1.000  C
  H732     1.0000 0.01170  0.48310  0.91340  Biso   1.000  H
  N365     1.0000 0.08707  0.38970  0.91981  Biso   1.000  N
  N366     1.0000 0.03604  0.41810  0.95284  Biso   1.000  N
  C916     1.0000 0.07950  0.86840  0.45410  Biso   1.000  C
  H733     1.0000 0.09310  0.84390  0.46180  Biso   1.000  H
  C917     1.0000 0.04970  0.88670  0.47600  Biso   1.000  C
  H734     1.0000 0.04030  0.87910  0.50250  Biso   1.000  H
  C918     1.0000 0.06001  0.91887  0.41950  Biso   1.000  C
  H735     1.0000 0.05750  0.93840  0.39810  Biso   1.000  H
  C919     1.0000 0.00220  0.94420  0.46130  Biso   1.000  C
  C920     1.0000 0.99437  0.97750  0.43610  Biso   1.000  C
  H736     1.0000 0.01170  0.98310  0.41340  Biso   1.000  H
  N367     1.0000 0.08707  0.88970  0.41981  Biso   1.000  N
  N368     1.0000 0.03604  0.91810  0.45284  Biso   1.000  N
  C921     1.0000 0.17050  0.88160  0.95410  Biso   1.000  C
  H737     1.0000 0.15690  0.90610  0.96180  Biso   1.000  H
  C922     1.0000 0.20030  0.86330  0.97600  Biso   1.000  C
  H738     1.0000 0.20970  0.87090  0.00250  Biso   1.000  H
  C923     1.0000 0.18999  0.83113  0.91950  Biso   1.000  C
  H739     1.0000 0.19250  0.81160  0.89810  Biso   1.000  H
  C924     1.0000 0.24780  0.80580  0.96130  Biso   1.000  C
  C925     1.0000 0.25563  0.77250  0.93610  Biso   1.000  C
  H740     1.0000 0.23830  0.76690  0.91340  Biso   1.000  H
  N369     1.0000 0.16293  0.86030  0.91981  Biso   1.000  N
  N370     1.0000 0.21396  0.83190  0.95284  Biso   1.000  N
  C926     1.0000 0.17050  0.38160  0.45410  Biso   1.000  C
  H741     1.0000 0.15690  0.40610  0.46180  Biso   1.000  H
  C927     1.0000 0.20030  0.36330  0.47600  Biso   1.000  C
  H742     1.0000 0.20970  0.37090  0.50250  Biso   1.000  H
  C928     1.0000 0.18999  0.33113  0.41950  Biso   1.000  C
  H743     1.0000 0.19250  0.31160  0.39810  Biso   1.000  H
  C929     1.0000 0.24780  0.30580  0.46130  Biso   1.000  C
  C930     1.0000 0.25563  0.27250  0.43610  Biso   1.000  C
  H744     1.0000 0.23830  0.26690  0.41340  Biso   1.000  H
  N371     1.0000 0.16293  0.36030  0.41981  Biso   1.000  N
  N372     1.0000 0.21396  0.33190  0.45284  Biso   1.000  N
  C931     1.0000 0.67050  0.88160  0.45410  Biso   1.000  C
  H745     1.0000 0.65690  0.90610  0.46180  Biso   1.000  H
  C932     1.0000 0.70030  0.86330  0.47600  Biso   1.000  C
  H746     1.0000 0.70970  0.87090  0.50250  Biso   1.000  H
  C933     1.0000 0.68999  0.83113  0.41950  Biso   1.000  C
  H747     1.0000 0.69250  0.81160  0.39810  Biso   1.000  H
  C934     1.0000 0.74780  0.80580  0.46130  Biso   1.000  C
  C935     1.0000 0.75563  0.77250  0.43610  Biso   1.000  C
  H748     1.0000 0.73830  0.76690  0.41340  Biso   1.000  H
  N373     1.0000 0.66293  0.86030  0.41981  Biso   1.000  N
  N374     1.0000 0.71396  0.83190  0.45284  Biso   1.000  N
  C936     1.0000 0.67050  0.38160  0.95410  Biso   1.000  C
  H749     1.0000 0.65690  0.40610  0.96180  Biso   1.000  H
  C937     1.0000 0.70030  0.36330  0.97600  Biso   1.000  C
  H750     1.0000 0.70970  0.37090  0.00250  Biso   1.000  H
  C938     1.0000 0.68999  0.33113  0.91950  Biso   1.000  C
  H751     1.0000 0.69250  0.31160  0.89810  Biso   1.000  H
  C939     1.0000 0.74780  0.30580  0.96130  Biso   1.000  C
  C940     1.0000 0.75563  0.27250  0.93610  Biso   1.000  C
  H752     1.0000 0.73830  0.26690  0.91340  Biso   1.000  H
  N375     1.0000 0.66293  0.36030  0.91981  Biso   1.000  N
  N376     1.0000 0.71396  0.33190  0.95284  Biso   1.000  N
  C941     1.0000 0.07950  0.38160  0.79590  Biso   1.000  C
  H753     1.0000 0.09310  0.40610  0.78820  Biso   1.000  H
  C942     1.0000 0.04970  0.36330  0.77400  Biso   1.000  C
  H754     1.0000 0.04030  0.37090  0.74750  Biso   1.000  H
  C943     1.0000 0.06001  0.33113  0.83050  Biso   1.000  C
  H755     1.0000 0.05750  0.31160  0.85190  Biso   1.000  H
  C944     1.0000 0.00220  0.30580  0.78870  Biso   1.000  C
  C945     1.0000 0.99437  0.27250  0.81390  Biso   1.000  C
  H756     1.0000 0.01170  0.26690  0.83660  Biso   1.000  H
  N377     1.0000 0.08707  0.36030  0.83019  Biso   1.000  N
  N378     1.0000 0.03604  0.33190  0.79716  Biso   1.000  N
  C946     1.0000 0.07950  0.88160  0.29590  Biso   1.000  C
  H757     1.0000 0.09310  0.90610  0.28820  Biso   1.000  H
  C947     1.0000 0.04970  0.86330  0.27400  Biso   1.000  C
  H758     1.0000 0.04030  0.87090  0.24750  Biso   1.000  H
  C948     1.0000 0.06001  0.83113  0.33050  Biso   1.000  C
  H759     1.0000 0.05750  0.81160  0.35190  Biso   1.000  H
  C949     1.0000 0.00220  0.80580  0.28870  Biso   1.000  C
  C950     1.0000 0.99437  0.77250  0.31390  Biso   1.000  C
  H760     1.0000 0.01170  0.76690  0.33660  Biso   1.000  H
  N379     1.0000 0.08707  0.86030  0.33019  Biso   1.000  N
  N380     1.0000 0.03604  0.83190  0.29716  Biso   1.000  N
  C951     1.0000 0.57950  0.38160  0.29590  Biso   1.000  C
  H761     1.0000 0.59310  0.40610  0.28820  Biso   1.000  H
  C952     1.0000 0.54970  0.36330  0.27400  Biso   1.000  C
  H762     1.0000 0.54030  0.37090  0.24750  Biso   1.000  H
  C953     1.0000 0.56001  0.33113  0.33050  Biso   1.000  C
  H763     1.0000 0.55750  0.31160  0.35190  Biso   1.000  H
  C954     1.0000 0.50220  0.30580  0.28870  Biso   1.000  C
  C955     1.0000 0.49437  0.27250  0.31390  Biso   1.000  C
  H764     1.0000 0.51170  0.26690  0.33660  Biso   1.000  H
  N381     1.0000 0.58707  0.36030  0.33019  Biso   1.000  N
  N382     1.0000 0.53604  0.33190  0.29716  Biso   1.000  N
  C956     1.0000 0.57950  0.88160  0.79590  Biso   1.000  C
  H765     1.0000 0.59310  0.90610  0.78820  Biso   1.000  H
  C957     1.0000 0.54970  0.86330  0.77400  Biso   1.000  C
  H766     1.0000 0.54030  0.87090  0.74750  Biso   1.000  H
  C958     1.0000 0.56001  0.83113  0.83050  Biso   1.000  C
  H767     1.0000 0.55750  0.81160  0.85190  Biso   1.000  H
  C959     1.0000 0.50220  0.80580  0.78870  Biso   1.000  C
  C960     1.0000 0.49437  0.77250  0.81390  Biso   1.000  C
  H768     1.0000 0.51170  0.76690  0.83660  Biso   1.000  H
  N383     1.0000 0.58707  0.86030  0.83019  Biso   1.000  N
  N384     1.0000 0.53604  0.83190  0.79716  Biso   1.000  N
  Zn25     1.0000 0.12500  0.87500  0.87500  Biso   1.000  Zn
  Zn26     1.0000 0.12500  0.37500  0.37500  Biso   1.000  Zn
  Zn27     1.0000 0.12500  0.87500  0.37500  Biso   1.000  Zn
  Zn28     1.0000 0.62500  0.37500  0.87500  Biso   1.000  Zn
  Zn29     1.0000 0.62500  0.37500  0.37500  Biso   1.000  Zn
  Zn30     1.0000 0.62500  0.87500  0.87500  Biso   1.000  Zn
  Zn31     1.0000 0.37500  0.37500  0.62500  Biso   1.000  Zn
  Zn32     1.0000 0.37500  0.87500  0.62500  Biso   1.000  Zn
  Zn33     1.0000 0.37500  0.37500  0.12500  Biso   1.000  Zn
  Zn34     1.0000 0.87500  0.37500  0.12500  Biso   1.000  Zn
  Zn35     1.0000 0.87500  0.87500  0.62500  Biso   1.000  Zn
  Zn36     1.0000 0.87500  0.87500  0.12500  Biso   1.000  Zn
  Zn37     1.0000 0.87500  0.62500  0.37500  Biso   1.000  Zn
  Zn38     1.0000 0.37500  0.62500  0.37500  Biso   1.000  Zn
  Zn39     1.0000 0.87500  0.12500  0.87500  Biso   1.000  Zn
  Zn40     1.0000 0.37500  0.12500  0.87500  Biso   1.000  Zn
  Zn41     1.0000 0.37500  0.62500  0.87500  Biso   1.000  Zn
  Zn42     1.0000 0.37500  0.12500  0.37500  Biso   1.000  Zn
  Zn43     1.0000 0.87500  0.12500  0.37500  Biso   1.000  Zn
  Zn44     1.0000 0.87500  0.62500  0.87500  Biso   1.000  Zn
  Zn45     1.0000 0.87500  0.37500  0.62500  Biso   1.000  Zn
  Zn46     1.0000 0.37500  0.87500  0.12500  Biso   1.000  Zn
  Zn47     1.0000 0.62500  0.87500  0.37500  Biso   1.000  Zn
  Zn48     1.0000 0.12500  0.37500  0.87500  Biso   1.000  Zn
