data_XOFGAC_clean
_audit_creation_date              2015-10-16
_audit_creation_method            'Materials Studio'
_symmetry_space_group_name_H-M    'P1'
_symmetry_Int_Tables_number       1
_symmetry_cell_setting            triclinic
loop_
_symmetry_equiv_pos_as_xyz
  x,y,z
_cell_length_a                    32.8939
_cell_length_b                    32.8939
_cell_length_c                    32.8939
_cell_angle_alpha                 109.4710
_cell_angle_beta                  109.4710
_cell_angle_gamma                 109.4710
loop_
_atom_site_label
_atom_site_type_symbol
_atom_site_fract_x
_atom_site_fract_y
_atom_site_fract_z
_atom_site_U_iso_or_equiv
_atom_site_adp_type
_atom_site_occupancy
Eu1    Eu    0.15480   0.65516   0.98738   0.01267  Uiso   1.00
Eu2    Eu    0.18600   0.68962   0.87562   0.01267  Uiso   1.00
Eu3    Eu    0.50036   0.66778   0.65516   0.01267  Uiso   1.00
Eu4    Eu    0.49964   0.33222   0.34484   0.01267  Uiso   1.00
Eu5    Eu    0.33222   0.34484   0.49964   0.01267  Uiso   1.00
Eu6    Eu    0.81400   0.68962   0.50362   0.01267  Uiso   1.00
Eu7    Eu    0.68962   0.87562   0.18600   0.01267  Uiso   1.00
Eu8    Eu    0.49638   0.18600   0.31038   0.01267  Uiso   1.00
Eu9    Eu    0.15480   0.16742   0.49964   0.01267  Uiso   1.00
Eu10   Eu    0.87562   0.18600   0.68962   0.01267  Uiso   1.00
Eu11   Eu    0.66778   0.65516   0.50036   0.01267  Uiso   1.00
Eu12   Eu    0.18600   0.31038   0.49638   0.01267  Uiso   1.00
Eu13   Eu    0.16742   0.01262   0.66778   0.01267  Uiso   1.00
Eu14   Eu    0.33222   0.83258   0.98738   0.01267  Uiso   1.00
Eu15   Eu    0.83258   0.50036   0.84520   0.01267  Uiso   1.00
Eu16   Eu    0.81400   0.31038   0.12438   0.01267  Uiso   1.00
Eu17   Eu    0.98738   0.15480   0.65516   0.01267  Uiso   1.00
Eu18   Eu    0.01262   0.84520   0.34484   0.01267  Uiso   1.00
Eu19   Eu    0.84520   0.34484   0.01262   0.01267  Uiso   1.00
Eu20   Eu    0.50036   0.84520   0.83258   0.01267  Uiso   1.00
Eu21   Eu    0.49964   0.15480   0.16742   0.01267  Uiso   1.00
Eu22   Eu    0.65516   0.50036   0.66778   0.01267  Uiso   1.00
Eu23   Eu    0.83258   0.98738   0.33222   0.01267  Uiso   1.00
Eu24   Eu    0.34484   0.01262   0.84520   0.01267  Uiso   1.00
Eu25   Eu    0.68962   0.50362   0.81400   0.01267  Uiso   1.00
Eu26   Eu    0.01262   0.66778   0.16742   0.01267  Uiso   1.00
Eu27   Eu    0.34484   0.49964   0.33222   0.01267  Uiso   1.00
Eu28   Eu    0.31038   0.12438   0.81400   0.01267  Uiso   1.00
Eu29   Eu    0.98738   0.33222   0.83258   0.01267  Uiso   1.00
Eu30   Eu    0.65516   0.98738   0.15480   0.01267  Uiso   1.00
Eu31   Eu    0.31038   0.49638   0.18600   0.01267  Uiso   1.00
Eu32   Eu    0.50362   0.81400   0.68962   0.01267  Uiso   1.00
Eu33   Eu    0.12438   0.81400   0.31038   0.01267  Uiso   1.00
Eu34   Eu    0.16742   0.49964   0.15480   0.01267  Uiso   1.00
Eu35   Eu    0.66778   0.16742   0.01262   0.01267  Uiso   1.00
Eu36   Eu    0.84520   0.83258   0.50036   0.01267  Uiso   1.00
H1     H     0.59380   0.62820   0.96560   0.01267  Uiso   1.00
H2     H     0.89230   0.48890   0.29660   0.01267  Uiso   1.00
H3     H     0.53870   0.38100   0.91970   0.01267  Uiso   1.00
H4     H     0.24070   0.10420   0.42690   0.01267  Uiso   1.00
H5     H     0.10420   0.42690   0.24070   0.01267  Uiso   1.00
H6     H     0.32270   0.89580   0.13650   0.01267  Uiso   1.00
H7     H     0.99930   0.59390   0.70280   0.01267  Uiso   1.00
H8     H     0.23960   0.97800   0.73840   0.01267  Uiso   1.00
H9     H     0.72430   0.11000   0.10570   0.01267  Uiso   1.00
H10    H     0.38100   0.84230   0.46130   0.01267  Uiso   1.00
H11    H     0.24510   0.20610   0.84540   0.01267  Uiso   1.00
H12    H     0.24510   0.39970   0.03900   0.01267  Uiso   1.00
H13    H     0.10280   0.22010   0.59850   0.01267  Uiso   1.00
H14    H     0.51110   0.70340   0.10770   0.01267  Uiso   1.00
H15    H     0.67730   0.10420   0.86350   0.01267  Uiso   1.00
H16    H     0.39080   0.48970   0.09890   0.01267  Uiso   1.00
H17    H     0.15770   0.53870   0.61900   0.01267  Uiso   1.00
H18    H     0.61860   0.61430   0.72430   0.01267  Uiso   1.00
H19    H     0.40610   0.40540   0.10890   0.01267  Uiso   1.00
H20    H     0.40140   0.85920   0.65040   0.01267  Uiso   1.00
H21    H     0.72430   0.61860   0.61430   0.01267  Uiso   1.00
H22    H     0.48890   0.29660   0.89230   0.01267  Uiso   1.00
H23    H     0.31540   0.66770   0.06570   0.01267  Uiso   1.00
H24    H     0.29720   0.89110   0.29650   0.01267  Uiso   1.00
H25    H     0.03900   0.63930   0.79390   0.01267  Uiso   1.00
H26    H     0.46130   0.38100   0.84230   0.01267  Uiso   1.00
H27    H     0.60030   0.96100   0.75490   0.01267  Uiso   1.00
H28    H     0.37180   0.96560   0.33740   0.01267  Uiso   1.00
H29    H     0.42690   0.32270   0.18620   0.01267  Uiso   1.00
H30    H     0.15460   0.75490   0.79390   0.01267  Uiso   1.00
H31    H     0.59850   0.10280   0.22010   0.01267  Uiso   1.00
H32    H     0.38140   0.38570   0.27570   0.01267  Uiso   1.00
H33    H     0.42690   0.24070   0.10420   0.01267  Uiso   1.00
H34    H     0.84540   0.63930   0.60030   0.01267  Uiso   1.00
H35    H     0.79120   0.24900   0.65040   0.01267  Uiso   1.00
H36    H     0.62160   0.22010   0.11730   0.01267  Uiso   1.00
H37    H     0.48970   0.09890   0.39080   0.01267  Uiso   1.00
H38    H     0.80770   0.40430   0.29660   0.01267  Uiso   1.00
H39    H     0.35230   0.68460   0.75030   0.01267  Uiso   1.00
H40    H     0.66260   0.62820   0.03440   0.01267  Uiso   1.00
H41    H     0.89720   0.49570   0.11730   0.01267  Uiso   1.00
H42    H     0.37840   0.77990   0.88270   0.01267  Uiso   1.00
H43    H     0.60920   0.51030   0.90110   0.01267  Uiso   1.00
H44    H     0.33230   0.64770   0.39800   0.01267  Uiso   1.00
H45    H     0.81380   0.13650   0.24070   0.01267  Uiso   1.00
H46    H     0.59860   0.14080   0.34960   0.01267  Uiso   1.00
H47    H     0.03900   0.24510   0.39970   0.01267  Uiso   1.00
H48    H     0.70350   0.70280   0.10890   0.01267  Uiso   1.00
H49    H     0.61430   0.72430   0.61860   0.01267  Uiso   1.00
H50    H     0.84540   0.24510   0.20610   0.01267  Uiso   1.00
H51    H     0.59390   0.70280   0.99930   0.01267  Uiso   1.00
H52    H     0.54220   0.40140   0.75100   0.01267  Uiso   1.00
H53    H     0.61900   0.15770   0.53870   0.01267  Uiso   1.00
H54    H     0.11730   0.89720   0.49570   0.01267  Uiso   1.00
H55    H     0.40340   0.80770   0.51110   0.01267  Uiso   1.00
H56    H     0.96560   0.33740   0.37180   0.01267  Uiso   1.00
H57    H     0.89430   0.27570   0.89000   0.01267  Uiso   1.00
H58    H     0.24970   0.64770   0.31540   0.01267  Uiso   1.00
H59    H     0.10420   0.86350   0.67730   0.01267  Uiso   1.00
H60    H     0.79120   0.14080   0.54220   0.01267  Uiso   1.00
H61    H     0.59460   0.00070   0.70350   0.01267  Uiso   1.00
H62    H     0.67730   0.81380   0.57310   0.01267  Uiso   1.00
H63    H     0.68460   0.75030   0.35230   0.01267  Uiso   1.00
H64    H     0.40620   0.37180   0.03440   0.01267  Uiso   1.00
H65    H     0.62820   0.96560   0.59380   0.01267  Uiso   1.00
H66    H     0.93430   0.68460   0.33230   0.01267  Uiso   1.00
H67    H     0.24970   0.93430   0.60200   0.01267  Uiso   1.00
H68    H     0.27570   0.38140   0.38570   0.01267  Uiso   1.00
H69    H     0.19230   0.59570   0.70340   0.01267  Uiso   1.00
H70    H     0.40610   0.29720   0.00070   0.01267  Uiso   1.00
H71    H     0.75030   0.35230   0.68460   0.01267  Uiso   1.00
H72    H     0.49570   0.11730   0.89720   0.01267  Uiso   1.00
H73    H     0.50120   0.26160   0.23960   0.01267  Uiso   1.00
H74    H     0.50430   0.88270   0.10280   0.01267  Uiso   1.00
H75    H     0.40340   0.89230   0.59570   0.01267  Uiso   1.00
H76    H     0.99570   0.89000   0.61430   0.01267  Uiso   1.00
H77    H     0.10570   0.72430   0.11000   0.01267  Uiso   1.00
H78    H     0.24070   0.81380   0.13650   0.01267  Uiso   1.00
H79    H     0.26160   0.23960   0.50120   0.01267  Uiso   1.00
H80    H     0.24900   0.65040   0.79120   0.01267  Uiso   1.00
H81    H     0.59570   0.40340   0.89230   0.01267  Uiso   1.00
H82    H     0.20880   0.75100   0.34960   0.01267  Uiso   1.00
H83    H     0.36070   0.20610   0.96100   0.01267  Uiso   1.00
H84    H     0.85920   0.45780   0.20880   0.01267  Uiso   1.00
H85    H     0.45780   0.20880   0.85920   0.01267  Uiso   1.00
H86    H     0.70340   0.10770   0.51110   0.01267  Uiso   1.00
H87    H     0.99930   0.29650   0.40540   0.01267  Uiso   1.00
H88    H     0.10570   0.99570   0.38140   0.01267  Uiso   1.00
H89    H     0.11000   0.38570   0.00430   0.01267  Uiso   1.00
H90    H     0.60920   0.70810   0.09890   0.01267  Uiso   1.00
H91    H     0.33740   0.37180   0.96560   0.01267  Uiso   1.00
H92    H     0.29720   0.00070   0.40610   0.01267  Uiso   1.00
H93    H     0.91970   0.53870   0.38100   0.01267  Uiso   1.00
H94    H     0.57310   0.67730   0.81380   0.01267  Uiso   1.00
H95    H     0.73840   0.76040   0.49880   0.01267  Uiso   1.00
H96    H     0.62820   0.03440   0.66260   0.01267  Uiso   1.00
H97    H     0.89110   0.59390   0.59460   0.01267  Uiso   1.00
H98    H     0.50430   0.40150   0.62160   0.01267  Uiso   1.00
H99    H     0.59390   0.59460   0.89110   0.01267  Uiso   1.00
H100   H     0.40150   0.89720   0.77990   0.01267  Uiso   1.00
H101   H     0.40430   0.29660   0.80770   0.01267  Uiso   1.00
H102   H     0.64770   0.39800   0.33230   0.01267  Uiso   1.00
H103   H     0.81380   0.57310   0.67730   0.01267  Uiso   1.00
H104   H     0.96560   0.59380   0.62820   0.01267  Uiso   1.00
H105   H     0.40540   0.99930   0.29650   0.01267  Uiso   1.00
H106   H     0.49570   0.59850   0.37840   0.01267  Uiso   1.00
H107   H     0.00070   0.70350   0.59460   0.01267  Uiso   1.00
H108   H     0.60030   0.84540   0.63930   0.01267  Uiso   1.00
H109   H     0.48890   0.59660   0.19230   0.01267  Uiso   1.00
H110   H     0.75490   0.79390   0.15460   0.01267  Uiso   1.00
H111   H     0.39800   0.75030   0.06570   0.01267  Uiso   1.00
H112   H     0.10770   0.40430   0.59660   0.01267  Uiso   1.00
H113   H     0.75030   0.06570   0.39800   0.01267  Uiso   1.00
H114   H     0.60200   0.66770   0.35230   0.01267  Uiso   1.00
H115   H     0.10890   0.70350   0.70280   0.01267  Uiso   1.00
H116   H     0.86350   0.67730   0.10420   0.01267  Uiso   1.00
H117   H     0.88270   0.10280   0.50430   0.01267  Uiso   1.00
H118   H     0.53870   0.61900   0.15770   0.01267  Uiso   1.00
H119   H     0.45780   0.59860   0.24900   0.01267  Uiso   1.00
H120   H     0.96100   0.75490   0.60030   0.01267  Uiso   1.00
H121   H     0.31540   0.24970   0.64770   0.01267  Uiso   1.00
H122   H     0.80770   0.51110   0.40340   0.01267  Uiso   1.00
H123   H     0.66770   0.06570   0.31540   0.01267  Uiso   1.00
H124   H     0.70350   0.59460   0.00070   0.01267  Uiso   1.00
H125   H     0.40540   0.10890   0.40610   0.01267  Uiso   1.00
H126   H     0.65040   0.40140   0.85920   0.01267  Uiso   1.00
H127   H     0.70280   0.99930   0.59390   0.01267  Uiso   1.00
H128   H     0.64770   0.31540   0.24970   0.01267  Uiso   1.00
H129   H     0.70280   0.10890   0.70350   0.01267  Uiso   1.00
H130   H     0.75930   0.18620   0.86350   0.01267  Uiso   1.00
H131   H     0.60200   0.24970   0.93430   0.01267  Uiso   1.00
H132   H     0.96100   0.36070   0.20610   0.01267  Uiso   1.00
H133   H     0.73840   0.23960   0.97800   0.01267  Uiso   1.00
H134   H     0.51110   0.40340   0.80770   0.01267  Uiso   1.00
H135   H     0.29190   0.90110   0.39080   0.01267  Uiso   1.00
H136   H     0.61860   0.89430   0.00430   0.01267  Uiso   1.00
H137   H     0.34960   0.20880   0.75100   0.01267  Uiso   1.00
H138   H     0.68460   0.33230   0.93430   0.01267  Uiso   1.00
H139   H     0.19230   0.48890   0.59660   0.01267  Uiso   1.00
H140   H     0.89580   0.57310   0.75930   0.01267  Uiso   1.00
H141   H     0.66770   0.35230   0.60200   0.01267  Uiso   1.00
H142   H     0.59660   0.10770   0.40430   0.01267  Uiso   1.00
H143   H     0.06570   0.39800   0.75030   0.01267  Uiso   1.00
H144   H     0.29650   0.29720   0.89110   0.01267  Uiso   1.00
H145   H     0.51030   0.90110   0.60920   0.01267  Uiso   1.00
H146   H     0.90110   0.60920   0.51030   0.01267  Uiso   1.00
H147   H     0.33230   0.93430   0.68460   0.01267  Uiso   1.00
H148   H     0.85920   0.65040   0.40140   0.01267  Uiso   1.00
H149   H     0.38570   0.27570   0.38140   0.01267  Uiso   1.00
H150   H     0.77990   0.88270   0.37840   0.01267  Uiso   1.00
H151   H     0.89000   0.61430   0.99570   0.01267  Uiso   1.00
H152   H     0.59460   0.89110   0.59390   0.01267  Uiso   1.00
H153   H     0.54220   0.79120   0.14080   0.01267  Uiso   1.00
H154   H     0.15460   0.36070   0.39970   0.01267  Uiso   1.00
H155   H     0.63930   0.60030   0.84540   0.01267  Uiso   1.00
H156   H     0.36070   0.39970   0.15460   0.01267  Uiso   1.00
H157   H     0.65040   0.79120   0.24900   0.01267  Uiso   1.00
H158   H     0.18620   0.86350   0.75930   0.01267  Uiso   1.00
H159   H     0.13650   0.32270   0.89580   0.01267  Uiso   1.00
H160   H     0.10770   0.51110   0.70340   0.01267  Uiso   1.00
H161   H     0.37840   0.49570   0.59850   0.01267  Uiso   1.00
H162   H     0.75100   0.34960   0.20880   0.01267  Uiso   1.00
H163   H     0.99570   0.38140   0.10570   0.01267  Uiso   1.00
H164   H     0.89000   0.89430   0.27570   0.01267  Uiso   1.00
H165   H     0.09890   0.39080   0.48970   0.01267  Uiso   1.00
H166   H     0.22010   0.59850   0.10280   0.01267  Uiso   1.00
H167   H     0.20610   0.96100   0.36070   0.01267  Uiso   1.00
H168   H     0.89110   0.29650   0.29720   0.01267  Uiso   1.00
H169   H     0.02200   0.26160   0.76040   0.01267  Uiso   1.00
H170   H     0.09890   0.60920   0.70810   0.01267  Uiso   1.00
H171   H     0.23960   0.50120   0.26160   0.01267  Uiso   1.00
H172   H     0.40430   0.59660   0.10770   0.01267  Uiso   1.00
H173   H     0.77990   0.40150   0.89720   0.01267  Uiso   1.00
H174   H     0.75490   0.60030   0.96100   0.01267  Uiso   1.00
H175   H     0.24900   0.45780   0.59860   0.01267  Uiso   1.00
H176   H     0.32270   0.18620   0.42690   0.01267  Uiso   1.00
H177   H     0.59660   0.19230   0.48890   0.01267  Uiso   1.00
H178   H     0.76040   0.02200   0.26160   0.01267  Uiso   1.00
H179   H     0.37180   0.03440   0.40620   0.01267  Uiso   1.00
H180   H     0.61900   0.08030   0.46130   0.01267  Uiso   1.00
H181   H     0.57310   0.75930   0.89580   0.01267  Uiso   1.00
H182   H     0.70340   0.19230   0.59570   0.01267  Uiso   1.00
H183   H     0.59860   0.24900   0.45780   0.01267  Uiso   1.00
H184   H     0.27570   0.89000   0.89430   0.01267  Uiso   1.00
H185   H     0.39970   0.15460   0.36070   0.01267  Uiso   1.00
H186   H     0.79390   0.03900   0.63930   0.01267  Uiso   1.00
H187   H     0.00430   0.61860   0.89430   0.01267  Uiso   1.00
H188   H     0.20610   0.84540   0.24510   0.01267  Uiso   1.00
H189   H     0.79390   0.15460   0.75490   0.01267  Uiso   1.00
H190   H     0.97800   0.73840   0.23960   0.01267  Uiso   1.00
H191   H     0.86350   0.75930   0.18620   0.01267  Uiso   1.00
H192   H     0.75930   0.89580   0.57310   0.01267  Uiso   1.00
H193   H     0.49880   0.73840   0.76040   0.01267  Uiso   1.00
H194   H     0.14080   0.34960   0.59860   0.01267  Uiso   1.00
H195   H     0.40140   0.75100   0.54220   0.01267  Uiso   1.00
H196   H     0.84230   0.46130   0.38100   0.01267  Uiso   1.00
H197   H     0.11000   0.10570   0.72430   0.01267  Uiso   1.00
H198   H     0.03440   0.40620   0.37180   0.01267  Uiso   1.00
H199   H     0.26160   0.76040   0.02200   0.01267  Uiso   1.00
H200   H     0.38140   0.10570   0.99570   0.01267  Uiso   1.00
H201   H     0.63930   0.79390   0.03900   0.01267  Uiso   1.00
H202   H     0.06570   0.31540   0.66770   0.01267  Uiso   1.00
H203   H     0.10890   0.40610   0.40540   0.01267  Uiso   1.00
H204   H     0.03440   0.66260   0.62820   0.01267  Uiso   1.00
H205   H     0.46130   0.61900   0.08030   0.01267  Uiso   1.00
H206   H     0.89430   0.00430   0.61860   0.01267  Uiso   1.00
H207   H     0.62160   0.50430   0.40150   0.01267  Uiso   1.00
H208   H     0.35230   0.60200   0.66770   0.01267  Uiso   1.00
H209   H     0.38570   0.00430   0.11000   0.01267  Uiso   1.00
H210   H     0.90110   0.39080   0.29190   0.01267  Uiso   1.00
H211   H     0.14080   0.54220   0.79120   0.01267  Uiso   1.00
H212   H     0.39800   0.33230   0.64770   0.01267  Uiso   1.00
H213   H     0.29660   0.80770   0.40430   0.01267  Uiso   1.00
H214   H     0.88270   0.37840   0.77990   0.01267  Uiso   1.00
H215   H     0.00070   0.40610   0.29720   0.01267  Uiso   1.00
H216   H     0.22010   0.11730   0.62160   0.01267  Uiso   1.00
H217   H     0.29650   0.40540   0.99930   0.01267  Uiso   1.00
H218   H     0.89580   0.13650   0.32270   0.01267  Uiso   1.00
H219   H     0.40150   0.62160   0.50430   0.01267  Uiso   1.00
H220   H     0.75100   0.54220   0.40140   0.01267  Uiso   1.00
H221   H     0.13650   0.24070   0.81380   0.01267  Uiso   1.00
H222   H     0.39970   0.03900   0.24510   0.01267  Uiso   1.00
H223   H     0.70810   0.09890   0.60920   0.01267  Uiso   1.00
H224   H     0.38100   0.91970   0.53870   0.01267  Uiso   1.00
H225   H     0.59570   0.70340   0.19230   0.01267  Uiso   1.00
H226   H     0.61430   0.99570   0.89000   0.01267  Uiso   1.00
H227   H     0.20880   0.85920   0.45780   0.01267  Uiso   1.00
H228   H     0.08030   0.46130   0.61900   0.01267  Uiso   1.00
H229   H     0.39080   0.29190   0.90110   0.01267  Uiso   1.00
H230   H     0.34960   0.59860   0.14080   0.01267  Uiso   1.00
H231   H     0.89720   0.77990   0.40150   0.01267  Uiso   1.00
H232   H     0.18620   0.42690   0.32270   0.01267  Uiso   1.00
H233   H     0.10280   0.50430   0.88270   0.01267  Uiso   1.00
H234   H     0.29660   0.89230   0.48890   0.01267  Uiso   1.00
H235   H     0.76040   0.49880   0.73840   0.01267  Uiso   1.00
H236   H     0.11730   0.62160   0.22010   0.01267  Uiso   1.00
H237   H     0.59850   0.37840   0.49570   0.01267  Uiso   1.00
H238   H     0.89230   0.59570   0.40340   0.01267  Uiso   1.00
H239   H     0.00430   0.11000   0.38570   0.01267  Uiso   1.00
H240   H     0.93430   0.60200   0.24970   0.01267  Uiso   1.00
C1     C     0.10290   0.49510   0.85280   0.01267  Uiso   1.00
C2     C     0.09580   0.43440   0.16260   0.01267  Uiso   1.00
C3     C     0.08050   0.44510   0.81820   0.01267  Uiso   1.00
C4     C     0.33990   0.63540   0.10330   0.01267  Uiso   1.00
C5     C     0.58210   0.22690   0.17860   0.01267  Uiso   1.00
C6     C     0.43500   0.23670   0.35270   0.01267  Uiso   1.00
C7     C     0.61120   0.34840   0.89600   0.01267  Uiso   1.00
C8     C     0.76340   0.29550   0.66010   0.01267  Uiso   1.00
C9     C     0.35770   0.74990   0.85280   0.01267  Uiso   1.00
C10    C     0.22690   0.17860   0.58210   0.01267  Uiso   1.00
C11    C     0.35270   0.11600   0.91770   0.01267  Uiso   1.00
C12    C     0.33990   0.23660   0.70450   0.01267  Uiso   1.00
C13    C     0.28010   0.67230   0.79800   0.01267  Uiso   1.00
C14    C     0.10400   0.38880   0.65160   0.01267  Uiso   1.00
C15    C     0.61250   0.82500   0.62770   0.01267  Uiso   1.00
C16    C     0.09440   0.40280   0.37400   0.01267  Uiso   1.00
C17    C     0.00560   0.38480   0.13720   0.01267  Uiso   1.00
C18    C     0.08230   0.19830   0.43500   0.01267  Uiso   1.00
C19    C     0.59300   0.82900   0.94420   0.01267  Uiso   1.00
C20    C     0.91770   0.35270   0.11600   0.01267  Uiso   1.00
C21    C     0.45220   0.35830   0.81050   0.01267  Uiso   1.00
C22    C     0.73770   0.81820   0.37310   0.01267  Uiso   1.00
C23    C     0.17500   0.37230   0.38750   0.01267  Uiso   1.00
C24    C     0.35960   0.96500   0.19620   0.01267  Uiso   1.00
C25    C     0.36460   0.91950   0.73770   0.01267  Uiso   1.00
C26    C     0.77350   0.34210   0.69280   0.01267  Uiso   1.00
C27    C     0.78200   0.92950   0.58810   0.01267  Uiso   1.00
C28    C     0.02880   0.40280   0.30840   0.01267  Uiso   1.00
C29    C     0.81980   0.84970   0.21710   0.01267  Uiso   1.00
C30    C     0.43140   0.77350   0.08070   0.01267  Uiso   1.00
C31    C     0.61520   0.62080   0.75240   0.01267  Uiso   1.00
C32    C     0.17860   0.58210   0.22690   0.01267  Uiso   1.00
C33    C     0.40280   0.37400   0.09440   0.01267  Uiso   1.00
C34    C     0.01520   0.21250   0.38750   0.01267  Uiso   1.00
C35    C     0.19730   0.82500   0.21250   0.01267  Uiso   1.00
C36    C     0.83740   0.90420   0.56560   0.01267  Uiso   1.00
C37    C     0.56560   0.83740   0.90420   0.01267  Uiso   1.00
C38    C     0.15730   0.87450   0.46840   0.01267  Uiso   1.00
C39    C     0.58810   0.65860   0.80610   0.01267  Uiso   1.00
C40    C     0.84270   0.12550   0.53160   0.01267  Uiso   1.00
C41    C     0.35070   0.65790   0.43140   0.01267  Uiso   1.00
C42    C     0.80610   0.14750   0.21800   0.01267  Uiso   1.00
C43    C     0.83740   0.27180   0.93320   0.01267  Uiso   1.00
C44    C     0.10400   0.45240   0.71520   0.01267  Uiso   1.00
C45    C     0.88290   0.37450   0.25740   0.01267  Uiso   1.00
C46    C     0.66010   0.76340   0.29550   0.01267  Uiso   1.00
C47    C     0.98480   0.78750   0.61250   0.01267  Uiso   1.00
C48    C     0.73720   0.45240   0.34840   0.01267  Uiso   1.00
C49    C     0.09390   0.45220   0.64170   0.01267  Uiso   1.00
C50    C     0.11520   0.35120   0.94420   0.01267  Uiso   1.00
C51    C     0.41310   0.62380   0.10290   0.01267  Uiso   1.00
C52    C     0.26280   0.54760   0.65160   0.01267  Uiso   1.00
C53    C     0.93320   0.83740   0.27180   0.01267  Uiso   1.00
C54    C     0.53210   0.63540   0.29550   0.01267  Uiso   1.00
C55    C     0.88400   0.08230   0.64730   0.01267  Uiso   1.00
C56    C     0.41790   0.77310   0.82140   0.01267  Uiso   1.00
C57    C     0.27240   0.57110   0.15630   0.01267  Uiso   1.00
C58    C     0.96500   0.60540   0.76880   0.01267  Uiso   1.00
C59    C     0.72820   0.06680   0.16260   0.01267  Uiso   1.00
C60    C     0.28280   0.59390   0.12550   0.01267  Uiso   1.00
C61    C     0.15630   0.58520   0.88390   0.01267  Uiso   1.00
C62    C     0.60780   0.12570   0.32770   0.01267  Uiso   1.00
C63    C     0.28280   0.15730   0.68890   0.01267  Uiso   1.00
C64    C     0.62770   0.80270   0.01520   0.01267  Uiso   1.00
C65    C     0.80380   0.76880   0.16340   0.01267  Uiso   1.00
C66    C     0.94940   0.59580   0.64640   0.01267  Uiso   1.00
C67    C     0.75240   0.61520   0.62080   0.01267  Uiso   1.00
C68    C     0.78200   0.19390   0.85250   0.01267  Uiso   1.00
C69    C     0.81050   0.45220   0.35830   0.01267  Uiso   1.00
C70    C     0.62600   0.02880   0.72040   0.01267  Uiso   1.00
C71    C     0.28010   0.48210   0.60780   0.01267  Uiso   1.00
C72    C     0.37310   0.55490   0.63540   0.01267  Uiso   1.00
C73    C     0.05580   0.40700   0.17100   0.01267  Uiso   1.00
C74    C     0.58690   0.68980   0.21070   0.01267  Uiso   1.00
C75    C     0.69160   0.09440   0.72040   0.01267  Uiso   1.00
C76    C     0.38480   0.13720   0.00560   0.01267  Uiso   1.00
C77    C     0.04830   0.22690   0.64480   0.01267  Uiso   1.00
C78    C     0.19620   0.23120   0.83660   0.01267  Uiso   1.00
C79    C     0.33860   0.27180   0.43440   0.01267  Uiso   1.00
C80    C     0.57110   0.29870   0.41480   0.01267  Uiso   1.00
C81    C     0.59580   0.64640   0.94940   0.01267  Uiso   1.00
C82    C     0.82140   0.04830   0.40350   0.01267  Uiso   1.00
C83    C     0.79800   0.12570   0.51790   0.01267  Uiso   1.00
C84    C     0.49510   0.39220   0.64230   0.01267  Uiso   1.00
C85    C     0.70130   0.58520   0.42890   0.01267  Uiso   1.00
C86    C     0.71990   0.51790   0.39220   0.01267  Uiso   1.00
C87    C     0.21250   0.19730   0.82500   0.01267  Uiso   1.00
C88    C     0.78750   0.80270   0.17500   0.01267  Uiso   1.00
C89    C     0.39730   0.02990   0.18020   0.01267  Uiso   1.00
C90    C     0.00560   0.86840   0.62080   0.01267  Uiso   1.00
C91    C     0.05060   0.40420   0.35360   0.01267  Uiso   1.00
C92    C     0.36460   0.70450   0.46790   0.01267  Uiso   1.00
C93    C     0.34140   0.92950   0.14750   0.01267  Uiso   1.00
C94    C     0.88400   0.23670   0.80170   0.01267  Uiso   1.00
C95    C     0.71520   0.10400   0.45240   0.01267  Uiso   1.00
C96    C     0.62550   0.50840   0.88290   0.01267  Uiso   1.00
C97    C     0.59390   0.31110   0.46840   0.01267  Uiso   1.00
C98    C     0.71720   0.84270   0.31110   0.01267  Uiso   1.00
C99    C     0.84970   0.21710   0.81980   0.01267  Uiso   1.00
C100   C     0.17500   0.78750   0.80270   0.01267  Uiso   1.00
C101   C     0.74400   0.98740   0.24340   0.01267  Uiso   1.00
C102   C     0.51790   0.79800   0.12570   0.01267  Uiso   1.00
C103   C     0.15630   0.27240   0.57110   0.01267  Uiso   1.00
C104   C     0.19390   0.41190   0.34140   0.01267  Uiso   1.00
C105   C     0.59720   0.69160   0.97120   0.01267  Uiso   1.00
C106   C     0.60780   0.10290   0.25010   0.01267  Uiso   1.00
C107   C     0.08070   0.43140   0.77350   0.01267  Uiso   1.00
C108   C     0.37230   0.38750   0.17500   0.01267  Uiso   1.00
C109   C     0.74990   0.39220   0.89710   0.01267  Uiso   1.00
C110   C     0.10330   0.33990   0.63540   0.01267  Uiso   1.00
C111   C     0.95170   0.77310   0.35520   0.01267  Uiso   1.00
C112   C     0.63540   0.10330   0.33990   0.01267  Uiso   1.00
C113   C     0.70450   0.33990   0.23660   0.01267  Uiso   1.00
C114   C     0.64170   0.18950   0.54780   0.01267  Uiso   1.00
C115   C     0.34140   0.19390   0.41190   0.01267  Uiso   1.00
C116   C     0.13160   0.37920   0.99440   0.01267  Uiso   1.00
C117   C     0.08070   0.30720   0.64930   0.01267  Uiso   1.00
C118   C     0.62770   0.61250   0.82500   0.01267  Uiso   1.00
C119   C     0.81820   0.08050   0.44510   0.01267  Uiso   1.00
C120   C     0.50490   0.14720   0.89710   0.01267  Uiso   1.00
C121   C     0.79800   0.28010   0.67230   0.01267  Uiso   1.00
C122   C     0.25600   0.49940   0.24340   0.01267  Uiso   1.00
C123   C     0.62380   0.21070   0.52090   0.01267  Uiso   1.00
C124   C     0.64640   0.05060   0.69700   0.01267  Uiso   1.00
C125   C     0.60390   0.71800   0.94630   0.01267  Uiso   1.00
C126   C     0.72760   0.88390   0.29870   0.01267  Uiso   1.00
C127   C     0.19620   0.35960   0.96500   0.01267  Uiso   1.00
C128   C     0.89710   0.58690   0.37620   0.01267  Uiso   1.00
C129   C     0.11600   0.76330   0.19830   0.01267  Uiso   1.00
C130   C     0.10290   0.25010   0.60780   0.01267  Uiso   1.00
C131   C     0.24760   0.38480   0.37920   0.01267  Uiso   1.00
C132   C     0.45220   0.64170   0.09390   0.01267  Uiso   1.00
C133   C     0.59650   0.64480   0.41790   0.01267  Uiso   1.00
C134   C     0.94940   0.30300   0.35360   0.01267  Uiso   1.00
C135   C     0.83660   0.19620   0.23120   0.01267  Uiso   1.00
C136   C     0.40700   0.17100   0.05580   0.01267  Uiso   1.00
C137   C     0.03500   0.80380   0.64040   0.01267  Uiso   1.00
C138   C     0.54780   0.35830   0.90610   0.01267  Uiso   1.00
C139   C     0.35360   0.05060   0.40420   0.01267  Uiso   1.00
C140   C     0.36460   0.89670   0.66010   0.01267  Uiso   1.00
C141   C     0.80170   0.56500   0.91770   0.01267  Uiso   1.00
C142   C     0.58690   0.37620   0.89710   0.01267  Uiso   1.00
C143   C     0.37400   0.09440   0.40280   0.01267  Uiso   1.00
C144   C     0.53210   0.23660   0.89670   0.01267  Uiso   1.00
C145   C     0.49940   0.24340   0.25600   0.01267  Uiso   1.00
C146   C     0.62080   0.00560   0.86840   0.01267  Uiso   1.00
C147   C     0.97010   0.36740   0.15030   0.01267  Uiso   1.00
C148   C     0.51790   0.39220   0.71990   0.01267  Uiso   1.00
C149   C     0.45240   0.71520   0.10400   0.01267  Uiso   1.00
C150   C     0.92950   0.58810   0.78200   0.01267  Uiso   1.00
C151   C     0.89710   0.74990   0.39220   0.01267  Uiso   1.00
C152   C     0.49160   0.11710   0.37450   0.01267  Uiso   1.00
C153   C     0.70450   0.46790   0.36460   0.01267  Uiso   1.00
C154   C     0.30840   0.02880   0.40280   0.01267  Uiso   1.00
C155   C     0.28480   0.73720   0.38880   0.01267  Uiso   1.00
C156   C     0.69280   0.35070   0.91930   0.01267  Uiso   1.00
C157   C     0.59650   0.17860   0.95170   0.01267  Uiso   1.00
C158   C     0.52090   0.62380   0.21070   0.01267  Uiso   1.00
C159   C     0.19830   0.43500   0.08230   0.01267  Uiso   1.00
C160   C     0.60270   0.97010   0.81980   0.01267  Uiso   1.00
C161   C     0.62080   0.75240   0.61520   0.01267  Uiso   1.00
C162   C     0.35520   0.58210   0.40350   0.01267  Uiso   1.00
C163   C     0.94420   0.11520   0.35120   0.01267  Uiso   1.00
C164   C     0.40610   0.87450   0.71720   0.01267  Uiso   1.00
C165   C     0.86840   0.86280   0.24760   0.01267  Uiso   1.00
C166   C     0.76880   0.16340   0.80380   0.01267  Uiso   1.00
C167   C     0.24340   0.74400   0.98740   0.01267  Uiso   1.00
C168   C     0.28480   0.89600   0.54760   0.01267  Uiso   1.00
C169   C     0.84370   0.41480   0.11610   0.01267  Uiso   1.00
C170   C     0.18020   0.15030   0.78290   0.01267  Uiso   1.00
C171   C     0.65790   0.43140   0.35070   0.01267  Uiso   1.00
C172   C     0.48210   0.60780   0.28010   0.01267  Uiso   1.00
C173   C     0.76340   0.10330   0.46790   0.01267  Uiso   1.00
C174   C     0.32770   0.20200   0.71990   0.01267  Uiso   1.00
C175   C     0.38880   0.65160   0.10400   0.01267  Uiso   1.00
C176   C     0.75660   0.25600   0.01260   0.01267  Uiso   1.00
C177   C     0.85250   0.65860   0.07050   0.01267  Uiso   1.00
C178   C     0.13160   0.13720   0.75240   0.01267  Uiso   1.00
C179   C     0.21710   0.36740   0.39730   0.01267  Uiso   1.00
C180   C     0.37450   0.25740   0.88290   0.01267  Uiso   1.00
C181   C     0.64930   0.34210   0.56860   0.01267  Uiso   1.00
C182   C     0.57110   0.15630   0.27240   0.01267  Uiso   1.00
C183   C     0.25740   0.88290   0.37450   0.01267  Uiso   1.00
C184   C     0.14720   0.89710   0.50490   0.01267  Uiso   1.00
C185   C     0.27960   0.30840   0.90560   0.01267  Uiso   1.00
C186   C     0.11520   0.17100   0.76400   0.01267  Uiso   1.00
C187   C     0.35360   0.94940   0.30300   0.01267  Uiso   1.00
C188   C     0.15030   0.78290   0.18020   0.01267  Uiso   1.00
C189   C     0.69280   0.77350   0.34210   0.01267  Uiso   1.00
C190   C     0.37400   0.97120   0.27960   0.01267  Uiso   1.00
C191   C     0.30720   0.64930   0.08070   0.01267  Uiso   1.00
C192   C     0.37230   0.19730   0.98480   0.01267  Uiso   1.00
C193   C     0.29870   0.41480   0.57110   0.01267  Uiso   1.00
C194   C     0.23660   0.89670   0.53210   0.01267  Uiso   1.00
C195   C     0.74260   0.11710   0.62550   0.01267  Uiso   1.00
C196   C     0.28200   0.88590   0.22830   0.01267  Uiso   1.00
C197   C     0.38750   0.17500   0.37230   0.01267  Uiso   1.00
C198   C     0.40700   0.35120   0.23600   0.01267  Uiso   1.00
C199   C     0.69700   0.64640   0.05060   0.01267  Uiso   1.00
C200   C     0.76400   0.59300   0.64880   0.01267  Uiso   1.00
C201   C     0.14720   0.64230   0.25010   0.01267  Uiso   1.00
C202   C     0.39610   0.28200   0.05370   0.01267  Uiso   1.00
C203   C     0.86840   0.62080   0.00560   0.01267  Uiso   1.00
C204   C     0.75660   0.74400   0.50060   0.01267  Uiso   1.00
C205   C     0.15730   0.68890   0.28280   0.01267  Uiso   1.00
C206   C     0.78290   0.18020   0.15030   0.01267  Uiso   1.00
C207   C     0.01520   0.62770   0.80270   0.01267  Uiso   1.00
C208   C     0.29550   0.66010   0.76340   0.01267  Uiso   1.00
C209   C     0.31110   0.71720   0.84270   0.01267  Uiso   1.00
C210   C     0.32770   0.60780   0.12570   0.01267  Uiso   1.00
C211   C     0.94630   0.22830   0.34240   0.01267  Uiso   1.00
C212   C     0.91930   0.56860   0.22650   0.01267  Uiso   1.00
C213   C     0.64040   0.03500   0.80380   0.01267  Uiso   1.00
C214   C     0.53160   0.84270   0.12550   0.01267  Uiso   1.00
C215   C     0.76880   0.96500   0.60540   0.01267  Uiso   1.00
C216   C     0.87430   0.48210   0.20200   0.01267  Uiso   1.00
C217   C     0.45240   0.34840   0.73720   0.01267  Uiso   1.00
C218   C     0.22830   0.28200   0.88590   0.01267  Uiso   1.00
C219   C     0.63260   0.84970   0.02990   0.01267  Uiso   1.00
C220   C     0.88390   0.29870   0.72760   0.01267  Uiso   1.00
C221   C     0.27180   0.43440   0.33860   0.01267  Uiso   1.00
C222   C     0.18180   0.62690   0.26230   0.01267  Uiso   1.00
C223   C     0.39730   0.21710   0.36740   0.01267  Uiso   1.00
C224   C     0.81820   0.37310   0.73770   0.01267  Uiso   1.00
C225   C     0.35520   0.95170   0.77310   0.01267  Uiso   1.00
C226   C     0.08050   0.26230   0.63540   0.01267  Uiso   1.00
C227   C     0.21250   0.38750   0.01520   0.01267  Uiso   1.00
C228   C     0.35960   0.16340   0.39460   0.01267  Uiso   1.00
C229   C     0.78930   0.41310   0.31020   0.01267  Uiso   1.00
C230   C     0.82500   0.21250   0.19730   0.01267  Uiso   1.00
C231   C     0.71800   0.11410   0.77170   0.01267  Uiso   1.00
C232   C     0.37310   0.73770   0.81820   0.01267  Uiso   1.00
C233   C     0.02990   0.18020   0.39730   0.01267  Uiso   1.00
C234   C     0.16260   0.09580   0.43440   0.01267  Uiso   1.00
C235   C     0.85250   0.78200   0.19390   0.01267  Uiso   1.00
C236   C     0.98740   0.24340   0.74400   0.01267  Uiso   1.00
C237   C     0.38880   0.28480   0.73720   0.01267  Uiso   1.00
C238   C     0.44510   0.36460   0.62690   0.01267  Uiso   1.00
C239   C     0.38480   0.37920   0.24760   0.01267  Uiso   1.00
C240   C     0.23660   0.70450   0.33990   0.01267  Uiso   1.00
C241   C     0.69160   0.97120   0.59720   0.01267  Uiso   1.00
C242   C     0.77170   0.65760   0.05370   0.01267  Uiso   1.00
C243   C     0.17860   0.95170   0.59650   0.01267  Uiso   1.00
C244   C     0.80270   0.17500   0.78750   0.01267  Uiso   1.00
C245   C     0.26230   0.63540   0.08050   0.01267  Uiso   1.00
C246   C     0.90420   0.06680   0.33860   0.01267  Uiso   1.00
C247   C     0.21710   0.81980   0.84970   0.01267  Uiso   1.00
C248   C     0.23670   0.80170   0.88400   0.01267  Uiso   1.00
C249   C     0.61520   0.86280   0.99440   0.01267  Uiso   1.00
C250   C     0.17100   0.05580   0.40700   0.01267  Uiso   1.00
C251   C     0.18180   0.91950   0.55490   0.01267  Uiso   1.00
C252   C     0.98480   0.37230   0.19730   0.01267  Uiso   1.00
C253   C     0.56500   0.76330   0.64730   0.01267  Uiso   1.00
C254   C     0.80270   0.01520   0.62770   0.01267  Uiso   1.00
C255   C     0.55490   0.63540   0.37310   0.01267  Uiso   1.00
C256   C     0.11600   0.91770   0.35270   0.01267  Uiso   1.00
C257   C     0.65790   0.30720   0.22650   0.01267  Uiso   1.00
C258   C     0.27180   0.93320   0.83740   0.01267  Uiso   1.00
C259   C     0.68890   0.53160   0.40610   0.01267  Uiso   1.00
C260   C     0.66140   0.09580   0.93320   0.01267  Uiso   1.00
C261   C     0.60780   0.28010   0.48210   0.01267  Uiso   1.00
C262   C     0.35120   0.94420   0.11520   0.01267  Uiso   1.00
C263   C     0.71990   0.32770   0.20200   0.01267  Uiso   1.00
C264   C     0.12550   0.53160   0.84270   0.01267  Uiso   1.00
C265   C     0.71720   0.40610   0.87450   0.01267  Uiso   1.00
C266   C     0.35070   0.91930   0.69280   0.01267  Uiso   1.00
C267   C     0.62690   0.44510   0.36460   0.01267  Uiso   1.00
C268   C     0.55490   0.18180   0.91950   0.01267  Uiso   1.00
C269   C     0.38750   0.01520   0.21250   0.01267  Uiso   1.00
C270   C     0.88390   0.15630   0.58520   0.01267  Uiso   1.00
C271   C     0.65760   0.88590   0.60390   0.01267  Uiso   1.00
C272   C     0.03500   0.39460   0.23120   0.01267  Uiso   1.00
C273   C     0.58520   0.88390   0.15630   0.01267  Uiso   1.00
C274   C     0.24340   0.25600   0.49940   0.01267  Uiso   1.00
C275   C     0.50060   0.75660   0.74400   0.01267  Uiso   1.00
C276   C     0.90420   0.56560   0.83740   0.01267  Uiso   1.00
C277   C     0.16340   0.80380   0.76880   0.01267  Uiso   1.00
C278   C     0.65160   0.26280   0.54760   0.01267  Uiso   1.00
C279   C     0.25600   0.01260   0.75660   0.01267  Uiso   1.00
C280   C     0.40420   0.35360   0.05060   0.01267  Uiso   1.00
C281   C     0.74990   0.85280   0.35770   0.01267  Uiso   1.00
C282   C     0.70130   0.27240   0.11610   0.01267  Uiso   1.00
C283   C     0.41790   0.59650   0.64480   0.01267  Uiso   1.00
C284   C     0.05060   0.69700   0.64640   0.01267  Uiso   1.00
C285   C     0.34210   0.69280   0.77350   0.01267  Uiso   1.00
C286   C     0.64170   0.09390   0.45220   0.01267  Uiso   1.00
C287   C     0.72820   0.56560   0.66140   0.01267  Uiso   1.00
C288   C     0.84370   0.72760   0.42890   0.01267  Uiso   1.00
C289   C     0.91950   0.73770   0.36460   0.01267  Uiso   1.00
C290   C     0.99440   0.61520   0.86280   0.01267  Uiso   1.00
C291   C     0.18020   0.39730   0.02990   0.01267  Uiso   1.00
C292   C     0.23600   0.88480   0.82900   0.01267  Uiso   1.00
C293   C     0.56860   0.22650   0.91930   0.01267  Uiso   1.00
C294   C     0.23120   0.83660   0.19620   0.01267  Uiso   1.00
C295   C     0.31110   0.46840   0.59390   0.01267  Uiso   1.00
C296   C     0.89670   0.53210   0.23660   0.01267  Uiso   1.00
C297   C     0.63540   0.08050   0.26230   0.01267  Uiso   1.00
C298   C     0.73720   0.38880   0.28480   0.01267  Uiso   1.00
C299   C     0.64880   0.76400   0.59300   0.01267  Uiso   1.00
C300   C     0.97010   0.81980   0.60270   0.01267  Uiso   1.00
C301   C     0.84270   0.31110   0.71720   0.01267  Uiso   1.00
C302   C     0.63260   0.60270   0.78290   0.01267  Uiso   1.00
C303   C     0.04830   0.40350   0.82140   0.01267  Uiso   1.00
C304   C     0.06680   0.33860   0.90420   0.01267  Uiso   1.00
C305   C     0.50840   0.88290   0.62550   0.01267  Uiso   1.00
C306   C     0.89710   0.52090   0.31020   0.01267  Uiso   1.00
C307   C     0.16260   0.72820   0.06680   0.01267  Uiso   1.00
C308   C     0.91950   0.55490   0.18180   0.01267  Uiso   1.00
C309   C     0.37620   0.89710   0.58690   0.01267  Uiso   1.00
C310   C     0.89670   0.66010   0.36460   0.01267  Uiso   1.00
C311   C     0.62380   0.10290   0.41310   0.01267  Uiso   1.00
C312   C     0.67230   0.79800   0.28010   0.01267  Uiso   1.00
C313   C     0.23670   0.35270   0.43500   0.01267  Uiso   1.00
C314   C     0.39220   0.89710   0.74990   0.01267  Uiso   1.00
C315   C     0.40610   0.68890   0.53160   0.01267  Uiso   1.00
C316   C     0.34240   0.11410   0.39610   0.01267  Uiso   1.00
C317   C     0.11710   0.37450   0.49160   0.01267  Uiso   1.00
C318   C     0.14750   0.21800   0.80610   0.01267  Uiso   1.00
C319   C     0.17100   0.76400   0.11520   0.01267  Uiso   1.00
C320   C     0.86280   0.99440   0.61520   0.01267  Uiso   1.00
C321   C     0.71800   0.94630   0.60390   0.01267  Uiso   1.00
C322   C     0.37450   0.49160   0.11710   0.01267  Uiso   1.00
C323   C     0.90610   0.54780   0.35830   0.01267  Uiso   1.00
C324   C     0.12570   0.51790   0.79800   0.01267  Uiso   1.00
C325   C     0.88590   0.60390   0.65760   0.01267  Uiso   1.00
C326   C     0.49510   0.85280   0.10290   0.01267  Uiso   1.00
C327   C     0.36740   0.15030   0.97010   0.01267  Uiso   1.00
C328   C     0.39610   0.34240   0.11410   0.01267  Uiso   1.00
C329   C     0.76330   0.64730   0.56500   0.01267  Uiso   1.00
C330   C     0.48210   0.20200   0.87430   0.01267  Uiso   1.00
C331   C     0.35120   0.23600   0.40700   0.01267  Uiso   1.00
C332   C     0.78750   0.61250   0.98480   0.01267  Uiso   1.00
C333   C     0.47910   0.68980   0.10290   0.01267  Uiso   1.00
C334   C     0.16340   0.39460   0.35960   0.01267  Uiso   1.00
C335   C     0.11410   0.39610   0.34240   0.01267  Uiso   1.00
C336   C     0.34840   0.73720   0.45240   0.01267  Uiso   1.00
C337   C     0.22650   0.65790   0.30720   0.01267  Uiso   1.00
C338   C     0.64730   0.88400   0.08230   0.01267  Uiso   1.00
C339   C     0.31020   0.89710   0.52090   0.01267  Uiso   1.00
C340   C     0.40280   0.30840   0.02880   0.01267  Uiso   1.00
C341   C     0.82500   0.62770   0.61250   0.01267  Uiso   1.00
C342   C     0.78930   0.47910   0.37620   0.01267  Uiso   1.00
C343   C     0.85280   0.10290   0.49510   0.01267  Uiso   1.00
C344   C     0.15030   0.97010   0.36740   0.01267  Uiso   1.00
C345   C     0.18950   0.54780   0.64170   0.01267  Uiso   1.00
C346   C     0.76330   0.19830   0.11600   0.01267  Uiso   1.00
C347   C     0.71520   0.26280   0.61120   0.01267  Uiso   1.00
C348   C     0.91930   0.69280   0.35070   0.01267  Uiso   1.00
C349   C     0.72040   0.69160   0.09440   0.01267  Uiso   1.00
C350   C     0.89600   0.61120   0.34840   0.01267  Uiso   1.00
C351   C     0.35830   0.90610   0.54780   0.01267  Uiso   1.00
C352   C     0.61120   0.71520   0.26280   0.01267  Uiso   1.00
C353   C     0.19830   0.11600   0.76330   0.01267  Uiso   1.00
C354   C     0.34840   0.89600   0.61120   0.01267  Uiso   1.00
C355   C     0.11610   0.70130   0.27240   0.01267  Uiso   1.00
C356   C     0.91770   0.80170   0.56500   0.01267  Uiso   1.00
C357   C     0.21070   0.52090   0.62380   0.01267  Uiso   1.00
C358   C     0.82900   0.23600   0.88480   0.01267  Uiso   1.00
C359   C     0.30300   0.35360   0.94940   0.01267  Uiso   1.00
C360   C     0.30840   0.90560   0.27960   0.01267  Uiso   1.00
C361   C     0.39220   0.64230   0.49510   0.01267  Uiso   1.00
C362   C     0.35270   0.43500   0.23670   0.01267  Uiso   1.00
C363   C     0.27960   0.37400   0.97120   0.01267  Uiso   1.00
C364   C     0.05370   0.77170   0.65760   0.01267  Uiso   1.00
C365   C     0.58210   0.40350   0.35520   0.01267  Uiso   1.00
C366   C     0.88480   0.82900   0.23600   0.01267  Uiso   1.00
C367   C     0.44510   0.81820   0.08050   0.01267  Uiso   1.00
C368   C     0.19390   0.85250   0.78200   0.01267  Uiso   1.00
C369   C     0.12570   0.32770   0.60780   0.01267  Uiso   1.00
C370   C     0.97120   0.59720   0.69160   0.01267  Uiso   1.00
C371   C     0.28200   0.05370   0.39610   0.01267  Uiso   1.00
C372   C     0.87450   0.71720   0.40610   0.01267  Uiso   1.00
C373   C     0.50490   0.60780   0.35770   0.01267  Uiso   1.00
C374   C     0.09440   0.72040   0.69160   0.01267  Uiso   1.00
C375   C     0.39460   0.23120   0.03500   0.01267  Uiso   1.00
C376   C     0.61250   0.98480   0.78750   0.01267  Uiso   1.00
C377   C     0.88480   0.64880   0.05580   0.01267  Uiso   1.00
C378   C     0.29550   0.53210   0.63540   0.01267  Uiso   1.00
C379   C     0.65860   0.80610   0.58810   0.01267  Uiso   1.00
C380   C     0.10330   0.46790   0.76340   0.01267  Uiso   1.00
C381   C     0.23600   0.40700   0.35120   0.01267  Uiso   1.00
C382   C     0.77170   0.71800   0.11410   0.01267  Uiso   1.00
C383   C     0.65160   0.10400   0.38880   0.01267  Uiso   1.00
C384   C     0.22650   0.91930   0.56860   0.01267  Uiso   1.00
C385   C     0.82900   0.94420   0.59300   0.01267  Uiso   1.00
C386   C     0.64880   0.05580   0.88480   0.01267  Uiso   1.00
C387   C     0.62690   0.26230   0.18180   0.01267  Uiso   1.00
C388   C     0.01260   0.75660   0.25600   0.01267  Uiso   1.00
C389   C     0.75240   0.13160   0.13720   0.01267  Uiso   1.00
C390   C     0.37920   0.24760   0.38480   0.01267  Uiso   1.00
C391   C     0.64230   0.25010   0.14720   0.01267  Uiso   1.00
C392   C     0.62550   0.74260   0.11710   0.01267  Uiso   1.00
C393   C     0.43440   0.33860   0.27180   0.01267  Uiso   1.00
C394   C     0.09580   0.93320   0.66140   0.01267  Uiso   1.00
C395   C     0.59300   0.64880   0.76400   0.01267  Uiso   1.00
C396   C     0.11710   0.62550   0.74260   0.01267  Uiso   1.00
C397   C     0.36460   0.62690   0.44510   0.01267  Uiso   1.00
C398   C     0.72040   0.62600   0.02880   0.01267  Uiso   1.00
C399   C     0.63540   0.37310   0.55490   0.01267  Uiso   1.00
C400   C     0.39220   0.87430   0.67230   0.01267  Uiso   1.00
C401   C     0.77350   0.08070   0.43140   0.01267  Uiso   1.00
C402   C     0.46790   0.76340   0.10330   0.01267  Uiso   1.00
C403   C     0.68980   0.10290   0.47910   0.01267  Uiso   1.00
C404   C     0.07050   0.85250   0.65860   0.01267  Uiso   1.00
C405   C     0.02880   0.72040   0.62600   0.01267  Uiso   1.00
C406   C     0.40350   0.35520   0.58210   0.01267  Uiso   1.00
C407   C     0.94420   0.59300   0.82900   0.01267  Uiso   1.00
C408   C     0.41310   0.31020   0.78930   0.01267  Uiso   1.00
C409   C     0.21070   0.58690   0.68980   0.01267  Uiso   1.00
C410   C     0.11410   0.77170   0.71800   0.01267  Uiso   1.00
C411   C     0.95170   0.59650   0.17860   0.01267  Uiso   1.00
C412   C     0.13720   0.00560   0.38480   0.01267  Uiso   1.00
C413   C     0.60540   0.64040   0.83660   0.01267  Uiso   1.00
C414   C     0.88590   0.22830   0.28200   0.01267  Uiso   1.00
C415   C     0.64730   0.56500   0.76330   0.01267  Uiso   1.00
C416   C     0.46840   0.59390   0.31110   0.01267  Uiso   1.00
C417   C     0.25010   0.14720   0.64230   0.01267  Uiso   1.00
C418   C     0.26280   0.61120   0.71520   0.01267  Uiso   1.00
C419   C     0.86280   0.24760   0.86840   0.01267  Uiso   1.00
C420   C     0.39460   0.35960   0.16340   0.01267  Uiso   1.00
C421   C     0.97120   0.27960   0.37400   0.01267  Uiso   1.00
C422   C     0.94630   0.60390   0.71800   0.01267  Uiso   1.00
C423   C     0.82140   0.41790   0.77310   0.01267  Uiso   1.00
C424   C     0.02990   0.63260   0.84970   0.01267  Uiso   1.00
C425   C     0.53160   0.40610   0.68890   0.01267  Uiso   1.00
C426   C     0.87450   0.46840   0.15730   0.01267  Uiso   1.00
C427   C     0.93320   0.66140   0.09580   0.01267  Uiso   1.00
C428   C     0.87430   0.67230   0.39220   0.01267  Uiso   1.00
C429   C     0.58520   0.42890   0.70130   0.01267  Uiso   1.00
C430   C     0.08230   0.64730   0.88400   0.01267  Uiso   1.00
C431   C     0.46840   0.15730   0.87450   0.01267  Uiso   1.00
C432   C     0.05580   0.88480   0.64880   0.01267  Uiso   1.00
C433   C     0.35830   0.81050   0.45220   0.01267  Uiso   1.00
C434   C     0.25010   0.60780   0.10290   0.01267  Uiso   1.00
C435   C     0.64480   0.04830   0.22690   0.01267  Uiso   1.00
C436   C     0.56860   0.64930   0.34210   0.01267  Uiso   1.00
C437   C     0.40350   0.82140   0.04830   0.01267  Uiso   1.00
C438   C     0.62600   0.90560   0.59720   0.01267  Uiso   1.00
C439   C     0.20200   0.87430   0.48210   0.01267  Uiso   1.00
C440   C     0.68890   0.28280   0.15730   0.01267  Uiso   1.00
C441   C     0.80610   0.58810   0.65860   0.01267  Uiso   1.00
C442   C     0.27240   0.11610   0.70130   0.01267  Uiso   1.00
C443   C     0.43440   0.16260   0.09580   0.01267  Uiso   1.00
C444   C     0.64930   0.08070   0.30720   0.01267  Uiso   1.00
C445   C     0.83660   0.60540   0.64040   0.01267  Uiso   1.00
C446   C     0.56500   0.91770   0.80170   0.01267  Uiso   1.00
C447   C     0.52090   0.31020   0.89710   0.01267  Uiso   1.00
C448   C     0.37920   0.99440   0.13160   0.01267  Uiso   1.00
C449   C     0.89600   0.54760   0.28480   0.01267  Uiso   1.00
C450   C     0.36740   0.39730   0.21710   0.01267  Uiso   1.00
C451   C     0.06680   0.16260   0.72820   0.01267  Uiso   1.00
C452   C     0.41480   0.11610   0.84370   0.01267  Uiso   1.00
C453   C     0.90560   0.59720   0.62600   0.01267  Uiso   1.00
C454   C     0.21800   0.80610   0.14750   0.01267  Uiso   1.00
C455   C     0.33860   0.90420   0.06680   0.01267  Uiso   1.00
C456   C     0.64040   0.83660   0.60540   0.01267  Uiso   1.00
C457   C     0.54760   0.28480   0.89600   0.01267  Uiso   1.00
C458   C     0.77310   0.35520   0.95170   0.01267  Uiso   1.00
C459   C     0.41190   0.34140   0.19390   0.01267  Uiso   1.00
C460   C     0.20200   0.71990   0.32770   0.01267  Uiso   1.00
C461   C     0.56560   0.66140   0.72820   0.01267  Uiso   1.00
C462   C     0.65860   0.07050   0.85250   0.01267  Uiso   1.00
C463   C     0.34210   0.56860   0.64930   0.01267  Uiso   1.00
C464   C     0.84970   0.02990   0.63260   0.01267  Uiso   1.00
C465   C     0.63540   0.29550   0.53210   0.01267  Uiso   1.00
C466   C     0.66140   0.72820   0.56560   0.01267  Uiso   1.00
C467   C     0.13720   0.75240   0.13160   0.01267  Uiso   1.00
C468   C     0.10290   0.47910   0.68980   0.01267  Uiso   1.00
C469   C     0.64230   0.49510   0.39220   0.01267  Uiso   1.00
C470   C     0.46790   0.36460   0.70450   0.01267  Uiso   1.00
C471   C     0.10290   0.41310   0.62380   0.01267  Uiso   1.00
C472   C     0.14750   0.34140   0.92950   0.01267  Uiso   1.00
C473   C     0.30720   0.22650   0.65790   0.01267  Uiso   1.00
C474   C     0.89710   0.50490   0.14720   0.01267  Uiso   1.00
C475   C     0.60390   0.65760   0.88590   0.01267  Uiso   1.00
C476   C     0.80380   0.64040   0.03500   0.01267  Uiso   1.00
C477   C     0.24760   0.86840   0.86280   0.01267  Uiso   1.00
C478   C     0.77310   0.82140   0.41790   0.01267  Uiso   1.00
C479   C     0.34240   0.94630   0.22830   0.01267  Uiso   1.00
C480   C     0.78290   0.63260   0.60270   0.01267  Uiso   1.00
C481   C     0.19730   0.98480   0.37230   0.01267  Uiso   1.00
C482   C     0.66010   0.36460   0.89670   0.01267  Uiso   1.00
C483   C     0.22690   0.64480   0.04830   0.01267  Uiso   1.00
C484   C     0.07050   0.41190   0.21800   0.01267  Uiso   1.00
C485   C     0.26230   0.18180   0.62690   0.01267  Uiso   1.00
C486   C     0.22830   0.34240   0.94630   0.01267  Uiso   1.00
C487   C     0.43140   0.35070   0.65790   0.01267  Uiso   1.00
C488   C     0.54760   0.65160   0.26280   0.01267  Uiso   1.00
C489   C     0.37620   0.78930   0.47910   0.01267  Uiso   1.00
C490   C     0.59720   0.62600   0.90560   0.01267  Uiso   1.00
C491   C     0.60270   0.78290   0.63260   0.01267  Uiso   1.00
C492   C     0.42890   0.84370   0.72760   0.01267  Uiso   1.00
C493   C     0.80170   0.88400   0.23670   0.01267  Uiso   1.00
C494   C     0.41480   0.57110   0.29870   0.01267  Uiso   1.00
C495   C     0.31020   0.78930   0.41310   0.01267  Uiso   1.00
C496   C     0.23120   0.03500   0.39460   0.01267  Uiso   1.00
C497   C     0.41190   0.21800   0.07050   0.01267  Uiso   1.00
C498   C     0.92950   0.14750   0.34140   0.01267  Uiso   1.00
C499   C     0.11610   0.84370   0.41480   0.01267  Uiso   1.00
C500   C     0.47910   0.37620   0.78930   0.01267  Uiso   1.00
C501   C     0.58810   0.78200   0.92950   0.01267  Uiso   1.00
C502   C     0.74400   0.50060   0.75660   0.01267  Uiso   1.00
C503   C     0.12550   0.28280   0.59390   0.01267  Uiso   1.00
C504   C     0.60780   0.35770   0.50490   0.01267  Uiso   1.00
C505   C     0.43500   0.08230   0.19830   0.01267  Uiso   1.00
C506   C     0.76400   0.11520   0.17100   0.01267  Uiso   1.00
C507   C     0.42890   0.70130   0.58520   0.01267  Uiso   1.00
C508   C     0.88290   0.62550   0.50840   0.01267  Uiso   1.00
C509   C     0.60540   0.76880   0.96500   0.01267  Uiso   1.00
C510   C     0.21800   0.07050   0.41190   0.01267  Uiso   1.00
C511   C     0.99440   0.13160   0.37920   0.01267  Uiso   1.00
C512   C     0.29870   0.72760   0.88390   0.01267  Uiso   1.00
C513   C     0.68980   0.21070   0.58690   0.01267  Uiso   1.00
C514   C     0.39220   0.71990   0.51790   0.01267  Uiso   1.00
C515   C     0.85280   0.35770   0.74990   0.01267  Uiso   1.00
C516   C     0.05370   0.39610   0.28200   0.01267  Uiso   1.00
C517   C     0.67230   0.39220   0.87430   0.01267  Uiso   1.00
C518   C     0.59390   0.12550   0.28280   0.01267  Uiso   1.00
C519   C     0.81980   0.60270   0.97010   0.01267  Uiso   1.00
C520   C     0.54780   0.64170   0.18950   0.01267  Uiso   1.00
C521   C     0.73770   0.36460   0.91950   0.01267  Uiso   1.00
C522   C     0.96500   0.19620   0.35960   0.01267  Uiso   1.00
C523   C     0.65760   0.05370   0.77170   0.01267  Uiso   1.00
C524   C     0.72760   0.42890   0.84370   0.01267  Uiso   1.00
C525   C     0.90560   0.27960   0.30840   0.01267  Uiso   1.00
C526   C     0.64640   0.94940   0.59580   0.01267  Uiso   1.00
C527   C     0.64480   0.41790   0.59650   0.01267  Uiso   1.00
C528   C     0.35770   0.50490   0.60780   0.01267  Uiso   1.00
N1     N     0.71530   0.40910   0.30620   0.01267  Uiso   1.00
N2     N     0.70130   0.09630   0.79760   0.01267  Uiso   1.00
N3     N     0.69380   0.10290   0.40910   0.01267  Uiso   1.00
N4     N     0.10290   0.40910   0.69380   0.01267  Uiso   1.00
N5     N     0.29870   0.90370   0.20240   0.01267  Uiso   1.00
N6     N     0.40910   0.69380   0.10290   0.01267  Uiso   1.00
N7     N     0.90370   0.20240   0.29870   0.01267  Uiso   1.00
N8     N     0.69380   0.28470   0.59090   0.01267  Uiso   1.00
N9     N     0.90370   0.60500   0.70130   0.01267  Uiso   1.00
N10    N     0.30620   0.71530   0.40910   0.01267  Uiso   1.00
N11    N     0.28470   0.59090   0.69380   0.01267  Uiso   1.00
N12    N     0.60500   0.70130   0.90370   0.01267  Uiso   1.00
N13    N     0.30620   0.89710   0.59090   0.01267  Uiso   1.00
N14    N     0.40910   0.30620   0.71530   0.01267  Uiso   1.00
N15    N     0.70130   0.90370   0.60500   0.01267  Uiso   1.00
N16    N     0.59090   0.30620   0.89710   0.01267  Uiso   1.00
N17    N     0.89710   0.59090   0.30620   0.01267  Uiso   1.00
N18    N     0.09630   0.39500   0.29870   0.01267  Uiso   1.00
N19    N     0.29870   0.09630   0.39500   0.01267  Uiso   1.00
N20    N     0.20240   0.29870   0.90370   0.01267  Uiso   1.00
N21    N     0.39500   0.29870   0.09630   0.01267  Uiso   1.00
N22    N     0.09630   0.79760   0.70130   0.01267  Uiso   1.00
N23    N     0.79760   0.70130   0.09630   0.01267  Uiso   1.00
N24    N     0.59090   0.69380   0.28470   0.01267  Uiso   1.00
O1     O     0.14360   0.56030   0.18410   0.01267  Uiso   1.00
O2     O     0.32640   0.76910   0.91990   0.01267  Uiso   1.00
O3     O     0.73660   0.54230   0.68290   0.01267  Uiso   1.00
O4     O     0.63980   0.20560   0.96540   0.01267  Uiso   1.00
O5     O     0.56580   0.36020   0.32560   0.01267  Uiso   1.00
O6     O     0.84920   0.76910   0.44270   0.01267  Uiso   1.00
O7     O     0.84180   0.37290   0.21470   0.01267  Uiso   1.00
O8     O     0.07210   0.90510   0.33920   0.01267  Uiso   1.00
O9     O     0.03460   0.36020   0.79440   0.01267  Uiso   1.00
O10    O     0.63980   0.67440   0.43420   0.01267  Uiso   1.00
O11    O     0.62710   0.78530   0.15820   0.01267  Uiso   1.00
O12    O     0.43340   0.81490   0.69670   0.01267  Uiso   1.00
O13    O     0.33720   0.45970   0.12250   0.01267  Uiso   1.00
O14    O     0.55640   0.87410   0.91690   0.01267  Uiso   1.00
O15    O     0.58330   0.62380   0.43970   0.01267  Uiso   1.00
O16    O     0.64400   0.53630   0.77990   0.01267  Uiso   1.00
O17    O     0.87410   0.91690   0.55640   0.01267  Uiso   1.00
O18    O     0.96540   0.75980   0.32560   0.01267  Uiso   1.00
O19    O     0.58330   0.14360   0.95950   0.01267  Uiso   1.00
O20    O     0.50200   0.74220   0.70280   0.01267  Uiso   1.00
O21    O     0.46370   0.22010   0.35600   0.01267  Uiso   1.00
O22    O     0.10770   0.64400   0.86410   0.01267  Uiso   1.00
O23    O     0.36050   0.91690   0.04280   0.01267  Uiso   1.00
O24    O     0.23090   0.08010   0.67360   0.01267  Uiso   1.00
O25    O     0.73290   0.16700   0.07210   0.01267  Uiso   1.00
O26    O     0.55730   0.32640   0.40650   0.01267  Uiso   1.00
O27    O     0.44360   0.12590   0.08310   0.01267  Uiso   1.00
O28    O     0.04280   0.36050   0.91690   0.01267  Uiso   1.00
O29    O     0.07210   0.73290   0.16700   0.01267  Uiso   1.00
O30    O     0.33920   0.07210   0.90510   0.01267  Uiso   1.00
O31    O     0.88180   0.18510   0.61850   0.01267  Uiso   1.00
O32    O     0.19430   0.73660   0.05370   0.01267  Uiso   1.00
O33    O     0.23090   0.55730   0.15080   0.01267  Uiso   1.00
O34    O     0.49800   0.25780   0.29720   0.01267  Uiso   1.00
O35    O     0.03940   0.79920   0.29720   0.01267  Uiso   1.00
O36    O     0.18510   0.30330   0.56660   0.01267  Uiso   1.00
O37    O     0.08010   0.67360   0.23090   0.01267  Uiso   1.00
O38    O     0.67440   0.43420   0.63980   0.01267  Uiso   1.00
O39    O     0.20080   0.70280   0.96060   0.01267  Uiso   1.00
O40    O     0.20080   0.24020   0.49800   0.01267  Uiso   1.00
O41    O     0.68290   0.14060   0.94630   0.01267  Uiso   1.00
O42    O     0.73660   0.05370   0.19430   0.01267  Uiso   1.00
O43    O     0.56660   0.26330   0.38150   0.01267  Uiso   1.00
O44    O     0.04050   0.41670   0.85640   0.01267  Uiso   1.00
O45    O     0.24020   0.03940   0.74220   0.01267  Uiso   1.00
O46    O     0.66280   0.78530   0.12250   0.01267  Uiso   1.00
O47    O     0.24020   0.67440   0.03460   0.01267  Uiso   1.00
O48    O     0.40650   0.55730   0.32640   0.01267  Uiso   1.00
O49    O     0.35600   0.46370   0.22010   0.01267  Uiso   1.00
O50    O     0.18410   0.14360   0.56030   0.01267  Uiso   1.00
O51    O     0.83300   0.56590   0.90510   0.01267  Uiso   1.00
O52    O     0.32640   0.40650   0.55730   0.01267  Uiso   1.00
O53    O     0.86410   0.22010   0.75640   0.01267  Uiso   1.00
O54    O     0.79440   0.43420   0.75980   0.01267  Uiso   1.00
O55    O     0.04050   0.18410   0.62380   0.01267  Uiso   1.00
O56    O     0.92790   0.09490   0.66080   0.01267  Uiso   1.00
O57    O     0.77990   0.24360   0.13590   0.01267  Uiso   1.00
O58    O     0.63950   0.08310   0.95720   0.01267  Uiso   1.00
O59    O     0.73670   0.61850   0.43340   0.01267  Uiso   1.00
O60    O     0.61850   0.43340   0.73670   0.01267  Uiso   1.00
O61    O     0.87410   0.31770   0.95720   0.01267  Uiso   1.00
O62    O     0.74220   0.24020   0.03940   0.01267  Uiso   1.00
O63    O     0.54030   0.87750   0.66280   0.01267  Uiso   1.00
O64    O     0.53630   0.89230   0.75640   0.01267  Uiso   1.00
O65    O     0.10770   0.24360   0.46370   0.01267  Uiso   1.00
O66    O     0.96060   0.20080   0.70280   0.01267  Uiso   1.00
O67    O     0.67360   0.23090   0.08010   0.01267  Uiso   1.00
O68    O     0.62710   0.46890   0.84180   0.01267  Uiso   1.00
O69    O     0.12250   0.66280   0.78530   0.01267  Uiso   1.00
O70    O     0.79920   0.29720   0.03940   0.01267  Uiso   1.00
O71    O     0.25780   0.29720   0.49800   0.01267  Uiso   1.00
O72    O     0.26710   0.83300   0.92790   0.01267  Uiso   1.00
O73    O     0.94630   0.68290   0.14060   0.01267  Uiso   1.00
O74    O     0.63950   0.68230   0.55640   0.01267  Uiso   1.00
O75    O     0.14360   0.95950   0.58330   0.01267  Uiso   1.00
O76    O     0.15080   0.23090   0.55730   0.01267  Uiso   1.00
O77    O     0.31770   0.44360   0.36050   0.01267  Uiso   1.00
O78    O     0.16700   0.07210   0.73290   0.01267  Uiso   1.00
O79    O     0.88180   0.26330   0.69670   0.01267  Uiso   1.00
O80    O     0.87750   0.66280   0.54030   0.01267  Uiso   1.00
O81    O     0.32560   0.96540   0.75980   0.01267  Uiso   1.00
O82    O     0.24360   0.13590   0.77990   0.01267  Uiso   1.00
O83    O     0.37290   0.21470   0.84180   0.01267  Uiso   1.00
O84    O     0.45770   0.19430   0.14060   0.01267  Uiso   1.00
O85    O     0.03460   0.24020   0.67440   0.01267  Uiso   1.00
O86    O     0.12590   0.68230   0.04280   0.01267  Uiso   1.00
O87    O     0.95720   0.63950   0.08310   0.01267  Uiso   1.00
O88    O     0.95720   0.87410   0.31770   0.01267  Uiso   1.00
O89    O     0.11820   0.81490   0.38150   0.01267  Uiso   1.00
O90    O     0.05370   0.31710   0.85940   0.01267  Uiso   1.00
O91    O     0.75980   0.96060   0.25780   0.01267  Uiso   1.00
O92    O     0.73670   0.30330   0.11820   0.01267  Uiso   1.00
O93    O     0.95950   0.58330   0.14360   0.01267  Uiso   1.00
O94    O     0.56660   0.18510   0.30330   0.01267  Uiso   1.00
O95    O     0.64400   0.86410   0.10770   0.01267  Uiso   1.00
O96    O     0.85640   0.04050   0.41670   0.01267  Uiso   1.00
O97    O     0.89230   0.75640   0.53630   0.01267  Uiso   1.00
O98    O     0.68230   0.04280   0.12590   0.01267  Uiso   1.00
O99    O     0.84180   0.62710   0.46890   0.01267  Uiso   1.00
O100   O     0.24020   0.20560   0.56580   0.01267  Uiso   1.00
O101   O     0.38150   0.56660   0.26330   0.01267  Uiso   1.00
O102   O     0.19430   0.14060   0.45770   0.01267  Uiso   1.00
O103   O     0.33720   0.21470   0.87750   0.01267  Uiso   1.00
O104   O     0.15080   0.59350   0.91990   0.01267  Uiso   1.00
O105   O     0.80570   0.85940   0.54230   0.01267  Uiso   1.00
O106   O     0.43420   0.75980   0.79440   0.01267  Uiso   1.00
O107   O     0.45970   0.12250   0.33720   0.01267  Uiso   1.00
O108   O     0.69670   0.88180   0.26330   0.01267  Uiso   1.00
O109   O     0.12250   0.33720   0.45970   0.01267  Uiso   1.00
O110   O     0.68230   0.55640   0.63950   0.01267  Uiso   1.00
O111   O     0.81590   0.85640   0.43970   0.01267  Uiso   1.00
O112   O     0.69670   0.43340   0.81490   0.01267  Uiso   1.00
O113   O     0.70280   0.50200   0.74220   0.01267  Uiso   1.00
O114   O     0.91990   0.15080   0.59350   0.01267  Uiso   1.00
O115   O     0.74220   0.70280   0.50200   0.01267  Uiso   1.00
O116   O     0.75640   0.86410   0.22010   0.01267  Uiso   1.00
O117   O     0.79440   0.03460   0.36020   0.01267  Uiso   1.00
O118   O     0.45770   0.31710   0.26340   0.01267  Uiso   1.00
O119   O     0.76910   0.44270   0.84920   0.01267  Uiso   1.00
O120   O     0.05370   0.19430   0.73660   0.01267  Uiso   1.00
O121   O     0.43410   0.09490   0.16700   0.01267  Uiso   1.00
O122   O     0.56590   0.90510   0.83300   0.01267  Uiso   1.00
O123   O     0.41670   0.85640   0.04050   0.01267  Uiso   1.00
O124   O     0.91990   0.32640   0.76910   0.01267  Uiso   1.00
O125   O     0.77990   0.64400   0.53630   0.01267  Uiso   1.00
O126   O     0.20560   0.96540   0.63980   0.01267  Uiso   1.00
O127   O     0.70280   0.96060   0.20080   0.01267  Uiso   1.00
O128   O     0.61850   0.88180   0.18510   0.01267  Uiso   1.00
O129   O     0.94630   0.80570   0.26340   0.01267  Uiso   1.00
O130   O     0.75980   0.50200   0.79920   0.01267  Uiso   1.00
O131   O     0.85640   0.43970   0.81590   0.01267  Uiso   1.00
O132   O     0.49800   0.20080   0.24020   0.01267  Uiso   1.00
O133   O     0.73290   0.66080   0.56590   0.01267  Uiso   1.00
O134   O     0.09490   0.16700   0.43410   0.01267  Uiso   1.00
O135   O     0.29720   0.49800   0.25780   0.01267  Uiso   1.00
O136   O     0.35600   0.13590   0.89230   0.01267  Uiso   1.00
O137   O     0.50200   0.79920   0.75980   0.01267  Uiso   1.00
O138   O     0.80570   0.26340   0.94630   0.01267  Uiso   1.00
O139   O     0.91690   0.04280   0.36050   0.01267  Uiso   1.00
O140   O     0.18410   0.62380   0.04050   0.01267  Uiso   1.00
O141   O     0.09490   0.66080   0.92790   0.01267  Uiso   1.00
O142   O     0.68290   0.73660   0.54230   0.01267  Uiso   1.00
O143   O     0.54230   0.80570   0.85940   0.01267  Uiso   1.00
O144   O     0.18510   0.61850   0.88180   0.01267  Uiso   1.00
O145   O     0.56030   0.41670   0.37620   0.01267  Uiso   1.00
O146   O     0.21470   0.87750   0.33720   0.01267  Uiso   1.00
O147   O     0.87750   0.33720   0.21470   0.01267  Uiso   1.00
O148   O     0.24360   0.46370   0.10770   0.01267  Uiso   1.00
O149   O     0.31770   0.95720   0.87410   0.01267  Uiso   1.00
O150   O     0.30330   0.56660   0.18510   0.01267  Uiso   1.00
O151   O     0.44270   0.84920   0.76910   0.01267  Uiso   1.00
O152   O     0.81590   0.37620   0.95950   0.01267  Uiso   1.00
O153   O     0.55640   0.63950   0.68230   0.01267  Uiso   1.00
O154   O     0.43970   0.81590   0.85640   0.01267  Uiso   1.00
O155   O     0.11820   0.73670   0.30330   0.01267  Uiso   1.00
O156   O     0.31710   0.26340   0.45770   0.01267  Uiso   1.00
O157   O     0.08310   0.44360   0.12590   0.01267  Uiso   1.00
O158   O     0.25780   0.75980   0.96060   0.01267  Uiso   1.00
O159   O     0.53110   0.15820   0.37290   0.01267  Uiso   1.00
O160   O     0.85940   0.05370   0.31710   0.01267  Uiso   1.00
O161   O     0.24020   0.49800   0.20080   0.01267  Uiso   1.00
O162   O     0.62380   0.04050   0.18410   0.01267  Uiso   1.00
O163   O     0.44270   0.67360   0.59350   0.01267  Uiso   1.00
O164   O     0.54230   0.68290   0.73660   0.01267  Uiso   1.00
O165   O     0.86410   0.10770   0.64400   0.01267  Uiso   1.00
O166   O     0.33920   0.43410   0.26710   0.01267  Uiso   1.00
O167   O     0.08010   0.84920   0.40650   0.01267  Uiso   1.00
O168   O     0.37620   0.56030   0.41670   0.01267  Uiso   1.00
O169   O     0.66280   0.54030   0.87750   0.01267  Uiso   1.00
O170   O     0.36050   0.31770   0.44360   0.01267  Uiso   1.00
O171   O     0.59350   0.91990   0.15080   0.01267  Uiso   1.00
O172   O     0.84920   0.40650   0.08010   0.01267  Uiso   1.00
O173   O     0.90510   0.33920   0.07210   0.01267  Uiso   1.00
O174   O     0.66080   0.56590   0.73290   0.01267  Uiso   1.00
O175   O     0.38150   0.11820   0.81490   0.01267  Uiso   1.00
O176   O     0.29720   0.03940   0.79920   0.01267  Uiso   1.00
O177   O     0.43340   0.73670   0.61850   0.01267  Uiso   1.00
O178   O     0.04280   0.12590   0.68230   0.01267  Uiso   1.00
O179   O     0.53630   0.77990   0.64400   0.01267  Uiso   1.00
O180   O     0.92790   0.26710   0.83300   0.01267  Uiso   1.00
O181   O     0.15820   0.37290   0.53110   0.01267  Uiso   1.00
O182   O     0.85940   0.54230   0.80570   0.01267  Uiso   1.00
O183   O     0.43970   0.58330   0.62380   0.01267  Uiso   1.00
O184   O     0.44360   0.36050   0.31770   0.01267  Uiso   1.00
O185   O     0.32560   0.56580   0.36020   0.01267  Uiso   1.00
O186   O     0.37290   0.53110   0.15820   0.01267  Uiso   1.00
O187   O     0.56590   0.73290   0.66080   0.01267  Uiso   1.00
O188   O     0.43420   0.63980   0.67440   0.01267  Uiso   1.00
O189   O     0.66080   0.92790   0.09490   0.01267  Uiso   1.00
O190   O     0.75980   0.79440   0.43420   0.01267  Uiso   1.00
O191   O     0.75980   0.32560   0.96540   0.01267  Uiso   1.00
O192   O     0.59350   0.44270   0.67360   0.01267  Uiso   1.00
O193   O     0.26340   0.94630   0.80570   0.01267  Uiso   1.00
O194   O     0.90510   0.83300   0.56590   0.01267  Uiso   1.00
O195   O     0.03940   0.74220   0.24020   0.01267  Uiso   1.00
O196   O     0.26330   0.69670   0.88180   0.01267  Uiso   1.00
O197   O     0.67360   0.59350   0.44270   0.01267  Uiso   1.00
O198   O     0.31710   0.85940   0.05370   0.01267  Uiso   1.00
O199   O     0.08310   0.95720   0.63950   0.01267  Uiso   1.00
O200   O     0.26330   0.38150   0.56660   0.01267  Uiso   1.00
O201   O     0.13590   0.89230   0.35600   0.01267  Uiso   1.00
O202   O     0.56580   0.24020   0.20560   0.01267  Uiso   1.00
O203   O     0.67440   0.03460   0.24020   0.01267  Uiso   1.00
O204   O     0.76910   0.91990   0.32640   0.01267  Uiso   1.00
O205   O     0.21470   0.84180   0.37290   0.01267  Uiso   1.00
O206   O     0.41670   0.37620   0.56030   0.01267  Uiso   1.00
O207   O     0.20560   0.56580   0.24020   0.01267  Uiso   1.00
O208   O     0.81490   0.69670   0.43340   0.01267  Uiso   1.00
O209   O     0.62380   0.43970   0.58330   0.01267  Uiso   1.00
O210   O     0.15820   0.62710   0.78530   0.01267  Uiso   1.00
O211   O     0.55730   0.15080   0.23090   0.01267  Uiso   1.00
O212   O     0.75640   0.53630   0.89230   0.01267  Uiso   1.00
O213   O     0.46890   0.84180   0.62710   0.01267  Uiso   1.00
O214   O     0.96060   0.25780   0.75980   0.01267  Uiso   1.00
O215   O     0.96540   0.63980   0.20560   0.01267  Uiso   1.00
O216   O     0.26340   0.45770   0.31710   0.01267  Uiso   1.00
O217   O     0.26710   0.33920   0.43410   0.01267  Uiso   1.00
O218   O     0.78530   0.15820   0.62710   0.01267  Uiso   1.00
O219   O     0.78530   0.12250   0.66280   0.01267  Uiso   1.00
O220   O     0.22010   0.75640   0.86410   0.01267  Uiso   1.00
O221   O     0.13590   0.77990   0.24360   0.01267  Uiso   1.00
O222   O     0.56030   0.18410   0.14360   0.01267  Uiso   1.00
O223   O     0.95950   0.81590   0.37620   0.01267  Uiso   1.00
O224   O     0.30330   0.11820   0.73670   0.01267  Uiso   1.00
O225   O     0.14060   0.45770   0.19430   0.01267  Uiso   1.00
O226   O     0.22010   0.35600   0.46370   0.01267  Uiso   1.00
O227   O     0.36020   0.32560   0.56580   0.01267  Uiso   1.00
O228   O     0.43410   0.26710   0.33920   0.01267  Uiso   1.00
O229   O     0.89230   0.35600   0.13590   0.01267  Uiso   1.00
O230   O     0.14060   0.94630   0.68290   0.01267  Uiso   1.00
O231   O     0.46370   0.10770   0.24360   0.01267  Uiso   1.00
O232   O     0.40650   0.08010   0.84920   0.01267  Uiso   1.00
O233   O     0.36020   0.79440   0.03460   0.01267  Uiso   1.00
O234   O     0.79920   0.75980   0.50200   0.01267  Uiso   1.00
O235   O     0.16700   0.43410   0.09490   0.01267  Uiso   1.00
O236   O     0.12590   0.08310   0.44360   0.01267  Uiso   1.00
O237   O     0.91690   0.55640   0.87410   0.01267  Uiso   1.00
O238   O     0.37620   0.95950   0.81590   0.01267  Uiso   1.00
O239   O     0.83300   0.92790   0.26710   0.01267  Uiso   1.00
O240   O     0.81490   0.38150   0.11820   0.01267  Uiso   1.00
