data_image0
_cell_length_a       17.6972
_cell_length_b       17.6972
_cell_length_c       76.397
_cell_angle_alpha    90
_cell_angle_beta     90
_cell_angle_gamma    120

_symmetry_space_group_name_H-M    "P 1"
_symmetry_int_tables_number       1

loop_
  _symmetry_equiv_pos_as_xyz
  'x, y, z'

loop_
  _atom_site_label
  _atom_site_occupancy
  _atom_site_fract_x
  _atom_site_fract_y
  _atom_site_fract_z
  _atom_site_thermal_displace_type
  _atom_site_B_iso_or_equiv
  _atom_site_type_symbol
  C1       1.0000 0.86110  0.83530  0.42061  Biso   1.000  C
  C2       1.0000 0.82990  0.85890  0.43692  Biso   1.000  C
  C3       1.0000 0.75630  0.82190  0.44737  Biso   1.000  C
  C4       1.0000 0.66860  0.74040  0.44818  Biso   1.000  C
  C5       1.0000 0.56940  0.73950  0.50545  Biso   1.000  C
  C6       1.0000 0.65110  0.73290  0.50676  Biso   1.000  C
  C7       1.0000 0.68840  0.69630  0.51686  Biso   1.000  C
  C8       1.0000 0.66380  0.63770  0.53263  Biso   1.000  C
  Co1      1.0000 0.67204  0.83991  0.47717  Biso   1.000  Co
  N1       1.0000 0.88410  0.93640  0.44389  Biso   1.000  N
  N2       1.0000 0.84940  0.95150  0.45789  Biso   1.000  N
  N3       1.0000 0.77170  0.88230  0.45981  Biso   1.000  N
  N4       1.0000 0.71130  0.77660  0.49366  Biso   1.000  N
  N5       1.0000 0.77910  0.76630  0.49552  Biso   1.000  N
  N6       1.0000 0.76640  0.71910  0.50938  Biso   1.000  N
  O1       1.0000 0.93750  0.89300  0.41612  Biso   1.000  O
  O2       1.0000 0.81440  0.76610  0.41309  Biso   1.000  O
  O3       1.0000 0.64700  0.68220  0.43692  Biso   1.000  O
  O4       1.0000 0.62070  0.73660  0.46083  Biso   1.000  O
  O5       1.0000 0.56620  0.78170  0.49250  Biso   1.000  O
  O6       1.0000 0.51260  0.70380  0.51642  Biso   1.000  O
  O7       1.0000 0.59380  0.61330  0.53997  Biso   1.000  O
  O8       1.0000 0.72150  0.61860  0.53710  Biso   1.000  O
  C9       1.0000 0.52777  0.16863  0.75394  Biso   1.000  C
  C10      1.0000 0.49657  0.19223  0.77025  Biso   1.000  C
  C11      1.0000 0.42297  0.15523  0.78070  Biso   1.000  C
  C12      1.0000 0.33527  0.07373  0.78151  Biso   1.000  C
  C13      1.0000 0.23607  0.07283  0.83878  Biso   1.000  C
  C14      1.0000 0.31777  0.06623  0.84009  Biso   1.000  C
  C15      1.0000 0.35507  0.02963  0.85019  Biso   1.000  C
  C16      1.0000 0.33047  0.97103  0.86596  Biso   1.000  C
  Co2      1.0000 0.33871  0.17324  0.81051  Biso   1.000  Co
  N7       1.0000 0.55077  0.26973  0.77722  Biso   1.000  N
  N8       1.0000 0.51607  0.28483  0.79122  Biso   1.000  N
  N9       1.0000 0.43837  0.21563  0.79314  Biso   1.000  N
  N10      1.0000 0.37797  0.10993  0.82699  Biso   1.000  N
  N11      1.0000 0.44577  0.09963  0.82885  Biso   1.000  N
  N12      1.0000 0.43307  0.05243  0.84271  Biso   1.000  N
  O9       1.0000 0.60417  0.22633  0.74945  Biso   1.000  O
  O10      1.0000 0.48107  0.09943  0.74642  Biso   1.000  O
  O11      1.0000 0.31367  0.01553  0.77025  Biso   1.000  O
  O12      1.0000 0.28737  0.06993  0.79416  Biso   1.000  O
  O13      1.0000 0.23287  0.11503  0.82583  Biso   1.000  O
  O14      1.0000 0.17927  0.03713  0.84975  Biso   1.000  O
  O15      1.0000 0.26047  0.94663  0.87330  Biso   1.000  O
  O16      1.0000 0.38817  0.95193  0.87043  Biso   1.000  O
  C17      1.0000 0.19443  0.50197  0.08728  Biso   1.000  C
  C18      1.0000 0.16323  0.52557  0.10359  Biso   1.000  C
  C19      1.0000 0.08963  0.48857  0.11404  Biso   1.000  C
  C20      1.0000 0.00193  0.40707  0.11485  Biso   1.000  C
  C21      1.0000 0.90273  0.40617  0.17212  Biso   1.000  C
  C22      1.0000 0.98443  0.39957  0.17343  Biso   1.000  C
  C23      1.0000 0.02173  0.36297  0.18353  Biso   1.000  C
  C24      1.0000 0.99713  0.30437  0.19930  Biso   1.000  C
  Co3      1.0000 0.00537  0.50658  0.14384  Biso   1.000  Co
  N13      1.0000 0.21743  0.60307  0.11056  Biso   1.000  N
  N14      1.0000 0.18273  0.61817  0.12456  Biso   1.000  N
  N15      1.0000 0.10503  0.54897  0.12648  Biso   1.000  N
  N16      1.0000 0.04463  0.44327  0.16033  Biso   1.000  N
  N17      1.0000 0.11243  0.43297  0.16219  Biso   1.000  N
  N18      1.0000 0.09973  0.38577  0.17605  Biso   1.000  N
  O17      1.0000 0.27083  0.55967  0.08279  Biso   1.000  O
  O18      1.0000 0.14773  0.43277  0.07976  Biso   1.000  O
  O19      1.0000 0.98033  0.34887  0.10359  Biso   1.000  O
  O20      1.0000 0.95403  0.40327  0.12750  Biso   1.000  O
  O21      1.0000 0.89953  0.44837  0.15917  Biso   1.000  O
  O22      1.0000 0.84593  0.37047  0.18309  Biso   1.000  O
  O23      1.0000 0.92713  0.27997  0.20664  Biso   1.000  O
  O24      1.0000 0.05483  0.28527  0.20377  Biso   1.000  O
  C25      1.0000 0.16470  0.02580  0.42061  Biso   1.000  C
  C26      1.0000 0.14110  0.97100  0.43692  Biso   1.000  C
  C27      1.0000 0.17810  0.93440  0.44737  Biso   1.000  C
  C28      1.0000 0.25960  0.92820  0.44818  Biso   1.000  C
  C29      1.0000 0.26050  0.82990  0.50545  Biso   1.000  C
  C30      1.0000 0.26710  0.91820  0.50676  Biso   1.000  C
  C31      1.0000 0.30370  0.99210  0.51686  Biso   1.000  C
  C32      1.0000 0.36230  0.02610  0.53263  Biso   1.000  C
  Co4      1.0000 0.16009  0.83213  0.47717  Biso   1.000  Co
  N19      1.0000 0.06360  0.94770  0.44389  Biso   1.000  N
  N20      1.0000 0.04850  0.89790  0.45789  Biso   1.000  N
  N21      1.0000 0.11770  0.88940  0.45981  Biso   1.000  N
  N22      1.0000 0.22340  0.93470  0.49366  Biso   1.000  N
  N23      1.0000 0.23370  0.01280  0.49552  Biso   1.000  N
  N24      1.0000 0.28090  0.04730  0.50938  Biso   1.000  N
  O25      1.0000 0.10700  0.04450  0.41612  Biso   1.000  O
  O26      1.0000 0.23390  0.04830  0.41309  Biso   1.000  O
  O27      1.0000 0.31780  0.96480  0.43692  Biso   1.000  O
  O28      1.0000 0.26340  0.88410  0.46083  Biso   1.000  O
  O29      1.0000 0.21830  0.78450  0.49250  Biso   1.000  O
  O30      1.0000 0.29620  0.80880  0.51642  Biso   1.000  O
  O31      1.0000 0.38670  0.98050  0.53997  Biso   1.000  O
  O32      1.0000 0.38140  0.10290  0.53710  Biso   1.000  O
  C33      1.0000 0.83137  0.35913  0.75394  Biso   1.000  C
  C34      1.0000 0.80777  0.30433  0.77025  Biso   1.000  C
  C35      1.0000 0.84477  0.26773  0.78070  Biso   1.000  C
  C36      1.0000 0.92627  0.26153  0.78151  Biso   1.000  C
  C37      1.0000 0.92717  0.16323  0.83878  Biso   1.000  C
  C38      1.0000 0.93377  0.25153  0.84009  Biso   1.000  C
  C39      1.0000 0.97037  0.32543  0.85019  Biso   1.000  C
  C40      1.0000 0.02897  0.35943  0.86596  Biso   1.000  C
  Co5      1.0000 0.82676  0.16546  0.81051  Biso   1.000  Co
  N25      1.0000 0.73027  0.28103  0.77722  Biso   1.000  N
  N26      1.0000 0.71517  0.23123  0.79122  Biso   1.000  N
  N27      1.0000 0.78437  0.22273  0.79314  Biso   1.000  N
  N28      1.0000 0.89007  0.26803  0.82699  Biso   1.000  N
  N29      1.0000 0.90037  0.34613  0.82885  Biso   1.000  N
  N30      1.0000 0.94757  0.38063  0.84271  Biso   1.000  N
  O33      1.0000 0.77367  0.37783  0.74945  Biso   1.000  O
  O34      1.0000 0.90057  0.38163  0.74642  Biso   1.000  O
  O35      1.0000 0.98447  0.29813  0.77025  Biso   1.000  O
  O36      1.0000 0.93007  0.21743  0.79416  Biso   1.000  O
  O37      1.0000 0.88497  0.11783  0.82583  Biso   1.000  O
  O38      1.0000 0.96287  0.14213  0.84975  Biso   1.000  O
  O39      1.0000 0.05337  0.31383  0.87330  Biso   1.000  O
  O40      1.0000 0.04807  0.43623  0.87043  Biso   1.000  O
  C41      1.0000 0.49803  0.69247  0.08728  Biso   1.000  C
  C42      1.0000 0.47443  0.63767  0.10359  Biso   1.000  C
  C43      1.0000 0.51143  0.60107  0.11404  Biso   1.000  C
  C44      1.0000 0.59293  0.59487  0.11485  Biso   1.000  C
  C45      1.0000 0.59383  0.49657  0.17212  Biso   1.000  C
  C46      1.0000 0.60043  0.58487  0.17343  Biso   1.000  C
  C47      1.0000 0.63703  0.65877  0.18353  Biso   1.000  C
  C48      1.0000 0.69563  0.69277  0.19930  Biso   1.000  C
  Co6      1.0000 0.49342  0.49880  0.14384  Biso   1.000  Co
  N31      1.0000 0.39693  0.61437  0.11056  Biso   1.000  N
  N32      1.0000 0.38183  0.56457  0.12456  Biso   1.000  N
  N33      1.0000 0.45103  0.55607  0.12648  Biso   1.000  N
  N34      1.0000 0.55673  0.60137  0.16033  Biso   1.000  N
  N35      1.0000 0.56703  0.67947  0.16219  Biso   1.000  N
  N36      1.0000 0.61423  0.71397  0.17605  Biso   1.000  N
  O41      1.0000 0.44033  0.71117  0.08279  Biso   1.000  O
  O42      1.0000 0.56723  0.71497  0.07976  Biso   1.000  O
  O43      1.0000 0.65113  0.63147  0.10359  Biso   1.000  O
  O44      1.0000 0.59673  0.55077  0.12750  Biso   1.000  O
  O45      1.0000 0.55163  0.45117  0.15917  Biso   1.000  O
  O46      1.0000 0.62953  0.47547  0.18309  Biso   1.000  O
  O47      1.0000 0.72003  0.64717  0.20664  Biso   1.000  O
  O48      1.0000 0.71473  0.76957  0.20377  Biso   1.000  O
  C49      1.0000 0.97420  0.13890  0.42061  Biso   1.000  C
  C50      1.0000 0.02900  0.17010  0.43692  Biso   1.000  C
  C51      1.0000 0.06560  0.24370  0.44737  Biso   1.000  C
  C52      1.0000 0.07180  0.33140  0.44818  Biso   1.000  C
  C53      1.0000 0.17010  0.43060  0.50545  Biso   1.000  C
  C54      1.0000 0.08180  0.34890  0.50676  Biso   1.000  C
  C55      1.0000 0.00790  0.31160  0.51686  Biso   1.000  C
  C56      1.0000 0.97390  0.33620  0.53263  Biso   1.000  C
  Co7      1.0000 0.16787  0.32796  0.47717  Biso   1.000  Co
  N37      1.0000 0.05230  0.11590  0.44389  Biso   1.000  N
  N38      1.0000 0.10210  0.15060  0.45789  Biso   1.000  N
  N39      1.0000 0.11060  0.22830  0.45981  Biso   1.000  N
  N40      1.0000 0.06530  0.28870  0.49366  Biso   1.000  N
  N41      1.0000 0.98720  0.22090  0.49552  Biso   1.000  N
  N42      1.0000 0.95270  0.23360  0.50938  Biso   1.000  N
  O49      1.0000 0.95550  0.06250  0.41612  Biso   1.000  O
  O50      1.0000 0.95170  0.18560  0.41309  Biso   1.000  O
  O51      1.0000 0.03520  0.35300  0.43692  Biso   1.000  O
  O52      1.0000 0.11590  0.37930  0.46083  Biso   1.000  O
  O53      1.0000 0.21550  0.43380  0.49250  Biso   1.000  O
  O54      1.0000 0.19120  0.48740  0.51642  Biso   1.000  O
  O55      1.0000 0.01950  0.40620  0.53997  Biso   1.000  O
  O56      1.0000 0.89710  0.27850  0.53710  Biso   1.000  O
  C57      1.0000 0.64087  0.47223  0.75394  Biso   1.000  C
  C58      1.0000 0.69567  0.50343  0.77025  Biso   1.000  C
  C59      1.0000 0.73227  0.57703  0.78070  Biso   1.000  C
  C60      1.0000 0.73847  0.66473  0.78151  Biso   1.000  C
  C61      1.0000 0.83677  0.76393  0.83878  Biso   1.000  C
  C62      1.0000 0.74847  0.68223  0.84009  Biso   1.000  C
  C63      1.0000 0.67457  0.64493  0.85019  Biso   1.000  C
  C64      1.0000 0.64057  0.66953  0.86596  Biso   1.000  C
  Co8      1.0000 0.83454  0.66129  0.81051  Biso   1.000  Co
  N43      1.0000 0.71897  0.44923  0.77722  Biso   1.000  N
  N44      1.0000 0.76877  0.48393  0.79122  Biso   1.000  N
  N45      1.0000 0.77727  0.56163  0.79314  Biso   1.000  N
  N46      1.0000 0.73197  0.62203  0.82699  Biso   1.000  N
  N47      1.0000 0.65387  0.55423  0.82885  Biso   1.000  N
  N48      1.0000 0.61937  0.56693  0.84271  Biso   1.000  N
  O57      1.0000 0.62217  0.39583  0.74945  Biso   1.000  O
  O58      1.0000 0.61837  0.51893  0.74642  Biso   1.000  O
  O59      1.0000 0.70187  0.68633  0.77025  Biso   1.000  O
  O60      1.0000 0.78257  0.71263  0.79416  Biso   1.000  O
  O61      1.0000 0.88217  0.76713  0.82583  Biso   1.000  O
  O62      1.0000 0.85787  0.82073  0.84975  Biso   1.000  O
  O63      1.0000 0.68617  0.73953  0.87330  Biso   1.000  O
  O64      1.0000 0.56377  0.61183  0.87043  Biso   1.000  O
  C65      1.0000 0.30753  0.80557  0.08728  Biso   1.000  C
  C66      1.0000 0.36233  0.83677  0.10359  Biso   1.000  C
  C67      1.0000 0.39893  0.91037  0.11404  Biso   1.000  C
  C68      1.0000 0.40513  0.99807  0.11485  Biso   1.000  C
  C69      1.0000 0.50343  0.09727  0.17212  Biso   1.000  C
  C70      1.0000 0.41513  0.01557  0.17343  Biso   1.000  C
  C71      1.0000 0.34123  0.97827  0.18353  Biso   1.000  C
  C72      1.0000 0.30723  0.00287  0.19930  Biso   1.000  C
  Co9      1.0000 0.50120  0.99463  0.14384  Biso   1.000  Co
  N49      1.0000 0.38563  0.78257  0.11056  Biso   1.000  N
  N50      1.0000 0.43543  0.81727  0.12456  Biso   1.000  N
  N51      1.0000 0.44393  0.89497  0.12648  Biso   1.000  N
  N52      1.0000 0.39863  0.95537  0.16033  Biso   1.000  N
  N53      1.0000 0.32053  0.88757  0.16219  Biso   1.000  N
  N54      1.0000 0.28603  0.90027  0.17605  Biso   1.000  N
  O65      1.0000 0.28883  0.72917  0.08279  Biso   1.000  O
  O66      1.0000 0.28503  0.85227  0.07976  Biso   1.000  O
  O67      1.0000 0.36853  0.01967  0.10359  Biso   1.000  O
  O68      1.0000 0.44923  0.04597  0.12750  Biso   1.000  O
  O69      1.0000 0.54883  0.10047  0.15917  Biso   1.000  O
  O70      1.0000 0.52453  0.15407  0.18309  Biso   1.000  O
  O71      1.0000 0.35283  0.07287  0.20664  Biso   1.000  O
  O72      1.0000 0.23043  0.94517  0.20377  Biso   1.000  O
  C73      1.0000 0.83530  0.86110  0.07939  Biso   1.000  C
  C74      1.0000 0.85890  0.82990  0.06308  Biso   1.000  C
  C75      1.0000 0.82190  0.75630  0.05263  Biso   1.000  C
  C76      1.0000 0.74040  0.66860  0.05182  Biso   1.000  C
  C77      1.0000 0.73950  0.56940  0.99455  Biso   1.000  C
  C78      1.0000 0.73290  0.65110  0.99324  Biso   1.000  C
  C79      1.0000 0.69630  0.68840  0.98314  Biso   1.000  C
  C80      1.0000 0.63770  0.66380  0.96737  Biso   1.000  C
  Co10     1.0000 0.83991  0.67204  0.02283  Biso   1.000  Co
  N55      1.0000 0.93640  0.88410  0.05611  Biso   1.000  N
  N56      1.0000 0.95150  0.84940  0.04211  Biso   1.000  N
  N57      1.0000 0.88230  0.77170  0.04019  Biso   1.000  N
  N58      1.0000 0.77660  0.71130  0.00634  Biso   1.000  N
  N59      1.0000 0.76630  0.77910  0.00448  Biso   1.000  N
  N60      1.0000 0.71910  0.76640  0.99062  Biso   1.000  N
  O73      1.0000 0.89300  0.93750  0.08388  Biso   1.000  O
  O74      1.0000 0.76610  0.81440  0.08691  Biso   1.000  O
  O75      1.0000 0.68220  0.64700  0.06308  Biso   1.000  O
  O76      1.0000 0.73660  0.62070  0.03917  Biso   1.000  O
  O77      1.0000 0.78170  0.56620  0.00750  Biso   1.000  O
  O78      1.0000 0.70380  0.51260  0.98358  Biso   1.000  O
  O79      1.0000 0.61330  0.59380  0.96003  Biso   1.000  O
  O80      1.0000 0.61860  0.72150  0.96290  Biso   1.000  O
  C81      1.0000 0.50197  0.19443  0.41272  Biso   1.000  C
  C82      1.0000 0.52557  0.16323  0.39641  Biso   1.000  C
  C83      1.0000 0.48857  0.08963  0.38596  Biso   1.000  C
  C84      1.0000 0.40707  0.00193  0.38515  Biso   1.000  C
  C85      1.0000 0.40617  0.90273  0.32788  Biso   1.000  C
  C86      1.0000 0.39957  0.98443  0.32657  Biso   1.000  C
  C87      1.0000 0.36297  0.02173  0.31647  Biso   1.000  C
  C88      1.0000 0.30437  0.99713  0.30070  Biso   1.000  C
  Co11     1.0000 0.50658  0.00537  0.35616  Biso   1.000  Co
  N61      1.0000 0.60307  0.21743  0.38944  Biso   1.000  N
  N62      1.0000 0.61817  0.18273  0.37544  Biso   1.000  N
  N63      1.0000 0.54897  0.10503  0.37352  Biso   1.000  N
  N64      1.0000 0.44327  0.04463  0.33967  Biso   1.000  N
  N65      1.0000 0.43297  0.11243  0.33781  Biso   1.000  N
  N66      1.0000 0.38577  0.09973  0.32395  Biso   1.000  N
  O81      1.0000 0.55967  0.27083  0.41721  Biso   1.000  O
  O82      1.0000 0.43277  0.14773  0.42024  Biso   1.000  O
  O83      1.0000 0.34887  0.98033  0.39641  Biso   1.000  O
  O84      1.0000 0.40327  0.95403  0.37250  Biso   1.000  O
  O85      1.0000 0.44837  0.89953  0.34083  Biso   1.000  O
  O86      1.0000 0.37047  0.84593  0.31691  Biso   1.000  O
  O87      1.0000 0.27997  0.92713  0.29336  Biso   1.000  O
  O88      1.0000 0.28527  0.05483  0.29623  Biso   1.000  O
  C89      1.0000 0.16863  0.52777  0.74606  Biso   1.000  C
  C90      1.0000 0.19223  0.49657  0.72975  Biso   1.000  C
  C91      1.0000 0.15523  0.42297  0.71930  Biso   1.000  C
  C92      1.0000 0.07373  0.33527  0.71849  Biso   1.000  C
  C93      1.0000 0.07283  0.23607  0.66122  Biso   1.000  C
  C94      1.0000 0.06623  0.31777  0.65991  Biso   1.000  C
  C95      1.0000 0.02963  0.35507  0.64981  Biso   1.000  C
  C96      1.0000 0.97103  0.33047  0.63404  Biso   1.000  C
  Co12     1.0000 0.17324  0.33871  0.68949  Biso   1.000  Co
  N67      1.0000 0.26973  0.55077  0.72278  Biso   1.000  N
  N68      1.0000 0.28483  0.51607  0.70878  Biso   1.000  N
  N69      1.0000 0.21563  0.43837  0.70686  Biso   1.000  N
  N70      1.0000 0.10993  0.37797  0.67301  Biso   1.000  N
  N71      1.0000 0.09963  0.44577  0.67115  Biso   1.000  N
  N72      1.0000 0.05243  0.43307  0.65729  Biso   1.000  N
  O89      1.0000 0.22633  0.60417  0.75055  Biso   1.000  O
  O90      1.0000 0.09943  0.48107  0.75358  Biso   1.000  O
  O91      1.0000 0.01553  0.31367  0.72975  Biso   1.000  O
  O92      1.0000 0.06993  0.28737  0.70584  Biso   1.000  O
  O93      1.0000 0.11503  0.23287  0.67417  Biso   1.000  O
  O94      1.0000 0.03713  0.17927  0.65025  Biso   1.000  O
  O95      1.0000 0.94663  0.26047  0.62670  Biso   1.000  O
  O96      1.0000 0.95193  0.38817  0.62957  Biso   1.000  O
  C97      1.0000 0.02580  0.16470  0.07939  Biso   1.000  C
  C98      1.0000 0.97100  0.14110  0.06308  Biso   1.000  C
  C99      1.0000 0.93440  0.17810  0.05263  Biso   1.000  C
  C100     1.0000 0.92820  0.25960  0.05182  Biso   1.000  C
  C101     1.0000 0.82990  0.26050  0.99455  Biso   1.000  C
  C102     1.0000 0.91820  0.26710  0.99324  Biso   1.000  C
  C103     1.0000 0.99210  0.30370  0.98314  Biso   1.000  C
  C104     1.0000 0.02610  0.36230  0.96737  Biso   1.000  C
  Co13     1.0000 0.83213  0.16009  0.02283  Biso   1.000  Co
  N73      1.0000 0.94770  0.06360  0.05611  Biso   1.000  N
  N74      1.0000 0.89790  0.04850  0.04211  Biso   1.000  N
  N75      1.0000 0.88940  0.11770  0.04019  Biso   1.000  N
  N76      1.0000 0.93470  0.22340  0.00634  Biso   1.000  N
  N77      1.0000 0.01280  0.23370  0.00448  Biso   1.000  N
  N78      1.0000 0.04730  0.28090  0.99062  Biso   1.000  N
  O97      1.0000 0.04450  0.10700  0.08388  Biso   1.000  O
  O98      1.0000 0.04830  0.23390  0.08691  Biso   1.000  O
  O99      1.0000 0.96480  0.31780  0.06308  Biso   1.000  O
  O100     1.0000 0.88410  0.26340  0.03917  Biso   1.000  O
  O101     1.0000 0.78450  0.21830  0.00750  Biso   1.000  O
  O102     1.0000 0.80880  0.29620  0.98358  Biso   1.000  O
  O103     1.0000 0.98050  0.38670  0.96003  Biso   1.000  O
  O104     1.0000 0.10290  0.38140  0.96290  Biso   1.000  O
  C105     1.0000 0.69247  0.49803  0.41272  Biso   1.000  C
  C106     1.0000 0.63767  0.47443  0.39641  Biso   1.000  C
  C107     1.0000 0.60107  0.51143  0.38596  Biso   1.000  C
  C108     1.0000 0.59487  0.59293  0.38515  Biso   1.000  C
  C109     1.0000 0.49657  0.59383  0.32788  Biso   1.000  C
  C110     1.0000 0.58487  0.60043  0.32657  Biso   1.000  C
  C111     1.0000 0.65877  0.63703  0.31647  Biso   1.000  C
  C112     1.0000 0.69277  0.69563  0.30070  Biso   1.000  C
  Co14     1.0000 0.49880  0.49342  0.35616  Biso   1.000  Co
  N79      1.0000 0.61437  0.39693  0.38944  Biso   1.000  N
  N80      1.0000 0.56457  0.38183  0.37544  Biso   1.000  N
  N81      1.0000 0.55607  0.45103  0.37352  Biso   1.000  N
  N82      1.0000 0.60137  0.55673  0.33967  Biso   1.000  N
  N83      1.0000 0.67947  0.56703  0.33781  Biso   1.000  N
  N84      1.0000 0.71397  0.61423  0.32395  Biso   1.000  N
  O105     1.0000 0.71117  0.44033  0.41721  Biso   1.000  O
  O106     1.0000 0.71497  0.56723  0.42024  Biso   1.000  O
  O107     1.0000 0.63147  0.65113  0.39641  Biso   1.000  O
  O108     1.0000 0.55077  0.59673  0.37250  Biso   1.000  O
  O109     1.0000 0.45117  0.55163  0.34083  Biso   1.000  O
  O110     1.0000 0.47547  0.62953  0.31691  Biso   1.000  O
  O111     1.0000 0.64717  0.72003  0.29336  Biso   1.000  O
  O112     1.0000 0.76957  0.71473  0.29623  Biso   1.000  O
  C113     1.0000 0.35913  0.83137  0.74606  Biso   1.000  C
  C114     1.0000 0.30433  0.80777  0.72975  Biso   1.000  C
  C115     1.0000 0.26773  0.84477  0.71930  Biso   1.000  C
  C116     1.0000 0.26153  0.92627  0.71849  Biso   1.000  C
  C117     1.0000 0.16323  0.92717  0.66122  Biso   1.000  C
  C118     1.0000 0.25153  0.93377  0.65991  Biso   1.000  C
  C119     1.0000 0.32543  0.97037  0.64981  Biso   1.000  C
  C120     1.0000 0.35943  0.02897  0.63404  Biso   1.000  C
  Co15     1.0000 0.16546  0.82676  0.68949  Biso   1.000  Co
  N85      1.0000 0.28103  0.73027  0.72278  Biso   1.000  N
  N86      1.0000 0.23123  0.71517  0.70878  Biso   1.000  N
  N87      1.0000 0.22273  0.78437  0.70686  Biso   1.000  N
  N88      1.0000 0.26803  0.89007  0.67301  Biso   1.000  N
  N89      1.0000 0.34613  0.90037  0.67115  Biso   1.000  N
  N90      1.0000 0.38063  0.94757  0.65729  Biso   1.000  N
  O113     1.0000 0.37783  0.77367  0.75055  Biso   1.000  O
  O114     1.0000 0.38163  0.90057  0.75358  Biso   1.000  O
  O115     1.0000 0.29813  0.98447  0.72975  Biso   1.000  O
  O116     1.0000 0.21743  0.93007  0.70584  Biso   1.000  O
  O117     1.0000 0.11783  0.88497  0.67417  Biso   1.000  O
  O118     1.0000 0.14213  0.96287  0.65025  Biso   1.000  O
  O119     1.0000 0.31383  0.05337  0.62670  Biso   1.000  O
  O120     1.0000 0.43623  0.04807  0.62957  Biso   1.000  O
  C121     1.0000 0.13890  0.97420  0.07939  Biso   1.000  C
  C122     1.0000 0.17010  0.02900  0.06308  Biso   1.000  C
  C123     1.0000 0.24370  0.06560  0.05263  Biso   1.000  C
  C124     1.0000 0.33140  0.07180  0.05182  Biso   1.000  C
  C125     1.0000 0.43060  0.17010  0.99455  Biso   1.000  C
  C126     1.0000 0.34890  0.08180  0.99324  Biso   1.000  C
  C127     1.0000 0.31160  0.00790  0.98314  Biso   1.000  C
  C128     1.0000 0.33620  0.97390  0.96737  Biso   1.000  C
  Co16     1.0000 0.32796  0.16787  0.02283  Biso   1.000  Co
  N91      1.0000 0.11590  0.05230  0.05611  Biso   1.000  N
  N92      1.0000 0.15060  0.10210  0.04211  Biso   1.000  N
  N93      1.0000 0.22830  0.11060  0.04019  Biso   1.000  N
  N94      1.0000 0.28870  0.06530  0.00634  Biso   1.000  N
  N95      1.0000 0.22090  0.98720  0.00448  Biso   1.000  N
  N96      1.0000 0.23360  0.95270  0.99062  Biso   1.000  N
  O121     1.0000 0.06250  0.95550  0.08388  Biso   1.000  O
  O122     1.0000 0.18560  0.95170  0.08691  Biso   1.000  O
  O123     1.0000 0.35300  0.03520  0.06308  Biso   1.000  O
  O124     1.0000 0.37930  0.11590  0.03917  Biso   1.000  O
  O125     1.0000 0.43380  0.21550  0.00750  Biso   1.000  O
  O126     1.0000 0.48740  0.19120  0.98358  Biso   1.000  O
  O127     1.0000 0.40620  0.01950  0.96003  Biso   1.000  O
  O128     1.0000 0.27850  0.89710  0.96290  Biso   1.000  O
  C129     1.0000 0.80557  0.30753  0.41272  Biso   1.000  C
  C130     1.0000 0.83677  0.36233  0.39641  Biso   1.000  C
  C131     1.0000 0.91037  0.39893  0.38596  Biso   1.000  C
  C132     1.0000 0.99807  0.40513  0.38515  Biso   1.000  C
  C133     1.0000 0.09727  0.50343  0.32788  Biso   1.000  C
  C134     1.0000 0.01557  0.41513  0.32657  Biso   1.000  C
  C135     1.0000 0.97827  0.34123  0.31647  Biso   1.000  C
  C136     1.0000 0.00287  0.30723  0.30070  Biso   1.000  C
  Co17     1.0000 0.99463  0.50120  0.35616  Biso   1.000  Co
  N97      1.0000 0.78257  0.38563  0.38944  Biso   1.000  N
  N98      1.0000 0.81727  0.43543  0.37544  Biso   1.000  N
  N99      1.0000 0.89497  0.44393  0.37352  Biso   1.000  N
  N100     1.0000 0.95537  0.39863  0.33967  Biso   1.000  N
  N101     1.0000 0.88757  0.32053  0.33781  Biso   1.000  N
  N102     1.0000 0.90027  0.28603  0.32395  Biso   1.000  N
  O129     1.0000 0.72917  0.28883  0.41721  Biso   1.000  O
  O130     1.0000 0.85227  0.28503  0.42024  Biso   1.000  O
  O131     1.0000 0.01967  0.36853  0.39641  Biso   1.000  O
  O132     1.0000 0.04597  0.44923  0.37250  Biso   1.000  O
  O133     1.0000 0.10047  0.54883  0.34083  Biso   1.000  O
  O134     1.0000 0.15407  0.52453  0.31691  Biso   1.000  O
  O135     1.0000 0.07287  0.35283  0.29336  Biso   1.000  O
  O136     1.0000 0.94517  0.23043  0.29623  Biso   1.000  O
  C137     1.0000 0.47223  0.64087  0.74606  Biso   1.000  C
  C138     1.0000 0.50343  0.69567  0.72975  Biso   1.000  C
  C139     1.0000 0.57703  0.73227  0.71930  Biso   1.000  C
  C140     1.0000 0.66473  0.73847  0.71849  Biso   1.000  C
  C141     1.0000 0.76393  0.83677  0.66122  Biso   1.000  C
  C142     1.0000 0.68223  0.74847  0.65991  Biso   1.000  C
  C143     1.0000 0.64493  0.67457  0.64981  Biso   1.000  C
  C144     1.0000 0.66953  0.64057  0.63404  Biso   1.000  C
  Co18     1.0000 0.66129  0.83454  0.68949  Biso   1.000  Co
  N103     1.0000 0.44923  0.71897  0.72278  Biso   1.000  N
  N104     1.0000 0.48393  0.76877  0.70878  Biso   1.000  N
  N105     1.0000 0.56163  0.77727  0.70686  Biso   1.000  N
  N106     1.0000 0.62203  0.73197  0.67301  Biso   1.000  N
  N107     1.0000 0.55423  0.65387  0.67115  Biso   1.000  N
  N108     1.0000 0.56693  0.61937  0.65729  Biso   1.000  N
  O137     1.0000 0.39583  0.62217  0.75055  Biso   1.000  O
  O138     1.0000 0.51893  0.61837  0.75358  Biso   1.000  O
  O139     1.0000 0.68633  0.70187  0.72975  Biso   1.000  O
  O140     1.0000 0.71263  0.78257  0.70584  Biso   1.000  O
  O141     1.0000 0.76713  0.88217  0.67417  Biso   1.000  O
  O142     1.0000 0.82073  0.85787  0.65025  Biso   1.000  O
  O143     1.0000 0.73953  0.68617  0.62670  Biso   1.000  O
  O144     1.0000 0.61183  0.56377  0.62957  Biso   1.000  O
  C145     1.0000 0.13890  0.16470  0.57939  Biso   1.000  C
  C146     1.0000 0.17010  0.14110  0.56308  Biso   1.000  C
  C147     1.0000 0.24370  0.17810  0.55263  Biso   1.000  C
  C148     1.0000 0.33140  0.25960  0.55182  Biso   1.000  C
  C149     1.0000 0.43060  0.26050  0.49455  Biso   1.000  C
  C150     1.0000 0.34890  0.26710  0.49324  Biso   1.000  C
  C151     1.0000 0.31160  0.30370  0.48314  Biso   1.000  C
  C152     1.0000 0.33620  0.36230  0.46737  Biso   1.000  C
  Co19     1.0000 0.32796  0.16009  0.52283  Biso   1.000  Co
  N109     1.0000 0.11590  0.06360  0.55611  Biso   1.000  N
  N110     1.0000 0.15060  0.04850  0.54211  Biso   1.000  N
  N111     1.0000 0.22830  0.11770  0.54019  Biso   1.000  N
  N112     1.0000 0.28870  0.22340  0.50634  Biso   1.000  N
  N113     1.0000 0.22090  0.23370  0.50448  Biso   1.000  N
  N114     1.0000 0.23360  0.28090  0.49062  Biso   1.000  N
  O145     1.0000 0.06250  0.10700  0.58388  Biso   1.000  O
  O146     1.0000 0.18560  0.23390  0.58691  Biso   1.000  O
  O147     1.0000 0.35300  0.31780  0.56308  Biso   1.000  O
  O148     1.0000 0.37930  0.26340  0.53917  Biso   1.000  O
  O149     1.0000 0.43380  0.21830  0.50750  Biso   1.000  O
  O150     1.0000 0.48740  0.29620  0.48358  Biso   1.000  O
  O151     1.0000 0.40620  0.38670  0.46003  Biso   1.000  O
  O152     1.0000 0.27850  0.38140  0.46290  Biso   1.000  O
  C153     1.0000 0.80557  0.49803  0.91272  Biso   1.000  C
  C154     1.0000 0.83677  0.47443  0.89641  Biso   1.000  C
  C155     1.0000 0.91037  0.51143  0.88596  Biso   1.000  C
  C156     1.0000 0.99807  0.59293  0.88515  Biso   1.000  C
  C157     1.0000 0.09727  0.59383  0.82788  Biso   1.000  C
  C158     1.0000 0.01557  0.60043  0.82657  Biso   1.000  C
  C159     1.0000 0.97827  0.63703  0.81647  Biso   1.000  C
  C160     1.0000 0.00287  0.69563  0.80070  Biso   1.000  C
  Co20     1.0000 0.99463  0.49342  0.85616  Biso   1.000  Co
  N115     1.0000 0.78257  0.39693  0.88944  Biso   1.000  N
  N116     1.0000 0.81727  0.38183  0.87544  Biso   1.000  N
  N117     1.0000 0.89497  0.45103  0.87352  Biso   1.000  N
  N118     1.0000 0.95537  0.55673  0.83967  Biso   1.000  N
  N119     1.0000 0.88757  0.56703  0.83781  Biso   1.000  N
  N120     1.0000 0.90027  0.61423  0.82395  Biso   1.000  N
  O153     1.0000 0.72917  0.44033  0.91721  Biso   1.000  O
  O154     1.0000 0.85227  0.56723  0.92024  Biso   1.000  O
  O155     1.0000 0.01967  0.65113  0.89641  Biso   1.000  O
  O156     1.0000 0.04597  0.59673  0.87250  Biso   1.000  O
  O157     1.0000 0.10047  0.55163  0.84083  Biso   1.000  O
  O158     1.0000 0.15407  0.62953  0.81691  Biso   1.000  O
  O159     1.0000 0.07287  0.72003  0.79336  Biso   1.000  O
  O160     1.0000 0.94517  0.71473  0.79623  Biso   1.000  O
  C161     1.0000 0.47223  0.83137  0.24606  Biso   1.000  C
  C162     1.0000 0.50343  0.80777  0.22975  Biso   1.000  C
  C163     1.0000 0.57703  0.84477  0.21930  Biso   1.000  C
  C164     1.0000 0.66473  0.92627  0.21849  Biso   1.000  C
  C165     1.0000 0.76393  0.92717  0.16122  Biso   1.000  C
  C166     1.0000 0.68223  0.93377  0.15991  Biso   1.000  C
  C167     1.0000 0.64493  0.97037  0.14981  Biso   1.000  C
  C168     1.0000 0.66953  0.02897  0.13404  Biso   1.000  C
  Co21     1.0000 0.66129  0.82676  0.18949  Biso   1.000  Co
  N121     1.0000 0.44923  0.73027  0.22278  Biso   1.000  N
  N122     1.0000 0.48393  0.71517  0.20878  Biso   1.000  N
  N123     1.0000 0.56163  0.78437  0.20686  Biso   1.000  N
  N124     1.0000 0.62203  0.89007  0.17301  Biso   1.000  N
  N125     1.0000 0.55423  0.90037  0.17115  Biso   1.000  N
  N126     1.0000 0.56693  0.94757  0.15729  Biso   1.000  N
  O161     1.0000 0.39583  0.77367  0.25055  Biso   1.000  O
  O162     1.0000 0.51893  0.90057  0.25358  Biso   1.000  O
  O163     1.0000 0.68633  0.98447  0.22975  Biso   1.000  O
  O164     1.0000 0.71263  0.93007  0.20584  Biso   1.000  O
  O165     1.0000 0.76713  0.88497  0.17417  Biso   1.000  O
  O166     1.0000 0.82073  0.96287  0.15025  Biso   1.000  O
  O167     1.0000 0.73953  0.05337  0.12670  Biso   1.000  O
  O168     1.0000 0.61183  0.04807  0.12957  Biso   1.000  O
  C169     1.0000 0.83530  0.97420  0.57939  Biso   1.000  C
  C170     1.0000 0.85890  0.02900  0.56308  Biso   1.000  C
  C171     1.0000 0.82190  0.06560  0.55263  Biso   1.000  C
  C172     1.0000 0.74040  0.07180  0.55182  Biso   1.000  C
  C173     1.0000 0.73950  0.17010  0.49455  Biso   1.000  C
  C174     1.0000 0.73290  0.08180  0.49324  Biso   1.000  C
  C175     1.0000 0.69630  0.00790  0.48314  Biso   1.000  C
  C176     1.0000 0.63770  0.97390  0.46737  Biso   1.000  C
  Co22     1.0000 0.83991  0.16787  0.52283  Biso   1.000  Co
  N127     1.0000 0.93640  0.05230  0.55611  Biso   1.000  N
  N128     1.0000 0.95150  0.10210  0.54211  Biso   1.000  N
  N129     1.0000 0.88230  0.11060  0.54019  Biso   1.000  N
  N130     1.0000 0.77660  0.06530  0.50634  Biso   1.000  N
  N131     1.0000 0.76630  0.98720  0.50448  Biso   1.000  N
  N132     1.0000 0.71910  0.95270  0.49062  Biso   1.000  N
  O169     1.0000 0.89300  0.95550  0.58388  Biso   1.000  O
  O170     1.0000 0.76610  0.95170  0.58691  Biso   1.000  O
  O171     1.0000 0.68220  0.03520  0.56308  Biso   1.000  O
  O172     1.0000 0.73660  0.11590  0.53917  Biso   1.000  O
  O173     1.0000 0.78170  0.21550  0.50750  Biso   1.000  O
  O174     1.0000 0.70380  0.19120  0.48358  Biso   1.000  O
  O175     1.0000 0.61330  0.01950  0.46003  Biso   1.000  O
  O176     1.0000 0.61860  0.89710  0.46290  Biso   1.000  O
  C177     1.0000 0.50197  0.30753  0.91272  Biso   1.000  C
  C178     1.0000 0.52557  0.36233  0.89641  Biso   1.000  C
  C179     1.0000 0.48857  0.39893  0.88596  Biso   1.000  C
  C180     1.0000 0.40707  0.40513  0.88515  Biso   1.000  C
  C181     1.0000 0.40617  0.50343  0.82788  Biso   1.000  C
  C182     1.0000 0.39957  0.41513  0.82657  Biso   1.000  C
  C183     1.0000 0.36297  0.34123  0.81647  Biso   1.000  C
  C184     1.0000 0.30437  0.30723  0.80070  Biso   1.000  C
  Co23     1.0000 0.50658  0.50120  0.85616  Biso   1.000  Co
  N133     1.0000 0.60307  0.38563  0.88944  Biso   1.000  N
  N134     1.0000 0.61817  0.43543  0.87544  Biso   1.000  N
  N135     1.0000 0.54897  0.44393  0.87352  Biso   1.000  N
  N136     1.0000 0.44327  0.39863  0.83967  Biso   1.000  N
  N137     1.0000 0.43297  0.32053  0.83781  Biso   1.000  N
  N138     1.0000 0.38577  0.28603  0.82395  Biso   1.000  N
  O177     1.0000 0.55967  0.28883  0.91721  Biso   1.000  O
  O178     1.0000 0.43277  0.28503  0.92024  Biso   1.000  O
  O179     1.0000 0.34887  0.36853  0.89641  Biso   1.000  O
  O180     1.0000 0.40327  0.44923  0.87250  Biso   1.000  O
  O181     1.0000 0.44837  0.54883  0.84083  Biso   1.000  O
  O182     1.0000 0.37047  0.52453  0.81691  Biso   1.000  O
  O183     1.0000 0.27997  0.35283  0.79336  Biso   1.000  O
  O184     1.0000 0.28527  0.23043  0.79623  Biso   1.000  O
  C185     1.0000 0.16863  0.64087  0.24606  Biso   1.000  C
  C186     1.0000 0.19223  0.69567  0.22975  Biso   1.000  C
  C187     1.0000 0.15523  0.73227  0.21930  Biso   1.000  C
  C188     1.0000 0.07373  0.73847  0.21849  Biso   1.000  C
  C189     1.0000 0.07283  0.83677  0.16122  Biso   1.000  C
  C190     1.0000 0.06623  0.74847  0.15991  Biso   1.000  C
  C191     1.0000 0.02963  0.67457  0.14981  Biso   1.000  C
  C192     1.0000 0.97103  0.64057  0.13404  Biso   1.000  C
  Co24     1.0000 0.17324  0.83454  0.18949  Biso   1.000  Co
  N139     1.0000 0.26973  0.71897  0.22278  Biso   1.000  N
  N140     1.0000 0.28483  0.76877  0.20878  Biso   1.000  N
  N141     1.0000 0.21563  0.77727  0.20686  Biso   1.000  N
  N142     1.0000 0.10993  0.73197  0.17301  Biso   1.000  N
  N143     1.0000 0.09963  0.65387  0.17115  Biso   1.000  N
  N144     1.0000 0.05243  0.61937  0.15729  Biso   1.000  N
  O185     1.0000 0.22633  0.62217  0.25055  Biso   1.000  O
  O186     1.0000 0.09943  0.61837  0.25358  Biso   1.000  O
  O187     1.0000 0.01553  0.70187  0.22975  Biso   1.000  O
  O188     1.0000 0.06993  0.78257  0.20584  Biso   1.000  O
  O189     1.0000 0.11503  0.88217  0.17417  Biso   1.000  O
  O190     1.0000 0.03713  0.85787  0.15025  Biso   1.000  O
  O191     1.0000 0.94663  0.68617  0.12670  Biso   1.000  O
  O192     1.0000 0.95193  0.56377  0.12957  Biso   1.000  O
  C193     1.0000 0.02580  0.86110  0.57939  Biso   1.000  C
  C194     1.0000 0.97100  0.82990  0.56308  Biso   1.000  C
  C195     1.0000 0.93440  0.75630  0.55263  Biso   1.000  C
  C196     1.0000 0.92820  0.66860  0.55182  Biso   1.000  C
  C197     1.0000 0.82990  0.56940  0.49455  Biso   1.000  C
  C198     1.0000 0.91820  0.65110  0.49324  Biso   1.000  C
  C199     1.0000 0.99210  0.68840  0.48314  Biso   1.000  C
  C200     1.0000 0.02610  0.66380  0.46737  Biso   1.000  C
  Co25     1.0000 0.83213  0.67204  0.52283  Biso   1.000  Co
  N145     1.0000 0.94770  0.88410  0.55611  Biso   1.000  N
  N146     1.0000 0.89790  0.84940  0.54211  Biso   1.000  N
  N147     1.0000 0.88940  0.77170  0.54019  Biso   1.000  N
  N148     1.0000 0.93470  0.71130  0.50634  Biso   1.000  N
  N149     1.0000 0.01280  0.77910  0.50448  Biso   1.000  N
  N150     1.0000 0.04730  0.76640  0.49062  Biso   1.000  N
  O193     1.0000 0.04450  0.93750  0.58388  Biso   1.000  O
  O194     1.0000 0.04830  0.81440  0.58691  Biso   1.000  O
  O195     1.0000 0.96480  0.64700  0.56308  Biso   1.000  O
  O196     1.0000 0.88410  0.62070  0.53917  Biso   1.000  O
  O197     1.0000 0.78450  0.56620  0.50750  Biso   1.000  O
  O198     1.0000 0.80880  0.51260  0.48358  Biso   1.000  O
  O199     1.0000 0.98050  0.59380  0.46003  Biso   1.000  O
  O200     1.0000 0.10290  0.72150  0.46290  Biso   1.000  O
  C201     1.0000 0.69247  0.19443  0.91272  Biso   1.000  C
  C202     1.0000 0.63767  0.16323  0.89641  Biso   1.000  C
  C203     1.0000 0.60107  0.08963  0.88596  Biso   1.000  C
  C204     1.0000 0.59487  0.00193  0.88515  Biso   1.000  C
  C205     1.0000 0.49657  0.90273  0.82788  Biso   1.000  C
  C206     1.0000 0.58487  0.98443  0.82657  Biso   1.000  C
  C207     1.0000 0.65877  0.02173  0.81647  Biso   1.000  C
  C208     1.0000 0.69277  0.99713  0.80070  Biso   1.000  C
  Co26     1.0000 0.49880  0.00537  0.85616  Biso   1.000  Co
  N151     1.0000 0.61437  0.21743  0.88944  Biso   1.000  N
  N152     1.0000 0.56457  0.18273  0.87544  Biso   1.000  N
  N153     1.0000 0.55607  0.10503  0.87352  Biso   1.000  N
  N154     1.0000 0.60137  0.04463  0.83967  Biso   1.000  N
  N155     1.0000 0.67947  0.11243  0.83781  Biso   1.000  N
  N156     1.0000 0.71397  0.09973  0.82395  Biso   1.000  N
  O201     1.0000 0.71117  0.27083  0.91721  Biso   1.000  O
  O202     1.0000 0.71497  0.14773  0.92024  Biso   1.000  O
  O203     1.0000 0.63147  0.98033  0.89641  Biso   1.000  O
  O204     1.0000 0.55077  0.95403  0.87250  Biso   1.000  O
  O205     1.0000 0.45117  0.89953  0.84083  Biso   1.000  O
  O206     1.0000 0.47547  0.84593  0.81691  Biso   1.000  O
  O207     1.0000 0.64717  0.92713  0.79336  Biso   1.000  O
  O208     1.0000 0.76957  0.05483  0.79623  Biso   1.000  O
  C209     1.0000 0.35913  0.52777  0.24606  Biso   1.000  C
  C210     1.0000 0.30433  0.49657  0.22975  Biso   1.000  C
  C211     1.0000 0.26773  0.42297  0.21930  Biso   1.000  C
  C212     1.0000 0.26153  0.33527  0.21849  Biso   1.000  C
  C213     1.0000 0.16323  0.23607  0.16122  Biso   1.000  C
  C214     1.0000 0.25153  0.31777  0.15991  Biso   1.000  C
  C215     1.0000 0.32543  0.35507  0.14981  Biso   1.000  C
  C216     1.0000 0.35943  0.33047  0.13404  Biso   1.000  C
  Co27     1.0000 0.16546  0.33871  0.18949  Biso   1.000  Co
  N157     1.0000 0.28103  0.55077  0.22278  Biso   1.000  N
  N158     1.0000 0.23123  0.51607  0.20878  Biso   1.000  N
  N159     1.0000 0.22273  0.43837  0.20686  Biso   1.000  N
  N160     1.0000 0.26803  0.37797  0.17301  Biso   1.000  N
  N161     1.0000 0.34613  0.44577  0.17115  Biso   1.000  N
  N162     1.0000 0.38063  0.43307  0.15729  Biso   1.000  N
  O209     1.0000 0.37783  0.60417  0.25055  Biso   1.000  O
  O210     1.0000 0.38163  0.48107  0.25358  Biso   1.000  O
  O211     1.0000 0.29813  0.31367  0.22975  Biso   1.000  O
  O212     1.0000 0.21743  0.28737  0.20584  Biso   1.000  O
  O213     1.0000 0.11783  0.23287  0.17417  Biso   1.000  O
  O214     1.0000 0.14213  0.17927  0.15025  Biso   1.000  O
  O215     1.0000 0.31383  0.26047  0.12670  Biso   1.000  O
  O216     1.0000 0.43623  0.38817  0.12957  Biso   1.000  O
  C217     1.0000 0.16470  0.13890  0.92061  Biso   1.000  C
  C218     1.0000 0.14110  0.17010  0.93692  Biso   1.000  C
  C219     1.0000 0.17810  0.24370  0.94737  Biso   1.000  C
  C220     1.0000 0.25960  0.33140  0.94818  Biso   1.000  C
  C221     1.0000 0.26050  0.43060  0.00545  Biso   1.000  C
  C222     1.0000 0.26710  0.34890  0.00676  Biso   1.000  C
  C223     1.0000 0.30370  0.31160  0.01686  Biso   1.000  C
  C224     1.0000 0.36230  0.33620  0.03263  Biso   1.000  C
  Co28     1.0000 0.16009  0.32796  0.97717  Biso   1.000  Co
  N163     1.0000 0.06360  0.11590  0.94389  Biso   1.000  N
  N164     1.0000 0.04850  0.15060  0.95789  Biso   1.000  N
  N165     1.0000 0.11770  0.22830  0.95981  Biso   1.000  N
  N166     1.0000 0.22340  0.28870  0.99366  Biso   1.000  N
  N167     1.0000 0.23370  0.22090  0.99552  Biso   1.000  N
  N168     1.0000 0.28090  0.23360  0.00938  Biso   1.000  N
  O217     1.0000 0.10700  0.06250  0.91612  Biso   1.000  O
  O218     1.0000 0.23390  0.18560  0.91309  Biso   1.000  O
  O219     1.0000 0.31780  0.35300  0.93692  Biso   1.000  O
  O220     1.0000 0.26340  0.37930  0.96083  Biso   1.000  O
  O221     1.0000 0.21830  0.43380  0.99250  Biso   1.000  O
  O222     1.0000 0.29620  0.48740  0.01642  Biso   1.000  O
  O223     1.0000 0.38670  0.40620  0.03997  Biso   1.000  O
  O224     1.0000 0.38140  0.27850  0.03710  Biso   1.000  O
  C225     1.0000 0.83137  0.47223  0.25394  Biso   1.000  C
  C226     1.0000 0.80777  0.50343  0.27025  Biso   1.000  C
  C227     1.0000 0.84477  0.57703  0.28070  Biso   1.000  C
  C228     1.0000 0.92627  0.66473  0.28151  Biso   1.000  C
  C229     1.0000 0.92717  0.76393  0.33878  Biso   1.000  C
  C230     1.0000 0.93377  0.68223  0.34009  Biso   1.000  C
  C231     1.0000 0.97037  0.64493  0.35019  Biso   1.000  C
  C232     1.0000 0.02897  0.66953  0.36596  Biso   1.000  C
  Co29     1.0000 0.82676  0.66129  0.31051  Biso   1.000  Co
  N169     1.0000 0.73027  0.44923  0.27722  Biso   1.000  N
  N170     1.0000 0.71517  0.48393  0.29122  Biso   1.000  N
  N171     1.0000 0.78437  0.56163  0.29314  Biso   1.000  N
  N172     1.0000 0.89007  0.62203  0.32699  Biso   1.000  N
  N173     1.0000 0.90037  0.55423  0.32885  Biso   1.000  N
  N174     1.0000 0.94757  0.56693  0.34271  Biso   1.000  N
  O225     1.0000 0.77367  0.39583  0.24945  Biso   1.000  O
  O226     1.0000 0.90057  0.51893  0.24642  Biso   1.000  O
  O227     1.0000 0.98447  0.68633  0.27025  Biso   1.000  O
  O228     1.0000 0.93007  0.71263  0.29416  Biso   1.000  O
  O229     1.0000 0.88497  0.76713  0.32583  Biso   1.000  O
  O230     1.0000 0.96287  0.82073  0.34975  Biso   1.000  O
  O231     1.0000 0.05337  0.73953  0.37330  Biso   1.000  O
  O232     1.0000 0.04807  0.61183  0.37043  Biso   1.000  O
  C233     1.0000 0.49803  0.80557  0.58728  Biso   1.000  C
  C234     1.0000 0.47443  0.83677  0.60359  Biso   1.000  C
  C235     1.0000 0.51143  0.91037  0.61404  Biso   1.000  C
  C236     1.0000 0.59293  0.99807  0.61485  Biso   1.000  C
  C237     1.0000 0.59383  0.09727  0.67212  Biso   1.000  C
  C238     1.0000 0.60043  0.01557  0.67343  Biso   1.000  C
  C239     1.0000 0.63703  0.97827  0.68353  Biso   1.000  C
  C240     1.0000 0.69563  0.00287  0.69930  Biso   1.000  C
  Co30     1.0000 0.49342  0.99463  0.64384  Biso   1.000  Co
  N175     1.0000 0.39693  0.78257  0.61056  Biso   1.000  N
  N176     1.0000 0.38183  0.81727  0.62456  Biso   1.000  N
  N177     1.0000 0.45103  0.89497  0.62648  Biso   1.000  N
  N178     1.0000 0.55673  0.95537  0.66033  Biso   1.000  N
  N179     1.0000 0.56703  0.88757  0.66219  Biso   1.000  N
  N180     1.0000 0.61423  0.90027  0.67605  Biso   1.000  N
  O233     1.0000 0.44033  0.72917  0.58279  Biso   1.000  O
  O234     1.0000 0.56723  0.85227  0.57976  Biso   1.000  O
  O235     1.0000 0.65113  0.01967  0.60359  Biso   1.000  O
  O236     1.0000 0.59673  0.04597  0.62750  Biso   1.000  O
  O237     1.0000 0.55163  0.10047  0.65917  Biso   1.000  O
  O238     1.0000 0.62953  0.15407  0.68309  Biso   1.000  O
  O239     1.0000 0.72003  0.07287  0.70664  Biso   1.000  O
  O240     1.0000 0.71473  0.94517  0.70377  Biso   1.000  O
  C241     1.0000 0.97420  0.83530  0.92061  Biso   1.000  C
  C242     1.0000 0.02900  0.85890  0.93692  Biso   1.000  C
  C243     1.0000 0.06560  0.82190  0.94737  Biso   1.000  C
  C244     1.0000 0.07180  0.74040  0.94818  Biso   1.000  C
  C245     1.0000 0.17010  0.73950  0.00545  Biso   1.000  C
  C246     1.0000 0.08180  0.73290  0.00676  Biso   1.000  C
  C247     1.0000 0.00790  0.69630  0.01686  Biso   1.000  C
  C248     1.0000 0.97390  0.63770  0.03263  Biso   1.000  C
  Co31     1.0000 0.16787  0.83991  0.97717  Biso   1.000  Co
  N181     1.0000 0.05230  0.93640  0.94389  Biso   1.000  N
  N182     1.0000 0.10210  0.95150  0.95789  Biso   1.000  N
  N183     1.0000 0.11060  0.88230  0.95981  Biso   1.000  N
  N184     1.0000 0.06530  0.77660  0.99366  Biso   1.000  N
  N185     1.0000 0.98720  0.76630  0.99552  Biso   1.000  N
  N186     1.0000 0.95270  0.71910  0.00938  Biso   1.000  N
  O241     1.0000 0.95550  0.89300  0.91612  Biso   1.000  O
  O242     1.0000 0.95170  0.76610  0.91309  Biso   1.000  O
  O243     1.0000 0.03520  0.68220  0.93692  Biso   1.000  O
  O244     1.0000 0.11590  0.73660  0.96083  Biso   1.000  O
  O245     1.0000 0.21550  0.78170  0.99250  Biso   1.000  O
  O246     1.0000 0.19120  0.70380  0.01642  Biso   1.000  O
  O247     1.0000 0.01950  0.61330  0.03997  Biso   1.000  O
  O248     1.0000 0.89710  0.61860  0.03710  Biso   1.000  O
  C249     1.0000 0.64087  0.16863  0.25394  Biso   1.000  C
  C250     1.0000 0.69567  0.19223  0.27025  Biso   1.000  C
  C251     1.0000 0.73227  0.15523  0.28070  Biso   1.000  C
  C252     1.0000 0.73847  0.07373  0.28151  Biso   1.000  C
  C253     1.0000 0.83677  0.07283  0.33878  Biso   1.000  C
  C254     1.0000 0.74847  0.06623  0.34009  Biso   1.000  C
  C255     1.0000 0.67457  0.02963  0.35019  Biso   1.000  C
  C256     1.0000 0.64057  0.97103  0.36596  Biso   1.000  C
  Co32     1.0000 0.83454  0.17324  0.31051  Biso   1.000  Co
  N187     1.0000 0.71897  0.26973  0.27722  Biso   1.000  N
  N188     1.0000 0.76877  0.28483  0.29122  Biso   1.000  N
  N189     1.0000 0.77727  0.21563  0.29314  Biso   1.000  N
  N190     1.0000 0.73197  0.10993  0.32699  Biso   1.000  N
  N191     1.0000 0.65387  0.09963  0.32885  Biso   1.000  N
  N192     1.0000 0.61937  0.05243  0.34271  Biso   1.000  N
  O249     1.0000 0.62217  0.22633  0.24945  Biso   1.000  O
  O250     1.0000 0.61837  0.09943  0.24642  Biso   1.000  O
  O251     1.0000 0.70187  0.01553  0.27025  Biso   1.000  O
  O252     1.0000 0.78257  0.06993  0.29416  Biso   1.000  O
  O253     1.0000 0.88217  0.11503  0.32583  Biso   1.000  O
  O254     1.0000 0.85787  0.03713  0.34975  Biso   1.000  O
  O255     1.0000 0.68617  0.94663  0.37330  Biso   1.000  O
  O256     1.0000 0.56377  0.95193  0.37043  Biso   1.000  O
  C257     1.0000 0.30753  0.50197  0.58728  Biso   1.000  C
  C258     1.0000 0.36233  0.52557  0.60359  Biso   1.000  C
  C259     1.0000 0.39893  0.48857  0.61404  Biso   1.000  C
  C260     1.0000 0.40513  0.40707  0.61485  Biso   1.000  C
  C261     1.0000 0.50343  0.40617  0.67212  Biso   1.000  C
  C262     1.0000 0.41513  0.39957  0.67343  Biso   1.000  C
  C263     1.0000 0.34123  0.36297  0.68353  Biso   1.000  C
  C264     1.0000 0.30723  0.30437  0.69930  Biso   1.000  C
  Co33     1.0000 0.50120  0.50658  0.64384  Biso   1.000  Co
  N193     1.0000 0.38563  0.60307  0.61056  Biso   1.000  N
  N194     1.0000 0.43543  0.61817  0.62456  Biso   1.000  N
  N195     1.0000 0.44393  0.54897  0.62648  Biso   1.000  N
  N196     1.0000 0.39863  0.44327  0.66033  Biso   1.000  N
  N197     1.0000 0.32053  0.43297  0.66219  Biso   1.000  N
  N198     1.0000 0.28603  0.38577  0.67605  Biso   1.000  N
  O257     1.0000 0.28883  0.55967  0.58279  Biso   1.000  O
  O258     1.0000 0.28503  0.43277  0.57976  Biso   1.000  O
  O259     1.0000 0.36853  0.34887  0.60359  Biso   1.000  O
  O260     1.0000 0.44923  0.40327  0.62750  Biso   1.000  O
  O261     1.0000 0.54883  0.44837  0.65917  Biso   1.000  O
  O262     1.0000 0.52453  0.37047  0.68309  Biso   1.000  O
  O263     1.0000 0.35283  0.27997  0.70664  Biso   1.000  O
  O264     1.0000 0.23043  0.28527  0.70377  Biso   1.000  O
  C265     1.0000 0.86110  0.02580  0.92061  Biso   1.000  C
  C266     1.0000 0.82990  0.97100  0.93692  Biso   1.000  C
  C267     1.0000 0.75630  0.93440  0.94737  Biso   1.000  C
  C268     1.0000 0.66860  0.92820  0.94818  Biso   1.000  C
  C269     1.0000 0.56940  0.82990  0.00545  Biso   1.000  C
  C270     1.0000 0.65110  0.91820  0.00676  Biso   1.000  C
  C271     1.0000 0.68840  0.99210  0.01686  Biso   1.000  C
  C272     1.0000 0.66380  0.02610  0.03263  Biso   1.000  C
  Co34     1.0000 0.67204  0.83213  0.97717  Biso   1.000  Co
  N199     1.0000 0.88410  0.94770  0.94389  Biso   1.000  N
  N200     1.0000 0.84940  0.89790  0.95789  Biso   1.000  N
  N201     1.0000 0.77170  0.88940  0.95981  Biso   1.000  N
  N202     1.0000 0.71130  0.93470  0.99366  Biso   1.000  N
  N203     1.0000 0.77910  0.01280  0.99552  Biso   1.000  N
  N204     1.0000 0.76640  0.04730  0.00938  Biso   1.000  N
  O265     1.0000 0.93750  0.04450  0.91612  Biso   1.000  O
  O266     1.0000 0.81440  0.04830  0.91309  Biso   1.000  O
  O267     1.0000 0.64700  0.96480  0.93692  Biso   1.000  O
  O268     1.0000 0.62070  0.88410  0.96083  Biso   1.000  O
  O269     1.0000 0.56620  0.78450  0.99250  Biso   1.000  O
  O270     1.0000 0.51260  0.80880  0.01642  Biso   1.000  O
  O271     1.0000 0.59380  0.98050  0.03997  Biso   1.000  O
  O272     1.0000 0.72150  0.10290  0.03710  Biso   1.000  O
  C273     1.0000 0.52777  0.35913  0.25394  Biso   1.000  C
  C274     1.0000 0.49657  0.30433  0.27025  Biso   1.000  C
  C275     1.0000 0.42297  0.26773  0.28070  Biso   1.000  C
  C276     1.0000 0.33527  0.26153  0.28151  Biso   1.000  C
  C277     1.0000 0.23607  0.16323  0.33878  Biso   1.000  C
  C278     1.0000 0.31777  0.25153  0.34009  Biso   1.000  C
  C279     1.0000 0.35507  0.32543  0.35019  Biso   1.000  C
  C280     1.0000 0.33047  0.35943  0.36596  Biso   1.000  C
  Co35     1.0000 0.33871  0.16546  0.31051  Biso   1.000  Co
  N205     1.0000 0.55077  0.28103  0.27722  Biso   1.000  N
  N206     1.0000 0.51607  0.23123  0.29122  Biso   1.000  N
  N207     1.0000 0.43837  0.22273  0.29314  Biso   1.000  N
  N208     1.0000 0.37797  0.26803  0.32699  Biso   1.000  N
  N209     1.0000 0.44577  0.34613  0.32885  Biso   1.000  N
  N210     1.0000 0.43307  0.38063  0.34271  Biso   1.000  N
  O273     1.0000 0.60417  0.37783  0.24945  Biso   1.000  O
  O274     1.0000 0.48107  0.38163  0.24642  Biso   1.000  O
  O275     1.0000 0.31367  0.29813  0.27025  Biso   1.000  O
  O276     1.0000 0.28737  0.21743  0.29416  Biso   1.000  O
  O277     1.0000 0.23287  0.11783  0.32583  Biso   1.000  O
  O278     1.0000 0.17927  0.14213  0.34975  Biso   1.000  O
  O279     1.0000 0.26047  0.31383  0.37330  Biso   1.000  O
  O280     1.0000 0.38817  0.43623  0.37043  Biso   1.000  O
  C281     1.0000 0.19443  0.69247  0.58728  Biso   1.000  C
  C282     1.0000 0.16323  0.63767  0.60359  Biso   1.000  C
  C283     1.0000 0.08963  0.60107  0.61404  Biso   1.000  C
  C284     1.0000 0.00193  0.59487  0.61485  Biso   1.000  C
  C285     1.0000 0.90273  0.49657  0.67212  Biso   1.000  C
  C286     1.0000 0.98443  0.58487  0.67343  Biso   1.000  C
  C287     1.0000 0.02173  0.65877  0.68353  Biso   1.000  C
  C288     1.0000 0.99713  0.69277  0.69930  Biso   1.000  C
  Co36     1.0000 0.00537  0.49880  0.64384  Biso   1.000  Co
  N211     1.0000 0.21743  0.61437  0.61056  Biso   1.000  N
  N212     1.0000 0.18273  0.56457  0.62456  Biso   1.000  N
  N213     1.0000 0.10503  0.55607  0.62648  Biso   1.000  N
  N214     1.0000 0.04463  0.60137  0.66033  Biso   1.000  N
  N215     1.0000 0.11243  0.67947  0.66219  Biso   1.000  N
  N216     1.0000 0.09973  0.71397  0.67605  Biso   1.000  N
  O281     1.0000 0.27083  0.71117  0.58279  Biso   1.000  O
  O282     1.0000 0.14773  0.71497  0.57976  Biso   1.000  O
  O283     1.0000 0.98033  0.63147  0.60359  Biso   1.000  O
  O284     1.0000 0.95403  0.55077  0.62750  Biso   1.000  O
  O285     1.0000 0.89953  0.45117  0.65917  Biso   1.000  O
  O286     1.0000 0.84593  0.47547  0.68309  Biso   1.000  O
  O287     1.0000 0.92713  0.64717  0.70664  Biso   1.000  O
  O288     1.0000 0.05483  0.76957  0.70377  Biso   1.000  O
  Co37     1.0000 0.00000  0.00000  0.43120  Biso   1.000  Co
  Co38     1.0000 0.66667  0.33333  0.76453  Biso   1.000  Co
  Co39     1.0000 0.33333  0.66667  0.09786  Biso   1.000  Co
  Co40     1.0000 0.00000  0.00000  0.06880  Biso   1.000  Co
  Co41     1.0000 0.66667  0.33333  0.40214  Biso   1.000  Co
  Co42     1.0000 0.33333  0.66667  0.73547  Biso   1.000  Co
  Co43     1.0000 0.00000  0.00000  0.56880  Biso   1.000  Co
  Co44     1.0000 0.66667  0.33333  0.90214  Biso   1.000  Co
  Co45     1.0000 0.33333  0.66667  0.23547  Biso   1.000  Co
  Co46     1.0000 0.00000  0.00000  0.93120  Biso   1.000  Co
  Co47     1.0000 0.66667  0.33333  0.26453  Biso   1.000  Co
  Co48     1.0000 0.33333  0.66667  0.59786  Biso   1.000  Co
  Li1      1.0000 0.70118  0.66667  0.41667  Biso   1.000  Li
  Li2      1.0000 0.36785  0.00000  0.75000  Biso   1.000  Li
  Li3      1.0000 0.33333  0.03452  0.41667  Biso   1.000  Li
  Li4      1.0000 0.00000  0.36785  0.75000  Biso   1.000  Li
  Li5      1.0000 0.96548  0.29882  0.41667  Biso   1.000  Li
  Li6      1.0000 0.63215  0.63215  0.75000  Biso   1.000  Li
  Li7      1.0000 0.66667  0.70118  0.08333  Biso   1.000  Li
  Li8      1.0000 0.03452  0.33333  0.08333  Biso   1.000  Li
  Li9      1.0000 0.29882  0.96548  0.08333  Biso   1.000  Li
  Li10     1.0000 0.29882  0.33333  0.58333  Biso   1.000  Li
  Li11     1.0000 0.66667  0.96548  0.58333  Biso   1.000  Li
  Li12     1.0000 0.03452  0.70118  0.58333  Biso   1.000  Li
  Li13     1.0000 0.33333  0.29882  0.91667  Biso   1.000  Li
  Li14     1.0000 0.00000  0.63215  0.25000  Biso   1.000  Li
  Li15     1.0000 0.96548  0.66667  0.91667  Biso   1.000  Li
  Li16     1.0000 0.63215  0.00000  0.25000  Biso   1.000  Li
  Li17     1.0000 0.70118  0.03452  0.91667  Biso   1.000  Li
  Li18     1.0000 0.36785  0.36785  0.25000  Biso   1.000  Li
