data_image0
_cell_length_a       24.5021
_cell_length_b       24.5021
_cell_length_c       71.8088
_cell_angle_alpha    90
_cell_angle_beta     90
_cell_angle_gamma    90

_symmetry_space_group_name_H-M    "P 1"
_symmetry_int_tables_number       1

loop_
  _symmetry_equiv_pos_as_xyz
  'x, y, z'

loop_
  _atom_site_label
  _atom_site_occupancy
  _atom_site_fract_x
  _atom_site_fract_y
  _atom_site_fract_z
  _atom_site_thermal_displace_type
  _atom_site_B_iso_or_equiv
  _atom_site_type_symbol
  O1       1.0000 0.92980  0.00754  0.11681  Biso   1.000  O
  O2       1.0000 0.99569  0.07268  0.11814  Biso   1.000  O
  O3       1.0000 0.92610  0.48831  0.09470  Biso   1.000  O
  C1       1.0000 0.94960  0.05110  0.11210  Biso   1.000  C
  C2       1.0000 0.87378  0.14139  0.06756  Biso   1.000  C
  C3       1.0000 0.85030  0.09401  0.07449  Biso   1.000  C
  H1       1.0000 0.81720  0.08130  0.06960  Biso   1.000  H
  C4       1.0000 0.87580  0.06538  0.08867  Biso   1.000  C
  H2       1.0000 0.86000  0.03330  0.09340  Biso   1.000  H
  C5       1.0000 0.92487  0.08412  0.09593  Biso   1.000  C
  C6       1.0000 0.94834  0.13149  0.08901  Biso   1.000  C
  H3       1.0000 0.98150  0.14420  0.09390  Biso   1.000  H
  C7       1.0000 0.92280  0.16012  0.07483  Biso   1.000  C
  H4       1.0000 0.93870  0.19220  0.07010  Biso   1.000  H
  Cu1      1.0000 0.96026  0.96411  0.13667  Biso   1.000  Cu
  C8       1.0000 0.82640  0.25900  0.03581  Biso   1.000  C
  C9       1.0000 0.82923  0.31554  0.03508  Biso   1.000  C
  C10      1.0000 0.80300  0.34364  0.02091  Biso   1.000  C
  H5       1.0000 0.80500  0.38190  0.02040  Biso   1.000  H
  C11      1.0000 0.77405  0.31522  0.00747  Biso   1.000  C
  C12      1.0000 0.77123  0.25868  0.00820  Biso   1.000  C
  C13      1.0000 0.79740  0.23057  0.02237  Biso   1.000  C
  C14      1.0000 0.84960  0.22900  0.05080  Biso   1.000  C
  H6       1.0000 0.86720  0.24810  0.06040  Biso   1.000  H
  C15      1.0000 0.84710  0.17310  0.05175  Biso   1.000  C
  C16      1.0000 0.81710  0.14380  0.03777  Biso   1.000  C
  H7       1.0000 0.81470  0.10550  0.03810  Biso   1.000  H
  C17      1.0000 0.79160  0.17320  0.02376  Biso   1.000  C
  H8       1.0000 0.77010  0.15470  0.01500  Biso   1.000  H
  C18      1.0000 0.86268  0.35081  0.04905  Biso   1.000  C
  C19      1.0000 0.83758  0.39425  0.05800  Biso   1.000  C
  H9       1.0000 0.80090  0.40240  0.05550  Biso   1.000  H
  C20      1.0000 0.86675  0.42557  0.07063  Biso   1.000  C
  H10      1.0000 0.84980  0.45490  0.07670  Biso   1.000  H
  C21      1.0000 0.92103  0.41345  0.07431  Biso   1.000  C
  C22      1.0000 0.94613  0.37001  0.06535  Biso   1.000  C
  H11      1.0000 0.98280  0.36180  0.06780  Biso   1.000  H
  C23      1.0000 0.91696  0.33869  0.05272  Biso   1.000  C
  H12      1.0000 0.93390  0.30930  0.04670  Biso   1.000  H
  O4       1.0000 0.99820  0.42929  0.09338  Biso   1.000  O
  C24      1.0000 0.95190  0.44670  0.08928  Biso   1.000  C
  O5       1.0000 0.74850  0.34080  0.99313  Biso   1.000  O
  C25      1.0000 0.76830  0.39880  0.98960  Biso   1.000  C
  C26      1.0000 0.73150  0.42730  0.97470  Biso   1.000  C
  C27      1.0000 0.72650  0.39520  0.99690  Biso   1.000  C
  C28      1.0000 0.67600  0.39220  0.00940  Biso   1.000  C
  O6       1.0000 0.42980  0.50754  0.61681  Biso   1.000  O
  O7       1.0000 0.49569  0.57268  0.61814  Biso   1.000  O
  O8       1.0000 0.42610  0.98831  0.59470  Biso   1.000  O
  C29      1.0000 0.44960  0.55110  0.61210  Biso   1.000  C
  C30      1.0000 0.37378  0.64139  0.56756  Biso   1.000  C
  C31      1.0000 0.35030  0.59401  0.57449  Biso   1.000  C
  H13      1.0000 0.31720  0.58130  0.56960  Biso   1.000  H
  C32      1.0000 0.37580  0.56538  0.58867  Biso   1.000  C
  H14      1.0000 0.36000  0.53330  0.59340  Biso   1.000  H
  C33      1.0000 0.42487  0.58412  0.59593  Biso   1.000  C
  C34      1.0000 0.44834  0.63149  0.58901  Biso   1.000  C
  H15      1.0000 0.48150  0.64420  0.59390  Biso   1.000  H
  C35      1.0000 0.42280  0.66012  0.57483  Biso   1.000  C
  H16      1.0000 0.43870  0.69220  0.57010  Biso   1.000  H
  Cu2      1.0000 0.46026  0.46411  0.63667  Biso   1.000  Cu
  C36      1.0000 0.32640  0.75900  0.53581  Biso   1.000  C
  C37      1.0000 0.32923  0.81554  0.53508  Biso   1.000  C
  C38      1.0000 0.30300  0.84364  0.52091  Biso   1.000  C
  H17      1.0000 0.30500  0.88190  0.52040  Biso   1.000  H
  C39      1.0000 0.27405  0.81522  0.50747  Biso   1.000  C
  C40      1.0000 0.27123  0.75868  0.50820  Biso   1.000  C
  C41      1.0000 0.29740  0.73057  0.52237  Biso   1.000  C
  C42      1.0000 0.34960  0.72900  0.55080  Biso   1.000  C
  H18      1.0000 0.36720  0.74810  0.56040  Biso   1.000  H
  C43      1.0000 0.34710  0.67310  0.55175  Biso   1.000  C
  C44      1.0000 0.31710  0.64380  0.53777  Biso   1.000  C
  H19      1.0000 0.31470  0.60550  0.53810  Biso   1.000  H
  C45      1.0000 0.29160  0.67320  0.52376  Biso   1.000  C
  H20      1.0000 0.27010  0.65470  0.51500  Biso   1.000  H
  C46      1.0000 0.36268  0.85081  0.54905  Biso   1.000  C
  C47      1.0000 0.33758  0.89425  0.55800  Biso   1.000  C
  H21      1.0000 0.30090  0.90240  0.55550  Biso   1.000  H
  C48      1.0000 0.36675  0.92557  0.57063  Biso   1.000  C
  H22      1.0000 0.34980  0.95490  0.57670  Biso   1.000  H
  C49      1.0000 0.42103  0.91345  0.57431  Biso   1.000  C
  C50      1.0000 0.44613  0.87001  0.56535  Biso   1.000  C
  H23      1.0000 0.48280  0.86180  0.56780  Biso   1.000  H
  C51      1.0000 0.41696  0.83869  0.55272  Biso   1.000  C
  H24      1.0000 0.43390  0.80930  0.54670  Biso   1.000  H
  O9       1.0000 0.49820  0.92929  0.59338  Biso   1.000  O
  C52      1.0000 0.45190  0.94670  0.58928  Biso   1.000  C
  O10      1.0000 0.24850  0.84080  0.49313  Biso   1.000  O
  C53      1.0000 0.26830  0.89880  0.48960  Biso   1.000  C
  C54      1.0000 0.23150  0.92730  0.47470  Biso   1.000  C
  C55      1.0000 0.22650  0.89520  0.49690  Biso   1.000  C
  C56      1.0000 0.17600  0.89220  0.50940  Biso   1.000  C
  O11      1.0000 0.57020  0.49246  0.61681  Biso   1.000  O
  O12      1.0000 0.50431  0.42732  0.61814  Biso   1.000  O
  O13      1.0000 0.57390  0.01169  0.59470  Biso   1.000  O
  C57      1.0000 0.55040  0.44890  0.61210  Biso   1.000  C
  C58      1.0000 0.62622  0.35861  0.56756  Biso   1.000  C
  C59      1.0000 0.64970  0.40599  0.57449  Biso   1.000  C
  H25      1.0000 0.68280  0.41870  0.56960  Biso   1.000  H
  C60      1.0000 0.62420  0.43462  0.58867  Biso   1.000  C
  H26      1.0000 0.64000  0.46670  0.59340  Biso   1.000  H
  C61      1.0000 0.57513  0.41588  0.59593  Biso   1.000  C
  C62      1.0000 0.55166  0.36851  0.58901  Biso   1.000  C
  H27      1.0000 0.51850  0.35580  0.59390  Biso   1.000  H
  C63      1.0000 0.57720  0.33988  0.57483  Biso   1.000  C
  H28      1.0000 0.56130  0.30780  0.57010  Biso   1.000  H
  Cu3      1.0000 0.53974  0.53589  0.63667  Biso   1.000  Cu
  C64      1.0000 0.67360  0.24100  0.53581  Biso   1.000  C
  C65      1.0000 0.67077  0.18446  0.53508  Biso   1.000  C
  C66      1.0000 0.69700  0.15636  0.52091  Biso   1.000  C
  H29      1.0000 0.69500  0.11810  0.52040  Biso   1.000  H
  C67      1.0000 0.72595  0.18478  0.50747  Biso   1.000  C
  C68      1.0000 0.72877  0.24132  0.50820  Biso   1.000  C
  C69      1.0000 0.70260  0.26943  0.52237  Biso   1.000  C
  C70      1.0000 0.65040  0.27100  0.55080  Biso   1.000  C
  H30      1.0000 0.63280  0.25190  0.56040  Biso   1.000  H
  C71      1.0000 0.65290  0.32690  0.55175  Biso   1.000  C
  C72      1.0000 0.68290  0.35620  0.53777  Biso   1.000  C
  H31      1.0000 0.68530  0.39450  0.53810  Biso   1.000  H
  C73      1.0000 0.70840  0.32680  0.52376  Biso   1.000  C
  H32      1.0000 0.72990  0.34530  0.51500  Biso   1.000  H
  C74      1.0000 0.63732  0.14919  0.54905  Biso   1.000  C
  C75      1.0000 0.66242  0.10575  0.55800  Biso   1.000  C
  H33      1.0000 0.69910  0.09760  0.55550  Biso   1.000  H
  C76      1.0000 0.63325  0.07443  0.57063  Biso   1.000  C
  H34      1.0000 0.65020  0.04510  0.57670  Biso   1.000  H
  C77      1.0000 0.57897  0.08655  0.57431  Biso   1.000  C
  C78      1.0000 0.55387  0.12999  0.56535  Biso   1.000  C
  H35      1.0000 0.51720  0.13820  0.56780  Biso   1.000  H
  C79      1.0000 0.58304  0.16131  0.55272  Biso   1.000  C
  H36      1.0000 0.56610  0.19070  0.54670  Biso   1.000  H
  O14      1.0000 0.50180  0.07071  0.59338  Biso   1.000  O
  C80      1.0000 0.54810  0.05330  0.58928  Biso   1.000  C
  O15      1.0000 0.75150  0.15920  0.49313  Biso   1.000  O
  C81      1.0000 0.73170  0.10120  0.48960  Biso   1.000  C
  C82      1.0000 0.76850  0.07270  0.47470  Biso   1.000  C
  C83      1.0000 0.77350  0.10480  0.49690  Biso   1.000  C
  C84      1.0000 0.82400  0.10780  0.50940  Biso   1.000  C
  O16      1.0000 0.07020  0.99246  0.11681  Biso   1.000  O
  O17      1.0000 0.00431  0.92732  0.11814  Biso   1.000  O
  O18      1.0000 0.07390  0.51169  0.09470  Biso   1.000  O
  C85      1.0000 0.05040  0.94890  0.11210  Biso   1.000  C
  C86      1.0000 0.12622  0.85861  0.06756  Biso   1.000  C
  C87      1.0000 0.14970  0.90599  0.07449  Biso   1.000  C
  H37      1.0000 0.18280  0.91870  0.06960  Biso   1.000  H
  C88      1.0000 0.12420  0.93462  0.08867  Biso   1.000  C
  H38      1.0000 0.14000  0.96670  0.09340  Biso   1.000  H
  C89      1.0000 0.07513  0.91588  0.09593  Biso   1.000  C
  C90      1.0000 0.05166  0.86851  0.08901  Biso   1.000  C
  H39      1.0000 0.01850  0.85580  0.09390  Biso   1.000  H
  C91      1.0000 0.07720  0.83988  0.07483  Biso   1.000  C
  H40      1.0000 0.06130  0.80780  0.07010  Biso   1.000  H
  Cu4      1.0000 0.03974  0.03589  0.13667  Biso   1.000  Cu
  C92      1.0000 0.17360  0.74100  0.03581  Biso   1.000  C
  C93      1.0000 0.17077  0.68446  0.03508  Biso   1.000  C
  C94      1.0000 0.19700  0.65636  0.02091  Biso   1.000  C
  H41      1.0000 0.19500  0.61810  0.02040  Biso   1.000  H
  C95      1.0000 0.22595  0.68478  0.00747  Biso   1.000  C
  C96      1.0000 0.22877  0.74132  0.00820  Biso   1.000  C
  C97      1.0000 0.20260  0.76943  0.02237  Biso   1.000  C
  C98      1.0000 0.15040  0.77100  0.05080  Biso   1.000  C
  H42      1.0000 0.13280  0.75190  0.06040  Biso   1.000  H
  C99      1.0000 0.15290  0.82690  0.05175  Biso   1.000  C
  C100     1.0000 0.18290  0.85620  0.03777  Biso   1.000  C
  H43      1.0000 0.18530  0.89450  0.03810  Biso   1.000  H
  C101     1.0000 0.20840  0.82680  0.02376  Biso   1.000  C
  H44      1.0000 0.22990  0.84530  0.01500  Biso   1.000  H
  C102     1.0000 0.13732  0.64919  0.04905  Biso   1.000  C
  C103     1.0000 0.16242  0.60575  0.05800  Biso   1.000  C
  H45      1.0000 0.19910  0.59760  0.05550  Biso   1.000  H
  C104     1.0000 0.13325  0.57443  0.07063  Biso   1.000  C
  H46      1.0000 0.15020  0.54510  0.07670  Biso   1.000  H
  C105     1.0000 0.07897  0.58655  0.07431  Biso   1.000  C
  C106     1.0000 0.05387  0.62999  0.06535  Biso   1.000  C
  H47      1.0000 0.01720  0.63820  0.06780  Biso   1.000  H
  C107     1.0000 0.08304  0.66131  0.05272  Biso   1.000  C
  H48      1.0000 0.06610  0.69070  0.04670  Biso   1.000  H
  O19      1.0000 0.00180  0.57071  0.09338  Biso   1.000  O
  C108     1.0000 0.04810  0.55330  0.08928  Biso   1.000  C
  O20      1.0000 0.25150  0.65920  0.99313  Biso   1.000  O
  C109     1.0000 0.23170  0.60120  0.98960  Biso   1.000  C
  C110     1.0000 0.26850  0.57270  0.97470  Biso   1.000  C
  C111     1.0000 0.27350  0.60480  0.99690  Biso   1.000  C
  C112     1.0000 0.32400  0.60780  0.00940  Biso   1.000  C
  O21      1.0000 0.99246  0.42980  0.36681  Biso   1.000  O
  O22      1.0000 0.92732  0.49569  0.36814  Biso   1.000  O
  O23      1.0000 0.51169  0.42610  0.34470  Biso   1.000  O
  C113     1.0000 0.94890  0.44960  0.36210  Biso   1.000  C
  C114     1.0000 0.85861  0.37378  0.31756  Biso   1.000  C
  C115     1.0000 0.90599  0.35030  0.32449  Biso   1.000  C
  H49      1.0000 0.91870  0.31720  0.31960  Biso   1.000  H
  C116     1.0000 0.93462  0.37580  0.33867  Biso   1.000  C
  H50      1.0000 0.96670  0.36000  0.34340  Biso   1.000  H
  C117     1.0000 0.91588  0.42487  0.34593  Biso   1.000  C
  C118     1.0000 0.86851  0.44834  0.33901  Biso   1.000  C
  H51      1.0000 0.85580  0.48150  0.34390  Biso   1.000  H
  C119     1.0000 0.83988  0.42280  0.32483  Biso   1.000  C
  H52      1.0000 0.80780  0.43870  0.32010  Biso   1.000  H
  Cu5      1.0000 0.03589  0.46026  0.38667  Biso   1.000  Cu
  C120     1.0000 0.74100  0.32640  0.28581  Biso   1.000  C
  C121     1.0000 0.68446  0.32923  0.28508  Biso   1.000  C
  C122     1.0000 0.65636  0.30300  0.27091  Biso   1.000  C
  H53      1.0000 0.61810  0.30500  0.27040  Biso   1.000  H
  C123     1.0000 0.68478  0.27405  0.25747  Biso   1.000  C
  C124     1.0000 0.74132  0.27123  0.25820  Biso   1.000  C
  C125     1.0000 0.76943  0.29740  0.27237  Biso   1.000  C
  C126     1.0000 0.77100  0.34960  0.30080  Biso   1.000  C
  H54      1.0000 0.75190  0.36720  0.31040  Biso   1.000  H
  C127     1.0000 0.82690  0.34710  0.30175  Biso   1.000  C
  C128     1.0000 0.85620  0.31710  0.28777  Biso   1.000  C
  H55      1.0000 0.89450  0.31470  0.28810  Biso   1.000  H
  C129     1.0000 0.82680  0.29160  0.27376  Biso   1.000  C
  H56      1.0000 0.84530  0.27010  0.26500  Biso   1.000  H
  C130     1.0000 0.64919  0.36268  0.29905  Biso   1.000  C
  C131     1.0000 0.60575  0.33758  0.30800  Biso   1.000  C
  H57      1.0000 0.59760  0.30090  0.30550  Biso   1.000  H
  C132     1.0000 0.57443  0.36675  0.32063  Biso   1.000  C
  H58      1.0000 0.54510  0.34980  0.32670  Biso   1.000  H
  C133     1.0000 0.58655  0.42103  0.32431  Biso   1.000  C
  C134     1.0000 0.62999  0.44613  0.31535  Biso   1.000  C
  H59      1.0000 0.63820  0.48280  0.31780  Biso   1.000  H
  C135     1.0000 0.66131  0.41696  0.30272  Biso   1.000  C
  H60      1.0000 0.69070  0.43390  0.29670  Biso   1.000  H
  O24      1.0000 0.57071  0.49820  0.34338  Biso   1.000  O
  C136     1.0000 0.55330  0.45190  0.33928  Biso   1.000  C
  O25      1.0000 0.65920  0.24850  0.24313  Biso   1.000  O
  C137     1.0000 0.60120  0.26830  0.23960  Biso   1.000  C
  C138     1.0000 0.57270  0.23150  0.22470  Biso   1.000  C
  C139     1.0000 0.60480  0.22650  0.24690  Biso   1.000  C
  C140     1.0000 0.60780  0.17600  0.25940  Biso   1.000  C
  O26      1.0000 0.49246  0.92980  0.86681  Biso   1.000  O
  O27      1.0000 0.42732  0.99569  0.86814  Biso   1.000  O
  O28      1.0000 0.01169  0.92610  0.84470  Biso   1.000  O
  C141     1.0000 0.44890  0.94960  0.86210  Biso   1.000  C
  C142     1.0000 0.35861  0.87378  0.81756  Biso   1.000  C
  C143     1.0000 0.40599  0.85030  0.82449  Biso   1.000  C
  H61      1.0000 0.41870  0.81720  0.81960  Biso   1.000  H
  C144     1.0000 0.43462  0.87580  0.83867  Biso   1.000  C
  H62      1.0000 0.46670  0.86000  0.84340  Biso   1.000  H
  C145     1.0000 0.41588  0.92487  0.84593  Biso   1.000  C
  C146     1.0000 0.36851  0.94834  0.83901  Biso   1.000  C
  H63      1.0000 0.35580  0.98150  0.84390  Biso   1.000  H
  C147     1.0000 0.33988  0.92280  0.82483  Biso   1.000  C
  H64      1.0000 0.30780  0.93870  0.82010  Biso   1.000  H
  Cu6      1.0000 0.53589  0.96026  0.88667  Biso   1.000  Cu
  C148     1.0000 0.24100  0.82640  0.78581  Biso   1.000  C
  C149     1.0000 0.18446  0.82923  0.78508  Biso   1.000  C
  C150     1.0000 0.15636  0.80300  0.77091  Biso   1.000  C
  H65      1.0000 0.11810  0.80500  0.77040  Biso   1.000  H
  C151     1.0000 0.18478  0.77405  0.75747  Biso   1.000  C
  C152     1.0000 0.24132  0.77123  0.75820  Biso   1.000  C
  C153     1.0000 0.26943  0.79740  0.77237  Biso   1.000  C
  C154     1.0000 0.27100  0.84960  0.80080  Biso   1.000  C
  H66      1.0000 0.25190  0.86720  0.81040  Biso   1.000  H
  C155     1.0000 0.32690  0.84710  0.80175  Biso   1.000  C
  C156     1.0000 0.35620  0.81710  0.78777  Biso   1.000  C
  H67      1.0000 0.39450  0.81470  0.78810  Biso   1.000  H
  C157     1.0000 0.32680  0.79160  0.77376  Biso   1.000  C
  H68      1.0000 0.34530  0.77010  0.76500  Biso   1.000  H
  C158     1.0000 0.14919  0.86268  0.79905  Biso   1.000  C
  C159     1.0000 0.10575  0.83758  0.80800  Biso   1.000  C
  H69      1.0000 0.09760  0.80090  0.80550  Biso   1.000  H
  C160     1.0000 0.07443  0.86675  0.82063  Biso   1.000  C
  H70      1.0000 0.04510  0.84980  0.82670  Biso   1.000  H
  C161     1.0000 0.08655  0.92103  0.82431  Biso   1.000  C
  C162     1.0000 0.12999  0.94613  0.81535  Biso   1.000  C
  H71      1.0000 0.13820  0.98280  0.81780  Biso   1.000  H
  C163     1.0000 0.16131  0.91696  0.80272  Biso   1.000  C
  H72      1.0000 0.19070  0.93390  0.79670  Biso   1.000  H
  O29      1.0000 0.07071  0.99820  0.84338  Biso   1.000  O
  C164     1.0000 0.05330  0.95190  0.83928  Biso   1.000  C
  O30      1.0000 0.15920  0.74850  0.74313  Biso   1.000  O
  C165     1.0000 0.10120  0.76830  0.73960  Biso   1.000  C
  C166     1.0000 0.07270  0.73150  0.72470  Biso   1.000  C
  C167     1.0000 0.10480  0.72650  0.74690  Biso   1.000  C
  C168     1.0000 0.10780  0.67600  0.75940  Biso   1.000  C
  O31      1.0000 0.50754  0.07020  0.86681  Biso   1.000  O
  O32      1.0000 0.57268  0.00431  0.86814  Biso   1.000  O
  O33      1.0000 0.98831  0.07390  0.84470  Biso   1.000  O
  C169     1.0000 0.55110  0.05040  0.86210  Biso   1.000  C
  C170     1.0000 0.64139  0.12622  0.81756  Biso   1.000  C
  C171     1.0000 0.59401  0.14970  0.82449  Biso   1.000  C
  H73      1.0000 0.58130  0.18280  0.81960  Biso   1.000  H
  C172     1.0000 0.56538  0.12420  0.83867  Biso   1.000  C
  H74      1.0000 0.53330  0.14000  0.84340  Biso   1.000  H
  C173     1.0000 0.58412  0.07513  0.84593  Biso   1.000  C
  C174     1.0000 0.63149  0.05166  0.83901  Biso   1.000  C
  H75      1.0000 0.64420  0.01850  0.84390  Biso   1.000  H
  C175     1.0000 0.66012  0.07720  0.82483  Biso   1.000  C
  H76      1.0000 0.69220  0.06130  0.82010  Biso   1.000  H
  Cu7      1.0000 0.46411  0.03974  0.88667  Biso   1.000  Cu
  C176     1.0000 0.75900  0.17360  0.78581  Biso   1.000  C
  C177     1.0000 0.81554  0.17077  0.78508  Biso   1.000  C
  C178     1.0000 0.84364  0.19700  0.77091  Biso   1.000  C
  H77      1.0000 0.88190  0.19500  0.77040  Biso   1.000  H
  C179     1.0000 0.81522  0.22595  0.75747  Biso   1.000  C
  C180     1.0000 0.75868  0.22877  0.75820  Biso   1.000  C
  C181     1.0000 0.73057  0.20260  0.77237  Biso   1.000  C
  C182     1.0000 0.72900  0.15040  0.80080  Biso   1.000  C
  H78      1.0000 0.74810  0.13280  0.81040  Biso   1.000  H
  C183     1.0000 0.67310  0.15290  0.80175  Biso   1.000  C
  C184     1.0000 0.64380  0.18290  0.78777  Biso   1.000  C
  H79      1.0000 0.60550  0.18530  0.78810  Biso   1.000  H
  C185     1.0000 0.67320  0.20840  0.77376  Biso   1.000  C
  H80      1.0000 0.65470  0.22990  0.76500  Biso   1.000  H
  C186     1.0000 0.85081  0.13732  0.79905  Biso   1.000  C
  C187     1.0000 0.89425  0.16242  0.80800  Biso   1.000  C
  H81      1.0000 0.90240  0.19910  0.80550  Biso   1.000  H
  C188     1.0000 0.92557  0.13325  0.82063  Biso   1.000  C
  H82      1.0000 0.95490  0.15020  0.82670  Biso   1.000  H
  C189     1.0000 0.91345  0.07897  0.82431  Biso   1.000  C
  C190     1.0000 0.87001  0.05387  0.81535  Biso   1.000  C
  H83      1.0000 0.86180  0.01720  0.81780  Biso   1.000  H
  C191     1.0000 0.83869  0.08304  0.80272  Biso   1.000  C
  H84      1.0000 0.80930  0.06610  0.79670  Biso   1.000  H
  O34      1.0000 0.92929  0.00180  0.84338  Biso   1.000  O
  C192     1.0000 0.94670  0.04810  0.83928  Biso   1.000  C
  O35      1.0000 0.84080  0.25150  0.74313  Biso   1.000  O
  C193     1.0000 0.89880  0.23170  0.73960  Biso   1.000  C
  C194     1.0000 0.92730  0.26850  0.72470  Biso   1.000  C
  C195     1.0000 0.89520  0.27350  0.74690  Biso   1.000  C
  C196     1.0000 0.89220  0.32400  0.75940  Biso   1.000  C
  O36      1.0000 0.00754  0.57020  0.36681  Biso   1.000  O
  O37      1.0000 0.07268  0.50431  0.36814  Biso   1.000  O
  O38      1.0000 0.48831  0.57390  0.34470  Biso   1.000  O
  C197     1.0000 0.05110  0.55040  0.36210  Biso   1.000  C
  C198     1.0000 0.14139  0.62622  0.31756  Biso   1.000  C
  C199     1.0000 0.09401  0.64970  0.32449  Biso   1.000  C
  H85      1.0000 0.08130  0.68280  0.31960  Biso   1.000  H
  C200     1.0000 0.06538  0.62420  0.33867  Biso   1.000  C
  H86      1.0000 0.03330  0.64000  0.34340  Biso   1.000  H
  C201     1.0000 0.08412  0.57513  0.34593  Biso   1.000  C
  C202     1.0000 0.13149  0.55166  0.33901  Biso   1.000  C
  H87      1.0000 0.14420  0.51850  0.34390  Biso   1.000  H
  C203     1.0000 0.16012  0.57720  0.32483  Biso   1.000  C
  H88      1.0000 0.19220  0.56130  0.32010  Biso   1.000  H
  Cu8      1.0000 0.96411  0.53974  0.38667  Biso   1.000  Cu
  C204     1.0000 0.25900  0.67360  0.28581  Biso   1.000  C
  C205     1.0000 0.31554  0.67077  0.28508  Biso   1.000  C
  C206     1.0000 0.34364  0.69700  0.27091  Biso   1.000  C
  H89      1.0000 0.38190  0.69500  0.27040  Biso   1.000  H
  C207     1.0000 0.31522  0.72595  0.25747  Biso   1.000  C
  C208     1.0000 0.25868  0.72877  0.25820  Biso   1.000  C
  C209     1.0000 0.23057  0.70260  0.27237  Biso   1.000  C
  C210     1.0000 0.22900  0.65040  0.30080  Biso   1.000  C
  H90      1.0000 0.24810  0.63280  0.31040  Biso   1.000  H
  C211     1.0000 0.17310  0.65290  0.30175  Biso   1.000  C
  C212     1.0000 0.14380  0.68290  0.28777  Biso   1.000  C
  H91      1.0000 0.10550  0.68530  0.28810  Biso   1.000  H
  C213     1.0000 0.17320  0.70840  0.27376  Biso   1.000  C
  H92      1.0000 0.15470  0.72990  0.26500  Biso   1.000  H
  C214     1.0000 0.35081  0.63732  0.29905  Biso   1.000  C
  C215     1.0000 0.39425  0.66242  0.30800  Biso   1.000  C
  H93      1.0000 0.40240  0.69910  0.30550  Biso   1.000  H
  C216     1.0000 0.42557  0.63325  0.32063  Biso   1.000  C
  H94      1.0000 0.45490  0.65020  0.32670  Biso   1.000  H
  C217     1.0000 0.41345  0.57897  0.32431  Biso   1.000  C
  C218     1.0000 0.37001  0.55387  0.31535  Biso   1.000  C
  H95      1.0000 0.36180  0.51720  0.31780  Biso   1.000  H
  C219     1.0000 0.33869  0.58304  0.30272  Biso   1.000  C
  H96      1.0000 0.30930  0.56610  0.29670  Biso   1.000  H
  O39      1.0000 0.42929  0.50180  0.34338  Biso   1.000  O
  C220     1.0000 0.44670  0.54810  0.33928  Biso   1.000  C
  O40      1.0000 0.34080  0.75150  0.24313  Biso   1.000  O
  C221     1.0000 0.39880  0.73170  0.23960  Biso   1.000  C
  C222     1.0000 0.42730  0.76850  0.22470  Biso   1.000  C
  C223     1.0000 0.39520  0.77350  0.24690  Biso   1.000  C
  C224     1.0000 0.39220  0.82400  0.25940  Biso   1.000  C
  O41      1.0000 0.57020  0.00754  0.63319  Biso   1.000  O
  O42      1.0000 0.50431  0.07268  0.63186  Biso   1.000  O
  O43      1.0000 0.57390  0.48831  0.65530  Biso   1.000  O
  C225     1.0000 0.55040  0.05110  0.63790  Biso   1.000  C
  C226     1.0000 0.62622  0.14139  0.68244  Biso   1.000  C
  C227     1.0000 0.64970  0.09401  0.67551  Biso   1.000  C
  H97      1.0000 0.68280  0.08130  0.68040  Biso   1.000  H
  C228     1.0000 0.62420  0.06538  0.66133  Biso   1.000  C
  H98      1.0000 0.64000  0.03330  0.65660  Biso   1.000  H
  C229     1.0000 0.57513  0.08412  0.65407  Biso   1.000  C
  C230     1.0000 0.55166  0.13149  0.66099  Biso   1.000  C
  H99      1.0000 0.51850  0.14420  0.65610  Biso   1.000  H
  C231     1.0000 0.57720  0.16012  0.67517  Biso   1.000  C
  H100     1.0000 0.56130  0.19220  0.67990  Biso   1.000  H
  Cu9      1.0000 0.53974  0.96411  0.61333  Biso   1.000  Cu
  C232     1.0000 0.67360  0.25900  0.71419  Biso   1.000  C
  C233     1.0000 0.67077  0.31554  0.71492  Biso   1.000  C
  C234     1.0000 0.69700  0.34364  0.72909  Biso   1.000  C
  H101     1.0000 0.69500  0.38190  0.72960  Biso   1.000  H
  C235     1.0000 0.72595  0.31522  0.74253  Biso   1.000  C
  C236     1.0000 0.72877  0.25868  0.74180  Biso   1.000  C
  C237     1.0000 0.70260  0.23057  0.72763  Biso   1.000  C
  C238     1.0000 0.65040  0.22900  0.69920  Biso   1.000  C
  H102     1.0000 0.63280  0.24810  0.68960  Biso   1.000  H
  C239     1.0000 0.65290  0.17310  0.69825  Biso   1.000  C
  C240     1.0000 0.68290  0.14380  0.71223  Biso   1.000  C
  H103     1.0000 0.68530  0.10550  0.71190  Biso   1.000  H
  C241     1.0000 0.70840  0.17320  0.72624  Biso   1.000  C
  H104     1.0000 0.72990  0.15470  0.73500  Biso   1.000  H
  C242     1.0000 0.63732  0.35081  0.70095  Biso   1.000  C
  C243     1.0000 0.66242  0.39425  0.69200  Biso   1.000  C
  H105     1.0000 0.69910  0.40240  0.69450  Biso   1.000  H
  C244     1.0000 0.63325  0.42557  0.67937  Biso   1.000  C
  H106     1.0000 0.65020  0.45490  0.67330  Biso   1.000  H
  C245     1.0000 0.57897  0.41345  0.67569  Biso   1.000  C
  C246     1.0000 0.55387  0.37001  0.68465  Biso   1.000  C
  H107     1.0000 0.51720  0.36180  0.68220  Biso   1.000  H
  C247     1.0000 0.58304  0.33869  0.69728  Biso   1.000  C
  H108     1.0000 0.56610  0.30930  0.70330  Biso   1.000  H
  O44      1.0000 0.50180  0.42929  0.65662  Biso   1.000  O
  C248     1.0000 0.54810  0.44670  0.66072  Biso   1.000  C
  O45      1.0000 0.75150  0.34080  0.75687  Biso   1.000  O
  C249     1.0000 0.73170  0.39880  0.76040  Biso   1.000  C
  C250     1.0000 0.76850  0.42730  0.77530  Biso   1.000  C
  C251     1.0000 0.77350  0.39520  0.75310  Biso   1.000  C
  C252     1.0000 0.82400  0.39220  0.74060  Biso   1.000  C
  O46      1.0000 0.07020  0.50754  0.13319  Biso   1.000  O
  O47      1.0000 0.00431  0.57268  0.13186  Biso   1.000  O
  O48      1.0000 0.07390  0.98831  0.15530  Biso   1.000  O
  C253     1.0000 0.05040  0.55110  0.13790  Biso   1.000  C
  C254     1.0000 0.12622  0.64139  0.18244  Biso   1.000  C
  C255     1.0000 0.14970  0.59401  0.17551  Biso   1.000  C
  H109     1.0000 0.18280  0.58130  0.18040  Biso   1.000  H
  C256     1.0000 0.12420  0.56538  0.16133  Biso   1.000  C
  H110     1.0000 0.14000  0.53330  0.15660  Biso   1.000  H
  C257     1.0000 0.07513  0.58412  0.15407  Biso   1.000  C
  C258     1.0000 0.05166  0.63149  0.16099  Biso   1.000  C
  H111     1.0000 0.01850  0.64420  0.15610  Biso   1.000  H
  C259     1.0000 0.07720  0.66012  0.17517  Biso   1.000  C
  H112     1.0000 0.06130  0.69220  0.17990  Biso   1.000  H
  Cu10     1.0000 0.03974  0.46411  0.11333  Biso   1.000  Cu
  C260     1.0000 0.17360  0.75900  0.21419  Biso   1.000  C
  C261     1.0000 0.17077  0.81554  0.21492  Biso   1.000  C
  C262     1.0000 0.19700  0.84364  0.22909  Biso   1.000  C
  H113     1.0000 0.19500  0.88190  0.22960  Biso   1.000  H
  C263     1.0000 0.22595  0.81522  0.24253  Biso   1.000  C
  C264     1.0000 0.22877  0.75868  0.24180  Biso   1.000  C
  C265     1.0000 0.20260  0.73057  0.22763  Biso   1.000  C
  C266     1.0000 0.15040  0.72900  0.19920  Biso   1.000  C
  H114     1.0000 0.13280  0.74810  0.18960  Biso   1.000  H
  C267     1.0000 0.15290  0.67310  0.19825  Biso   1.000  C
  C268     1.0000 0.18290  0.64380  0.21223  Biso   1.000  C
  H115     1.0000 0.18530  0.60550  0.21190  Biso   1.000  H
  C269     1.0000 0.20840  0.67320  0.22624  Biso   1.000  C
  H116     1.0000 0.22990  0.65470  0.23500  Biso   1.000  H
  C270     1.0000 0.13732  0.85081  0.20095  Biso   1.000  C
  C271     1.0000 0.16242  0.89425  0.19200  Biso   1.000  C
  H117     1.0000 0.19910  0.90240  0.19450  Biso   1.000  H
  C272     1.0000 0.13325  0.92557  0.17937  Biso   1.000  C
  H118     1.0000 0.15020  0.95490  0.17330  Biso   1.000  H
  C273     1.0000 0.07897  0.91345  0.17569  Biso   1.000  C
  C274     1.0000 0.05387  0.87001  0.18465  Biso   1.000  C
  H119     1.0000 0.01720  0.86180  0.18220  Biso   1.000  H
  C275     1.0000 0.08304  0.83869  0.19728  Biso   1.000  C
  H120     1.0000 0.06610  0.80930  0.20330  Biso   1.000  H
  O49      1.0000 0.00180  0.92929  0.15662  Biso   1.000  O
  C276     1.0000 0.04810  0.94670  0.16072  Biso   1.000  C
  O50      1.0000 0.25150  0.84080  0.25687  Biso   1.000  O
  C277     1.0000 0.23170  0.89880  0.26040  Biso   1.000  C
  C278     1.0000 0.26850  0.92730  0.27530  Biso   1.000  C
  C279     1.0000 0.27350  0.89520  0.25310  Biso   1.000  C
  C280     1.0000 0.32400  0.89220  0.24060  Biso   1.000  C
  O51      1.0000 0.92980  0.49246  0.13319  Biso   1.000  O
  O52      1.0000 0.99569  0.42732  0.13186  Biso   1.000  O
  O53      1.0000 0.92610  0.01169  0.15530  Biso   1.000  O
  C281     1.0000 0.94960  0.44890  0.13790  Biso   1.000  C
  C282     1.0000 0.87378  0.35861  0.18244  Biso   1.000  C
  C283     1.0000 0.85030  0.40599  0.17551  Biso   1.000  C
  H121     1.0000 0.81720  0.41870  0.18040  Biso   1.000  H
  C284     1.0000 0.87580  0.43462  0.16133  Biso   1.000  C
  H122     1.0000 0.86000  0.46670  0.15660  Biso   1.000  H
  C285     1.0000 0.92487  0.41588  0.15407  Biso   1.000  C
  C286     1.0000 0.94834  0.36851  0.16099  Biso   1.000  C
  H123     1.0000 0.98150  0.35580  0.15610  Biso   1.000  H
  C287     1.0000 0.92280  0.33988  0.17517  Biso   1.000  C
  H124     1.0000 0.93870  0.30780  0.17990  Biso   1.000  H
  Cu11     1.0000 0.96026  0.53589  0.11333  Biso   1.000  Cu
  C288     1.0000 0.82640  0.24100  0.21419  Biso   1.000  C
  C289     1.0000 0.82923  0.18446  0.21492  Biso   1.000  C
  C290     1.0000 0.80300  0.15636  0.22909  Biso   1.000  C
  H125     1.0000 0.80500  0.11810  0.22960  Biso   1.000  H
  C291     1.0000 0.77405  0.18478  0.24253  Biso   1.000  C
  C292     1.0000 0.77123  0.24132  0.24180  Biso   1.000  C
  C293     1.0000 0.79740  0.26943  0.22763  Biso   1.000  C
  C294     1.0000 0.84960  0.27100  0.19920  Biso   1.000  C
  H126     1.0000 0.86720  0.25190  0.18960  Biso   1.000  H
  C295     1.0000 0.84710  0.32690  0.19825  Biso   1.000  C
  C296     1.0000 0.81710  0.35620  0.21223  Biso   1.000  C
  H127     1.0000 0.81470  0.39450  0.21190  Biso   1.000  H
  C297     1.0000 0.79160  0.32680  0.22624  Biso   1.000  C
  H128     1.0000 0.77010  0.34530  0.23500  Biso   1.000  H
  C298     1.0000 0.86268  0.14919  0.20095  Biso   1.000  C
  C299     1.0000 0.83758  0.10575  0.19200  Biso   1.000  C
  H129     1.0000 0.80090  0.09760  0.19450  Biso   1.000  H
  C300     1.0000 0.86675  0.07443  0.17937  Biso   1.000  C
  H130     1.0000 0.84980  0.04510  0.17330  Biso   1.000  H
  C301     1.0000 0.92103  0.08655  0.17569  Biso   1.000  C
  C302     1.0000 0.94613  0.12999  0.18465  Biso   1.000  C
  H131     1.0000 0.98280  0.13820  0.18220  Biso   1.000  H
  C303     1.0000 0.91696  0.16131  0.19728  Biso   1.000  C
  H132     1.0000 0.93390  0.19070  0.20330  Biso   1.000  H
  O54      1.0000 0.99820  0.07071  0.15662  Biso   1.000  O
  C304     1.0000 0.95190  0.05330  0.16072  Biso   1.000  C
  O55      1.0000 0.74850  0.15920  0.25687  Biso   1.000  O
  C305     1.0000 0.76830  0.10120  0.26040  Biso   1.000  C
  C306     1.0000 0.73150  0.07270  0.27530  Biso   1.000  C
  C307     1.0000 0.72650  0.10480  0.25310  Biso   1.000  C
  C308     1.0000 0.67600  0.10780  0.24060  Biso   1.000  C
  O56      1.0000 0.42980  0.99246  0.63319  Biso   1.000  O
  O57      1.0000 0.49569  0.92732  0.63186  Biso   1.000  O
  O58      1.0000 0.42610  0.51169  0.65530  Biso   1.000  O
  C309     1.0000 0.44960  0.94890  0.63790  Biso   1.000  C
  C310     1.0000 0.37378  0.85861  0.68244  Biso   1.000  C
  C311     1.0000 0.35030  0.90599  0.67551  Biso   1.000  C
  H133     1.0000 0.31720  0.91870  0.68040  Biso   1.000  H
  C312     1.0000 0.37580  0.93462  0.66133  Biso   1.000  C
  H134     1.0000 0.36000  0.96670  0.65660  Biso   1.000  H
  C313     1.0000 0.42487  0.91588  0.65407  Biso   1.000  C
  C314     1.0000 0.44834  0.86851  0.66099  Biso   1.000  C
  H135     1.0000 0.48150  0.85580  0.65610  Biso   1.000  H
  C315     1.0000 0.42280  0.83988  0.67517  Biso   1.000  C
  H136     1.0000 0.43870  0.80780  0.67990  Biso   1.000  H
  Cu12     1.0000 0.46026  0.03589  0.61333  Biso   1.000  Cu
  C316     1.0000 0.32640  0.74100  0.71419  Biso   1.000  C
  C317     1.0000 0.32923  0.68446  0.71492  Biso   1.000  C
  C318     1.0000 0.30300  0.65636  0.72909  Biso   1.000  C
  H137     1.0000 0.30500  0.61810  0.72960  Biso   1.000  H
  C319     1.0000 0.27405  0.68478  0.74253  Biso   1.000  C
  C320     1.0000 0.27123  0.74132  0.74180  Biso   1.000  C
  C321     1.0000 0.29740  0.76943  0.72763  Biso   1.000  C
  C322     1.0000 0.34960  0.77100  0.69920  Biso   1.000  C
  H138     1.0000 0.36720  0.75190  0.68960  Biso   1.000  H
  C323     1.0000 0.34710  0.82690  0.69825  Biso   1.000  C
  C324     1.0000 0.31710  0.85620  0.71223  Biso   1.000  C
  H139     1.0000 0.31470  0.89450  0.71190  Biso   1.000  H
  C325     1.0000 0.29160  0.82680  0.72624  Biso   1.000  C
  H140     1.0000 0.27010  0.84530  0.73500  Biso   1.000  H
  C326     1.0000 0.36268  0.64919  0.70095  Biso   1.000  C
  C327     1.0000 0.33758  0.60575  0.69200  Biso   1.000  C
  H141     1.0000 0.30090  0.59760  0.69450  Biso   1.000  H
  C328     1.0000 0.36675  0.57443  0.67937  Biso   1.000  C
  H142     1.0000 0.34980  0.54510  0.67330  Biso   1.000  H
  C329     1.0000 0.42103  0.58655  0.67569  Biso   1.000  C
  C330     1.0000 0.44613  0.62999  0.68465  Biso   1.000  C
  H143     1.0000 0.48280  0.63820  0.68220  Biso   1.000  H
  C331     1.0000 0.41696  0.66131  0.69728  Biso   1.000  C
  H144     1.0000 0.43390  0.69070  0.70330  Biso   1.000  H
  O59      1.0000 0.49820  0.57071  0.65662  Biso   1.000  O
  C332     1.0000 0.45190  0.55330  0.66072  Biso   1.000  C
  O60      1.0000 0.24850  0.65920  0.75687  Biso   1.000  O
  C333     1.0000 0.26830  0.60120  0.76040  Biso   1.000  C
  C334     1.0000 0.23150  0.57270  0.77530  Biso   1.000  C
  C335     1.0000 0.22650  0.60480  0.75310  Biso   1.000  C
  C336     1.0000 0.17600  0.60780  0.74060  Biso   1.000  C
  O61      1.0000 0.50754  0.42980  0.38319  Biso   1.000  O
  O62      1.0000 0.57268  0.49569  0.38186  Biso   1.000  O
  O63      1.0000 0.98831  0.42610  0.40530  Biso   1.000  O
  C337     1.0000 0.55110  0.44960  0.38790  Biso   1.000  C
  C338     1.0000 0.64139  0.37378  0.43244  Biso   1.000  C
  C339     1.0000 0.59401  0.35030  0.42551  Biso   1.000  C
  H145     1.0000 0.58130  0.31720  0.43040  Biso   1.000  H
  C340     1.0000 0.56538  0.37580  0.41133  Biso   1.000  C
  H146     1.0000 0.53330  0.36000  0.40660  Biso   1.000  H
  C341     1.0000 0.58412  0.42487  0.40407  Biso   1.000  C
  C342     1.0000 0.63149  0.44834  0.41099  Biso   1.000  C
  H147     1.0000 0.64420  0.48150  0.40610  Biso   1.000  H
  C343     1.0000 0.66012  0.42280  0.42517  Biso   1.000  C
  H148     1.0000 0.69220  0.43870  0.42990  Biso   1.000  H
  Cu13     1.0000 0.46411  0.46026  0.36333  Biso   1.000  Cu
  C344     1.0000 0.75900  0.32640  0.46419  Biso   1.000  C
  C345     1.0000 0.81554  0.32923  0.46492  Biso   1.000  C
  C346     1.0000 0.84364  0.30300  0.47909  Biso   1.000  C
  H149     1.0000 0.88190  0.30500  0.47960  Biso   1.000  H
  C347     1.0000 0.81522  0.27405  0.49253  Biso   1.000  C
  C348     1.0000 0.75868  0.27123  0.49180  Biso   1.000  C
  C349     1.0000 0.73057  0.29740  0.47763  Biso   1.000  C
  C350     1.0000 0.72900  0.34960  0.44920  Biso   1.000  C
  H150     1.0000 0.74810  0.36720  0.43960  Biso   1.000  H
  C351     1.0000 0.67310  0.34710  0.44825  Biso   1.000  C
  C352     1.0000 0.64380  0.31710  0.46223  Biso   1.000  C
  H151     1.0000 0.60550  0.31470  0.46190  Biso   1.000  H
  C353     1.0000 0.67320  0.29160  0.47624  Biso   1.000  C
  H152     1.0000 0.65470  0.27010  0.48500  Biso   1.000  H
  C354     1.0000 0.85081  0.36268  0.45095  Biso   1.000  C
  C355     1.0000 0.89425  0.33758  0.44200  Biso   1.000  C
  H153     1.0000 0.90240  0.30090  0.44450  Biso   1.000  H
  C356     1.0000 0.92557  0.36675  0.42937  Biso   1.000  C
  H154     1.0000 0.95490  0.34980  0.42330  Biso   1.000  H
  C357     1.0000 0.91345  0.42103  0.42569  Biso   1.000  C
  C358     1.0000 0.87001  0.44613  0.43465  Biso   1.000  C
  H155     1.0000 0.86180  0.48280  0.43220  Biso   1.000  H
  C359     1.0000 0.83869  0.41696  0.44728  Biso   1.000  C
  H156     1.0000 0.80930  0.43390  0.45330  Biso   1.000  H
  O64      1.0000 0.92929  0.49820  0.40662  Biso   1.000  O
  C360     1.0000 0.94670  0.45190  0.41072  Biso   1.000  C
  O65      1.0000 0.84080  0.24850  0.50687  Biso   1.000  O
  C361     1.0000 0.89880  0.26830  0.51040  Biso   1.000  C
  C362     1.0000 0.92730  0.23150  0.52530  Biso   1.000  C
  C363     1.0000 0.89520  0.22650  0.50310  Biso   1.000  C
  C364     1.0000 0.89220  0.17600  0.49060  Biso   1.000  C
  O66      1.0000 0.00754  0.92980  0.88319  Biso   1.000  O
  O67      1.0000 0.07268  0.99569  0.88186  Biso   1.000  O
  O68      1.0000 0.48831  0.92610  0.90530  Biso   1.000  O
  C365     1.0000 0.05110  0.94960  0.88790  Biso   1.000  C
  C366     1.0000 0.14139  0.87378  0.93244  Biso   1.000  C
  C367     1.0000 0.09401  0.85030  0.92551  Biso   1.000  C
  H157     1.0000 0.08130  0.81720  0.93040  Biso   1.000  H
  C368     1.0000 0.06538  0.87580  0.91133  Biso   1.000  C
  H158     1.0000 0.03330  0.86000  0.90660  Biso   1.000  H
  C369     1.0000 0.08412  0.92487  0.90407  Biso   1.000  C
  C370     1.0000 0.13149  0.94834  0.91099  Biso   1.000  C
  H159     1.0000 0.14420  0.98150  0.90610  Biso   1.000  H
  C371     1.0000 0.16012  0.92280  0.92517  Biso   1.000  C
  H160     1.0000 0.19220  0.93870  0.92990  Biso   1.000  H
  Cu14     1.0000 0.96411  0.96026  0.86333  Biso   1.000  Cu
  C372     1.0000 0.25900  0.82640  0.96419  Biso   1.000  C
  C373     1.0000 0.31554  0.82923  0.96492  Biso   1.000  C
  C374     1.0000 0.34364  0.80300  0.97909  Biso   1.000  C
  H161     1.0000 0.38190  0.80500  0.97960  Biso   1.000  H
  C375     1.0000 0.31522  0.77405  0.99253  Biso   1.000  C
  C376     1.0000 0.25868  0.77123  0.99180  Biso   1.000  C
  C377     1.0000 0.23057  0.79740  0.97763  Biso   1.000  C
  C378     1.0000 0.22900  0.84960  0.94920  Biso   1.000  C
  H162     1.0000 0.24810  0.86720  0.93960  Biso   1.000  H
  C379     1.0000 0.17310  0.84710  0.94825  Biso   1.000  C
  C380     1.0000 0.14380  0.81710  0.96223  Biso   1.000  C
  H163     1.0000 0.10550  0.81470  0.96190  Biso   1.000  H
  C381     1.0000 0.17320  0.79160  0.97624  Biso   1.000  C
  H164     1.0000 0.15470  0.77010  0.98500  Biso   1.000  H
  C382     1.0000 0.35081  0.86268  0.95095  Biso   1.000  C
  C383     1.0000 0.39425  0.83758  0.94200  Biso   1.000  C
  H165     1.0000 0.40240  0.80090  0.94450  Biso   1.000  H
  C384     1.0000 0.42557  0.86675  0.92937  Biso   1.000  C
  H166     1.0000 0.45490  0.84980  0.92330  Biso   1.000  H
  C385     1.0000 0.41345  0.92103  0.92569  Biso   1.000  C
  C386     1.0000 0.37001  0.94613  0.93465  Biso   1.000  C
  H167     1.0000 0.36180  0.98280  0.93220  Biso   1.000  H
  C387     1.0000 0.33869  0.91696  0.94728  Biso   1.000  C
  H168     1.0000 0.30930  0.93390  0.95330  Biso   1.000  H
  O69      1.0000 0.42929  0.99820  0.90662  Biso   1.000  O
  C388     1.0000 0.44670  0.95190  0.91072  Biso   1.000  C
  O70      1.0000 0.34080  0.74850  0.00687  Biso   1.000  O
  C389     1.0000 0.39880  0.76830  0.01040  Biso   1.000  C
  C390     1.0000 0.42730  0.73150  0.02530  Biso   1.000  C
  C391     1.0000 0.39520  0.72650  0.00310  Biso   1.000  C
  C392     1.0000 0.39220  0.67600  0.99060  Biso   1.000  C
  O71      1.0000 0.99246  0.07020  0.88319  Biso   1.000  O
  O72      1.0000 0.92732  0.00431  0.88186  Biso   1.000  O
  O73      1.0000 0.51169  0.07390  0.90530  Biso   1.000  O
  C393     1.0000 0.94890  0.05040  0.88790  Biso   1.000  C
  C394     1.0000 0.85861  0.12622  0.93244  Biso   1.000  C
  C395     1.0000 0.90599  0.14970  0.92551  Biso   1.000  C
  H169     1.0000 0.91870  0.18280  0.93040  Biso   1.000  H
  C396     1.0000 0.93462  0.12420  0.91133  Biso   1.000  C
  H170     1.0000 0.96670  0.14000  0.90660  Biso   1.000  H
  C397     1.0000 0.91588  0.07513  0.90407  Biso   1.000  C
  C398     1.0000 0.86851  0.05166  0.91099  Biso   1.000  C
  H171     1.0000 0.85580  0.01850  0.90610  Biso   1.000  H
  C399     1.0000 0.83988  0.07720  0.92517  Biso   1.000  C
  H172     1.0000 0.80780  0.06130  0.92990  Biso   1.000  H
  Cu15     1.0000 0.03589  0.03974  0.86333  Biso   1.000  Cu
  C400     1.0000 0.74100  0.17360  0.96419  Biso   1.000  C
  C401     1.0000 0.68446  0.17077  0.96492  Biso   1.000  C
  C402     1.0000 0.65636  0.19700  0.97909  Biso   1.000  C
  H173     1.0000 0.61810  0.19500  0.97960  Biso   1.000  H
  C403     1.0000 0.68478  0.22595  0.99253  Biso   1.000  C
  C404     1.0000 0.74132  0.22877  0.99180  Biso   1.000  C
  C405     1.0000 0.76943  0.20260  0.97763  Biso   1.000  C
  C406     1.0000 0.77100  0.15040  0.94920  Biso   1.000  C
  H174     1.0000 0.75190  0.13280  0.93960  Biso   1.000  H
  C407     1.0000 0.82690  0.15290  0.94825  Biso   1.000  C
  C408     1.0000 0.85620  0.18290  0.96223  Biso   1.000  C
  H175     1.0000 0.89450  0.18530  0.96190  Biso   1.000  H
  C409     1.0000 0.82680  0.20840  0.97624  Biso   1.000  C
  H176     1.0000 0.84530  0.22990  0.98500  Biso   1.000  H
  C410     1.0000 0.64919  0.13732  0.95095  Biso   1.000  C
  C411     1.0000 0.60575  0.16242  0.94200  Biso   1.000  C
  H177     1.0000 0.59760  0.19910  0.94450  Biso   1.000  H
  C412     1.0000 0.57443  0.13325  0.92937  Biso   1.000  C
  H178     1.0000 0.54510  0.15020  0.92330  Biso   1.000  H
  C413     1.0000 0.58655  0.07897  0.92569  Biso   1.000  C
  C414     1.0000 0.62999  0.05387  0.93465  Biso   1.000  C
  H179     1.0000 0.63820  0.01720  0.93220  Biso   1.000  H
  C415     1.0000 0.66131  0.08304  0.94728  Biso   1.000  C
  H180     1.0000 0.69070  0.06610  0.95330  Biso   1.000  H
  O74      1.0000 0.57071  0.00180  0.90662  Biso   1.000  O
  C416     1.0000 0.55330  0.04810  0.91072  Biso   1.000  C
  O75      1.0000 0.65920  0.25150  0.00687  Biso   1.000  O
  C417     1.0000 0.60120  0.23170  0.01040  Biso   1.000  C
  C418     1.0000 0.57270  0.26850  0.02530  Biso   1.000  C
  C419     1.0000 0.60480  0.27350  0.00310  Biso   1.000  C
  C420     1.0000 0.60780  0.32400  0.99060  Biso   1.000  C
  O76      1.0000 0.49246  0.57020  0.38319  Biso   1.000  O
  O77      1.0000 0.42732  0.50431  0.38186  Biso   1.000  O
  O78      1.0000 0.01169  0.57390  0.40530  Biso   1.000  O
  C421     1.0000 0.44890  0.55040  0.38790  Biso   1.000  C
  C422     1.0000 0.35861  0.62622  0.43244  Biso   1.000  C
  C423     1.0000 0.40599  0.64970  0.42551  Biso   1.000  C
  H181     1.0000 0.41870  0.68280  0.43040  Biso   1.000  H
  C424     1.0000 0.43462  0.62420  0.41133  Biso   1.000  C
  H182     1.0000 0.46670  0.64000  0.40660  Biso   1.000  H
  C425     1.0000 0.41588  0.57513  0.40407  Biso   1.000  C
  C426     1.0000 0.36851  0.55166  0.41099  Biso   1.000  C
  H183     1.0000 0.35580  0.51850  0.40610  Biso   1.000  H
  C427     1.0000 0.33988  0.57720  0.42517  Biso   1.000  C
  H184     1.0000 0.30780  0.56130  0.42990  Biso   1.000  H
  Cu16     1.0000 0.53589  0.53974  0.36333  Biso   1.000  Cu
  C428     1.0000 0.24100  0.67360  0.46419  Biso   1.000  C
  C429     1.0000 0.18446  0.67077  0.46492  Biso   1.000  C
  C430     1.0000 0.15636  0.69700  0.47909  Biso   1.000  C
  H185     1.0000 0.11810  0.69500  0.47960  Biso   1.000  H
  C431     1.0000 0.18478  0.72595  0.49253  Biso   1.000  C
  C432     1.0000 0.24132  0.72877  0.49180  Biso   1.000  C
  C433     1.0000 0.26943  0.70260  0.47763  Biso   1.000  C
  C434     1.0000 0.27100  0.65040  0.44920  Biso   1.000  C
  H186     1.0000 0.25190  0.63280  0.43960  Biso   1.000  H
  C435     1.0000 0.32690  0.65290  0.44825  Biso   1.000  C
  C436     1.0000 0.35620  0.68290  0.46223  Biso   1.000  C
  H187     1.0000 0.39450  0.68530  0.46190  Biso   1.000  H
  C437     1.0000 0.32680  0.70840  0.47624  Biso   1.000  C
  H188     1.0000 0.34530  0.72990  0.48500  Biso   1.000  H
  C438     1.0000 0.14919  0.63732  0.45095  Biso   1.000  C
  C439     1.0000 0.10575  0.66242  0.44200  Biso   1.000  C
  H189     1.0000 0.09760  0.69910  0.44450  Biso   1.000  H
  C440     1.0000 0.07443  0.63325  0.42937  Biso   1.000  C
  H190     1.0000 0.04510  0.65020  0.42330  Biso   1.000  H
  C441     1.0000 0.08655  0.57897  0.42569  Biso   1.000  C
  C442     1.0000 0.12999  0.55387  0.43465  Biso   1.000  C
  H191     1.0000 0.13820  0.51720  0.43220  Biso   1.000  H
  C443     1.0000 0.16131  0.58304  0.44728  Biso   1.000  C
  H192     1.0000 0.19070  0.56610  0.45330  Biso   1.000  H
  O79      1.0000 0.07071  0.50180  0.40662  Biso   1.000  O
  C444     1.0000 0.05330  0.54810  0.41072  Biso   1.000  C
  O80      1.0000 0.15920  0.75150  0.50687  Biso   1.000  O
  C445     1.0000 0.10120  0.73170  0.51040  Biso   1.000  C
  C446     1.0000 0.07270  0.76850  0.52530  Biso   1.000  C
  C447     1.0000 0.10480  0.77350  0.50310  Biso   1.000  C
  C448     1.0000 0.10780  0.82400  0.49060  Biso   1.000  C
