data_XOQXOR_clean
_audit_creation_date              2015-05-19
_audit_creation_method            'Materials Studio'
_symmetry_space_group_name_H-M    'P1'
_symmetry_Int_Tables_number       1
_symmetry_cell_setting            triclinic
loop_
_symmetry_equiv_pos_as_xyz
  x,y,z
_cell_length_a                    27.0818
_cell_length_b                    12.0891
_cell_length_c                    36.3156
_cell_angle_alpha                 90.0000
_cell_angle_beta                  130.0297
_cell_angle_gamma                 90.0000
loop_
_atom_site_label
_atom_site_type_symbol
_atom_site_fract_x
_atom_site_fract_y
_atom_site_fract_z
_atom_site_U_iso_or_equiv
_atom_site_adp_type
_atom_site_occupancy
Zn1    Zn    0.29686   0.46232   0.25795   0.01267  Uiso   1.00
Zn2    Zn    0.20632   0.68683   0.23521   0.01267  Uiso   1.00
Si3    Si    0.08127   0.52562   0.95115   0.01267  Uiso   1.00
H4     H     0.20510   0.46690   0.04420   0.01267  Uiso   1.00
H5     H     0.25200   0.48660   0.12410   0.01267  Uiso   1.00
H6     H     0.10470   0.67570   0.08610   0.01267  Uiso   1.00
H7     H     0.05650   0.65480   0.00630   0.01267  Uiso   1.00
H8     H     0.08830   0.34390   0.00820   0.01267  Uiso   1.00
H9     H     0.04100   0.17780   0.99690   0.01267  Uiso   1.00
H10    H     0.94390   0.20150   0.85680   0.01267  Uiso   1.00
H11    H     0.98620   0.37660   0.86690   0.01267  Uiso   1.00
H12    H     0.90420   0.06780   0.88940   0.01267  Uiso   1.00
H13    H     0.96790   0.00410   0.91060   0.01267  Uiso   1.00
H14    H     0.95420   0.04160   0.94460   0.01267  Uiso   1.00
H15    H     0.94470   0.53570   0.90570   0.01267  Uiso   1.00
H16    H     0.85790   0.65130   0.85250   0.01267  Uiso   1.00
H17    H     0.97450   0.85950   0.85400   0.01267  Uiso   1.00
H18    H     0.06070   0.74190   0.90630   0.01267  Uiso   1.00
H19    H     0.07920   0.48440   0.87120   0.01267  Uiso   1.00
H20    H     0.64140   0.02210   0.85080   0.01267  Uiso   1.00
H21    H     0.77220   0.16340   0.97770   0.01267  Uiso   1.00
H22    H     0.20780   0.62720   0.99700   0.01267  Uiso   1.00
H23    H     0.73070   0.15750   0.86760   0.01267  Uiso   1.00
H24    H     0.78620   0.18880   0.92160   0.01267  Uiso   1.00
H25    H     0.78160   0.06830   0.90370   0.01267  Uiso   1.00
H26    H     0.13680   0.15080   0.29210   0.01267  Uiso   1.00
H27    H     0.20440   0.26650   0.29210   0.01267  Uiso   1.00
H28    H     0.05980   0.48230   0.21040   0.01267  Uiso   1.00
H29    H     0.99210   0.36480   0.20970   0.01267  Uiso   1.00
H30    H     0.38480   0.68220   0.14960   0.01267  Uiso   1.00
H31    H     0.83430   0.09020   0.07810   0.01267  Uiso   1.00
H32    H     0.96570   0.85590   0.14590   0.01267  Uiso   1.00
H33    H     0.01680   0.94600   0.21800   0.01267  Uiso   1.00
H34    H     0.84940   0.96370   0.03310   0.01267  Uiso   1.00
H35    H     0.89460   0.86070   0.05940   0.01267  Uiso   1.00
H36    H     0.82660   0.86210   0.04560   0.01267  Uiso   1.00
C37    C     0.12535   0.55930   0.01586   0.01267  Uiso   1.00
C38    C     0.18441   0.50860   0.05227   0.01267  Uiso   1.00
C39    C     0.21255   0.52000   0.10033   0.01267  Uiso   1.00
C40    C     0.18215   0.58070   0.11289   0.01267  Uiso   1.00
C41    C     0.12446   0.63260   0.07762   0.01267  Uiso   1.00
C42    C     0.09601   0.62100   0.02975   0.01267  Uiso   1.00
C43    C     0.21024   0.58680   0.16425   0.01267  Uiso   1.00
C44    C     0.04651   0.38280   0.94021   0.01267  Uiso   1.00
C45    C     0.05850   0.31780   0.97690   0.01267  Uiso   1.00
C46    C     0.02900   0.21630   0.97000   0.01267  Uiso   1.00
C47    C     0.98330   0.17140   0.92550   0.01267  Uiso   1.00
C48    C     0.97140   0.23180   0.88760   0.01267  Uiso   1.00
C49    C     0.99920   0.33700   0.89380   0.01267  Uiso   1.00
C50    C     0.94920   0.06090   0.91670   0.01267  Uiso   1.00
C51    C     0.01199   0.62460   0.91116   0.01267  Uiso   1.00
C52    C     0.95092   0.60000   0.89508   0.01267  Uiso   1.00
C53    C     0.89873   0.66960   0.86337   0.01267  Uiso   1.00
C54    C     0.90805   0.76610   0.84818   0.01267  Uiso   1.00
C55    C     0.96846   0.79410   0.86413   0.01267  Uiso   1.00
C56    C     0.02001   0.72320   0.89550   0.01267  Uiso   1.00
C57    C     0.85118   0.83820   0.81169   0.01267  Uiso   1.00
C58    C     0.13740   0.54470   0.93750   0.01267  Uiso   1.00
C59    C     0.11870   0.51930   0.89360   0.01267  Uiso   1.00
C60    C     0.65600   0.04310   0.88100   0.01267  Uiso   1.00
C61    C     0.71450   0.09760   0.91220   0.01267  Uiso   1.00
C62    C     0.73310   0.12690   0.95560   0.01267  Uiso   1.00
C63    C     0.19450   0.60290   0.96750   0.01267  Uiso   1.00
C64    C     0.75720   0.13120   0.90010   0.01267  Uiso   1.00
C65    C     0.05713   0.24590   0.25174   0.01267  Uiso   1.00
C66    C     0.12106   0.21790   0.27579   0.01267  Uiso   1.00
C67    C     0.16193   0.28750   0.27611   0.01267  Uiso   1.00
C68    C     0.13956   0.38890   0.25260   0.01267  Uiso   1.00
C69    C     0.07573   0.41610   0.22731   0.01267  Uiso   1.00
C70    C     0.03503   0.34520   0.22694   0.01267  Uiso   1.00
C71    C     0.18368   0.46500   0.25332   0.01267  Uiso   1.00
C72    C     0.95439   0.06950   0.19347   0.01267  Uiso   1.00
C73    C     0.90071   0.11380   0.14975   0.01267  Uiso   1.00
C74    C     0.87030   0.05880   0.10650   0.01267  Uiso   1.00
C75    C     0.89280   0.95890   0.10510   0.01267  Uiso   1.00
C76    C     0.94770   0.92070   0.14650   0.01267  Uiso   1.00
C77    C     0.97870   0.97510   0.19030   0.01267  Uiso   1.00
C78    C     0.86300   0.90640   0.05620   0.01267  Uiso   1.00
O79    O     0.25037   0.51200   0.19213   0.01267  Uiso   1.00
O80    O     0.19233   0.66440   0.17606   0.01267  Uiso   1.00
O81    O     0.86218   0.92880   0.80151   0.01267  Uiso   1.00
O82    O     0.79637   0.80230   0.79403   0.01267  Uiso   1.00
O83    O     0.23768   0.42750   0.26979   0.01267  Uiso   1.00
O84    O     0.16308   0.56080   0.23720   0.01267  Uiso   1.00
O85    O     0.33245   0.31986   0.26536   0.01267  Uiso   1.00
H86    H     0.38067   0.31986   0.28849   0.01267  Uiso   1.00
Zn87   Zn    0.79686   0.96232   0.25795   0.01267  Uiso   1.00
Zn88   Zn    0.70632   0.18683   0.23521   0.01267  Uiso   1.00
Si89   Si    0.58127   0.02562   0.95115   0.01267  Uiso   1.00
H90    H     0.70510   0.96690   0.04420   0.01267  Uiso   1.00
H91    H     0.75200   0.98660   0.12410   0.01267  Uiso   1.00
H92    H     0.60470   0.17570   0.08610   0.01267  Uiso   1.00
H93    H     0.55650   0.15480   0.00630   0.01267  Uiso   1.00
H94    H     0.58830   0.84390   0.00820   0.01267  Uiso   1.00
H95    H     0.54100   0.67780   0.99690   0.01267  Uiso   1.00
H96    H     0.44390   0.70150   0.85680   0.01267  Uiso   1.00
H97    H     0.48620   0.87660   0.86690   0.01267  Uiso   1.00
H98    H     0.40420   0.56780   0.88940   0.01267  Uiso   1.00
H99    H     0.46790   0.50410   0.91060   0.01267  Uiso   1.00
H100   H     0.45420   0.54160   0.94460   0.01267  Uiso   1.00
H101   H     0.44470   0.03570   0.90570   0.01267  Uiso   1.00
H102   H     0.35790   0.15130   0.85250   0.01267  Uiso   1.00
H103   H     0.47450   0.35950   0.85400   0.01267  Uiso   1.00
H104   H     0.56070   0.24190   0.90630   0.01267  Uiso   1.00
H105   H     0.57920   0.98440   0.87120   0.01267  Uiso   1.00
H106   H     0.14140   0.52210   0.85080   0.01267  Uiso   1.00
H107   H     0.27220   0.66340   0.97770   0.01267  Uiso   1.00
H108   H     0.70780   0.12720   0.99700   0.01267  Uiso   1.00
H109   H     0.23070   0.65750   0.86760   0.01267  Uiso   1.00
H110   H     0.28620   0.68880   0.92160   0.01267  Uiso   1.00
H111   H     0.28160   0.56830   0.90370   0.01267  Uiso   1.00
H112   H     0.63680   0.65080   0.29210   0.01267  Uiso   1.00
H113   H     0.70440   0.76650   0.29210   0.01267  Uiso   1.00
H114   H     0.55980   0.98230   0.21040   0.01267  Uiso   1.00
H115   H     0.49210   0.86480   0.20970   0.01267  Uiso   1.00
H116   H     0.88480   0.18220   0.14960   0.01267  Uiso   1.00
H117   H     0.33430   0.59020   0.07810   0.01267  Uiso   1.00
H118   H     0.46570   0.35590   0.14590   0.01267  Uiso   1.00
H119   H     0.51680   0.44600   0.21800   0.01267  Uiso   1.00
H120   H     0.34940   0.46370   0.03310   0.01267  Uiso   1.00
H121   H     0.39460   0.36070   0.05940   0.01267  Uiso   1.00
H122   H     0.32660   0.36210   0.04560   0.01267  Uiso   1.00
C123   C     0.62535   0.05930   0.01586   0.01267  Uiso   1.00
C124   C     0.68441   0.00860   0.05227   0.01267  Uiso   1.00
C125   C     0.71255   0.02000   0.10033   0.01267  Uiso   1.00
C126   C     0.68215   0.08070   0.11289   0.01267  Uiso   1.00
C127   C     0.62446   0.13260   0.07762   0.01267  Uiso   1.00
C128   C     0.59601   0.12100   0.02975   0.01267  Uiso   1.00
C129   C     0.71024   0.08680   0.16425   0.01267  Uiso   1.00
C130   C     0.54651   0.88280   0.94021   0.01267  Uiso   1.00
C131   C     0.55850   0.81780   0.97690   0.01267  Uiso   1.00
C132   C     0.52900   0.71630   0.97000   0.01267  Uiso   1.00
C133   C     0.48330   0.67140   0.92550   0.01267  Uiso   1.00
C134   C     0.47140   0.73180   0.88760   0.01267  Uiso   1.00
C135   C     0.49920   0.83700   0.89380   0.01267  Uiso   1.00
C136   C     0.44920   0.56090   0.91670   0.01267  Uiso   1.00
C137   C     0.51199   0.12460   0.91116   0.01267  Uiso   1.00
C138   C     0.45092   0.10000   0.89508   0.01267  Uiso   1.00
C139   C     0.39873   0.16960   0.86337   0.01267  Uiso   1.00
C140   C     0.40805   0.26610   0.84818   0.01267  Uiso   1.00
C141   C     0.46846   0.29410   0.86413   0.01267  Uiso   1.00
C142   C     0.52001   0.22320   0.89550   0.01267  Uiso   1.00
C143   C     0.35118   0.33820   0.81169   0.01267  Uiso   1.00
C144   C     0.63740   0.04470   0.93750   0.01267  Uiso   1.00
C145   C     0.61870   0.01930   0.89360   0.01267  Uiso   1.00
C146   C     0.15600   0.54310   0.88100   0.01267  Uiso   1.00
C147   C     0.21450   0.59760   0.91220   0.01267  Uiso   1.00
C148   C     0.23310   0.62690   0.95560   0.01267  Uiso   1.00
C149   C     0.69450   0.10290   0.96750   0.01267  Uiso   1.00
C150   C     0.25720   0.63120   0.90010   0.01267  Uiso   1.00
C151   C     0.55713   0.74590   0.25174   0.01267  Uiso   1.00
C152   C     0.62106   0.71790   0.27579   0.01267  Uiso   1.00
C153   C     0.66193   0.78750   0.27611   0.01267  Uiso   1.00
C154   C     0.63956   0.88890   0.25260   0.01267  Uiso   1.00
C155   C     0.57573   0.91610   0.22731   0.01267  Uiso   1.00
C156   C     0.53503   0.84520   0.22694   0.01267  Uiso   1.00
C157   C     0.68368   0.96500   0.25332   0.01267  Uiso   1.00
C158   C     0.45439   0.56950   0.19347   0.01267  Uiso   1.00
C159   C     0.40071   0.61380   0.14975   0.01267  Uiso   1.00
C160   C     0.37030   0.55880   0.10650   0.01267  Uiso   1.00
C161   C     0.39280   0.45890   0.10510   0.01267  Uiso   1.00
C162   C     0.44770   0.42070   0.14650   0.01267  Uiso   1.00
C163   C     0.47870   0.47510   0.19030   0.01267  Uiso   1.00
C164   C     0.36300   0.40640   0.05620   0.01267  Uiso   1.00
O165   O     0.75037   0.01200   0.19213   0.01267  Uiso   1.00
O166   O     0.69233   0.16440   0.17606   0.01267  Uiso   1.00
O167   O     0.36218   0.42880   0.80151   0.01267  Uiso   1.00
O168   O     0.29637   0.30230   0.79403   0.01267  Uiso   1.00
O169   O     0.73768   0.92750   0.26979   0.01267  Uiso   1.00
O170   O     0.66308   0.06080   0.23720   0.01267  Uiso   1.00
O171   O     0.83245   0.81986   0.26536   0.01267  Uiso   1.00
H172   H     0.88067   0.81986   0.28849   0.01267  Uiso   1.00
Zn173  Zn    0.70314   0.46232   0.24205   0.01267  Uiso   1.00
Zn174  Zn    0.79368   0.68683   0.26479   0.01267  Uiso   1.00
Si175  Si    0.91873   0.52562   0.54885   0.01267  Uiso   1.00
H176   H     0.79490   0.46690   0.45580   0.01267  Uiso   1.00
H177   H     0.74800   0.48660   0.37590   0.01267  Uiso   1.00
H178   H     0.89530   0.67570   0.41390   0.01267  Uiso   1.00
H179   H     0.94350   0.65480   0.49370   0.01267  Uiso   1.00
H180   H     0.91170   0.34390   0.49180   0.01267  Uiso   1.00
H181   H     0.95900   0.17780   0.50310   0.01267  Uiso   1.00
H182   H     0.05610   0.20150   0.64320   0.01267  Uiso   1.00
H183   H     0.01380   0.37660   0.63310   0.01267  Uiso   1.00
H184   H     0.09580   0.06780   0.61060   0.01267  Uiso   1.00
H185   H     0.03210   0.00410   0.58940   0.01267  Uiso   1.00
H186   H     0.04580   0.04160   0.55540   0.01267  Uiso   1.00
H187   H     0.05530   0.53570   0.59430   0.01267  Uiso   1.00
H188   H     0.14210   0.65130   0.64750   0.01267  Uiso   1.00
H189   H     0.02550   0.85950   0.64600   0.01267  Uiso   1.00
H190   H     0.93930   0.74190   0.59370   0.01267  Uiso   1.00
H191   H     0.92080   0.48440   0.62880   0.01267  Uiso   1.00
H192   H     0.35860   0.02210   0.64920   0.01267  Uiso   1.00
H193   H     0.22780   0.16340   0.52230   0.01267  Uiso   1.00
H194   H     0.79220   0.62720   0.50300   0.01267  Uiso   1.00
H195   H     0.26930   0.15750   0.63240   0.01267  Uiso   1.00
H196   H     0.21380   0.18880   0.57840   0.01267  Uiso   1.00
H197   H     0.21840   0.06830   0.59630   0.01267  Uiso   1.00
H198   H     0.86320   0.15080   0.20790   0.01267  Uiso   1.00
H199   H     0.79560   0.26650   0.20790   0.01267  Uiso   1.00
H200   H     0.94020   0.48230   0.28960   0.01267  Uiso   1.00
H201   H     0.00790   0.36480   0.29030   0.01267  Uiso   1.00
H202   H     0.61520   0.68220   0.35040   0.01267  Uiso   1.00
H203   H     0.16570   0.09020   0.42190   0.01267  Uiso   1.00
H204   H     0.03430   0.85590   0.35410   0.01267  Uiso   1.00
H205   H     0.98320   0.94600   0.28200   0.01267  Uiso   1.00
H206   H     0.15060   0.96370   0.46690   0.01267  Uiso   1.00
H207   H     0.10540   0.86070   0.44060   0.01267  Uiso   1.00
H208   H     0.17340   0.86210   0.45440   0.01267  Uiso   1.00
C209   C     0.87465   0.55930   0.48414   0.01267  Uiso   1.00
C210   C     0.81559   0.50860   0.44773   0.01267  Uiso   1.00
C211   C     0.78745   0.52000   0.39967   0.01267  Uiso   1.00
C212   C     0.81785   0.58070   0.38711   0.01267  Uiso   1.00
C213   C     0.87554   0.63260   0.42238   0.01267  Uiso   1.00
C214   C     0.90399   0.62100   0.47025   0.01267  Uiso   1.00
C215   C     0.78976   0.58680   0.33575   0.01267  Uiso   1.00
C216   C     0.95349   0.38280   0.55979   0.01267  Uiso   1.00
C217   C     0.94150   0.31780   0.52310   0.01267  Uiso   1.00
C218   C     0.97100   0.21630   0.53000   0.01267  Uiso   1.00
C219   C     0.01670   0.17140   0.57450   0.01267  Uiso   1.00
C220   C     0.02860   0.23180   0.61240   0.01267  Uiso   1.00
C221   C     0.00080   0.33700   0.60620   0.01267  Uiso   1.00
C222   C     0.05080   0.06090   0.58330   0.01267  Uiso   1.00
C223   C     0.98801   0.62460   0.58884   0.01267  Uiso   1.00
C224   C     0.04908   0.60000   0.60492   0.01267  Uiso   1.00
C225   C     0.10127   0.66960   0.63663   0.01267  Uiso   1.00
C226   C     0.09195   0.76610   0.65182   0.01267  Uiso   1.00
C227   C     0.03154   0.79410   0.63587   0.01267  Uiso   1.00
C228   C     0.97999   0.72320   0.60450   0.01267  Uiso   1.00
C229   C     0.14882   0.83820   0.68831   0.01267  Uiso   1.00
C230   C     0.86260   0.54470   0.56250   0.01267  Uiso   1.00
C231   C     0.88130   0.51930   0.60640   0.01267  Uiso   1.00
C232   C     0.34400   0.04310   0.61900   0.01267  Uiso   1.00
C233   C     0.28550   0.09760   0.58780   0.01267  Uiso   1.00
C234   C     0.26690   0.12690   0.54440   0.01267  Uiso   1.00
C235   C     0.80550   0.60290   0.53250   0.01267  Uiso   1.00
C236   C     0.24280   0.13120   0.59990   0.01267  Uiso   1.00
C237   C     0.94287   0.24590   0.24826   0.01267  Uiso   1.00
C238   C     0.87894   0.21790   0.22421   0.01267  Uiso   1.00
C239   C     0.83807   0.28750   0.22389   0.01267  Uiso   1.00
C240   C     0.86044   0.38890   0.24740   0.01267  Uiso   1.00
C241   C     0.92427   0.41610   0.27269   0.01267  Uiso   1.00
C242   C     0.96497   0.34520   0.27306   0.01267  Uiso   1.00
C243   C     0.81632   0.46500   0.24668   0.01267  Uiso   1.00
C244   C     0.04561   0.06950   0.30653   0.01267  Uiso   1.00
C245   C     0.09929   0.11380   0.35025   0.01267  Uiso   1.00
C246   C     0.12970   0.05880   0.39350   0.01267  Uiso   1.00
C247   C     0.10720   0.95890   0.39490   0.01267  Uiso   1.00
C248   C     0.05230   0.92070   0.35350   0.01267  Uiso   1.00
C249   C     0.02130   0.97510   0.30970   0.01267  Uiso   1.00
C250   C     0.13700   0.90640   0.44380   0.01267  Uiso   1.00
O251   O     0.74963   0.51200   0.30787   0.01267  Uiso   1.00
O252   O     0.80767   0.66440   0.32394   0.01267  Uiso   1.00
O253   O     0.13782   0.92880   0.69849   0.01267  Uiso   1.00
O254   O     0.20363   0.80230   0.70597   0.01267  Uiso   1.00
O255   O     0.76232   0.42750   0.23021   0.01267  Uiso   1.00
O256   O     0.83692   0.56080   0.26280   0.01267  Uiso   1.00
O257   O     0.66755   0.31986   0.23464   0.01267  Uiso   1.00
H258   H     0.61933   0.31986   0.21151   0.01267  Uiso   1.00
Zn259  Zn    0.20314   0.96232   0.24205   0.01267  Uiso   1.00
Zn260  Zn    0.29368   0.18683   0.26479   0.01267  Uiso   1.00
Si261  Si    0.41873   0.02562   0.54885   0.01267  Uiso   1.00
H262   H     0.29490   0.96690   0.45580   0.01267  Uiso   1.00
H263   H     0.24800   0.98660   0.37590   0.01267  Uiso   1.00
H264   H     0.39530   0.17570   0.41390   0.01267  Uiso   1.00
H265   H     0.44350   0.15480   0.49370   0.01267  Uiso   1.00
H266   H     0.41170   0.84390   0.49180   0.01267  Uiso   1.00
H267   H     0.45900   0.67780   0.50310   0.01267  Uiso   1.00
H268   H     0.55610   0.70150   0.64320   0.01267  Uiso   1.00
H269   H     0.51380   0.87660   0.63310   0.01267  Uiso   1.00
H270   H     0.59580   0.56780   0.61060   0.01267  Uiso   1.00
H271   H     0.53210   0.50410   0.58940   0.01267  Uiso   1.00
H272   H     0.54580   0.54160   0.55540   0.01267  Uiso   1.00
H273   H     0.55530   0.03570   0.59430   0.01267  Uiso   1.00
H274   H     0.64210   0.15130   0.64750   0.01267  Uiso   1.00
H275   H     0.52550   0.35950   0.64600   0.01267  Uiso   1.00
H276   H     0.43930   0.24190   0.59370   0.01267  Uiso   1.00
H277   H     0.42080   0.98440   0.62880   0.01267  Uiso   1.00
H278   H     0.85860   0.52210   0.64920   0.01267  Uiso   1.00
H279   H     0.72780   0.66340   0.52230   0.01267  Uiso   1.00
H280   H     0.29220   0.12720   0.50300   0.01267  Uiso   1.00
H281   H     0.76930   0.65750   0.63240   0.01267  Uiso   1.00
H282   H     0.71380   0.68880   0.57840   0.01267  Uiso   1.00
H283   H     0.71840   0.56830   0.59630   0.01267  Uiso   1.00
H284   H     0.36320   0.65080   0.20790   0.01267  Uiso   1.00
H285   H     0.29560   0.76650   0.20790   0.01267  Uiso   1.00
H286   H     0.44020   0.98230   0.28960   0.01267  Uiso   1.00
H287   H     0.50790   0.86480   0.29030   0.01267  Uiso   1.00
H288   H     0.11520   0.18220   0.35040   0.01267  Uiso   1.00
H289   H     0.66570   0.59020   0.42190   0.01267  Uiso   1.00
H290   H     0.53430   0.35590   0.35410   0.01267  Uiso   1.00
H291   H     0.48320   0.44600   0.28200   0.01267  Uiso   1.00
H292   H     0.65060   0.46370   0.46690   0.01267  Uiso   1.00
H293   H     0.60540   0.36070   0.44060   0.01267  Uiso   1.00
H294   H     0.67340   0.36210   0.45440   0.01267  Uiso   1.00
C295   C     0.37465   0.05930   0.48414   0.01267  Uiso   1.00
C296   C     0.31559   0.00860   0.44773   0.01267  Uiso   1.00
C297   C     0.28745   0.02000   0.39967   0.01267  Uiso   1.00
C298   C     0.31785   0.08070   0.38711   0.01267  Uiso   1.00
C299   C     0.37554   0.13260   0.42238   0.01267  Uiso   1.00
C300   C     0.40399   0.12100   0.47025   0.01267  Uiso   1.00
C301   C     0.28976   0.08680   0.33575   0.01267  Uiso   1.00
C302   C     0.45349   0.88280   0.55979   0.01267  Uiso   1.00
C303   C     0.44150   0.81780   0.52310   0.01267  Uiso   1.00
C304   C     0.47100   0.71630   0.53000   0.01267  Uiso   1.00
C305   C     0.51670   0.67140   0.57450   0.01267  Uiso   1.00
C306   C     0.52860   0.73180   0.61240   0.01267  Uiso   1.00
C307   C     0.50080   0.83700   0.60620   0.01267  Uiso   1.00
C308   C     0.55080   0.56090   0.58330   0.01267  Uiso   1.00
C309   C     0.48801   0.12460   0.58884   0.01267  Uiso   1.00
C310   C     0.54908   0.10000   0.60492   0.01267  Uiso   1.00
C311   C     0.60127   0.16960   0.63663   0.01267  Uiso   1.00
C312   C     0.59195   0.26610   0.65182   0.01267  Uiso   1.00
C313   C     0.53154   0.29410   0.63587   0.01267  Uiso   1.00
C314   C     0.47999   0.22320   0.60450   0.01267  Uiso   1.00
C315   C     0.64882   0.33820   0.68831   0.01267  Uiso   1.00
C316   C     0.36260   0.04470   0.56250   0.01267  Uiso   1.00
C317   C     0.38130   0.01930   0.60640   0.01267  Uiso   1.00
C318   C     0.84400   0.54310   0.61900   0.01267  Uiso   1.00
C319   C     0.78550   0.59760   0.58780   0.01267  Uiso   1.00
C320   C     0.76690   0.62690   0.54440   0.01267  Uiso   1.00
C321   C     0.30550   0.10290   0.53250   0.01267  Uiso   1.00
C322   C     0.74280   0.63120   0.59990   0.01267  Uiso   1.00
C323   C     0.44287   0.74590   0.24826   0.01267  Uiso   1.00
C324   C     0.37894   0.71790   0.22421   0.01267  Uiso   1.00
C325   C     0.33807   0.78750   0.22389   0.01267  Uiso   1.00
C326   C     0.36044   0.88890   0.24740   0.01267  Uiso   1.00
C327   C     0.42427   0.91610   0.27269   0.01267  Uiso   1.00
C328   C     0.46497   0.84520   0.27306   0.01267  Uiso   1.00
C329   C     0.31632   0.96500   0.24668   0.01267  Uiso   1.00
C330   C     0.54561   0.56950   0.30653   0.01267  Uiso   1.00
C331   C     0.59929   0.61380   0.35025   0.01267  Uiso   1.00
C332   C     0.62970   0.55880   0.39350   0.01267  Uiso   1.00
C333   C     0.60720   0.45890   0.39490   0.01267  Uiso   1.00
C334   C     0.55230   0.42070   0.35350   0.01267  Uiso   1.00
C335   C     0.52130   0.47510   0.30970   0.01267  Uiso   1.00
C336   C     0.63700   0.40640   0.44380   0.01267  Uiso   1.00
O337   O     0.24963   0.01200   0.30787   0.01267  Uiso   1.00
O338   O     0.30767   0.16440   0.32394   0.01267  Uiso   1.00
O339   O     0.63782   0.42880   0.69849   0.01267  Uiso   1.00
O340   O     0.70363   0.30230   0.70597   0.01267  Uiso   1.00
O341   O     0.26232   0.92750   0.23021   0.01267  Uiso   1.00
O342   O     0.33692   0.06080   0.26280   0.01267  Uiso   1.00
O343   O     0.16755   0.81986   0.23464   0.01267  Uiso   1.00
H344   H     0.11933   0.81986   0.21151   0.01267  Uiso   1.00
Zn345  Zn    0.70314   0.53768   0.74205   0.01267  Uiso   1.00
Zn346  Zn    0.79368   0.31317   0.76479   0.01267  Uiso   1.00
Si347  Si    0.91873   0.47438   0.04885   0.01267  Uiso   1.00
H348   H     0.79490   0.53310   0.95580   0.01267  Uiso   1.00
H349   H     0.74800   0.51340   0.87590   0.01267  Uiso   1.00
H350   H     0.89530   0.32430   0.91390   0.01267  Uiso   1.00
H351   H     0.94350   0.34520   0.99370   0.01267  Uiso   1.00
H352   H     0.91170   0.65610   0.99180   0.01267  Uiso   1.00
H353   H     0.95900   0.82220   0.00310   0.01267  Uiso   1.00
H354   H     0.05610   0.79850   0.14320   0.01267  Uiso   1.00
H355   H     0.01380   0.62340   0.13310   0.01267  Uiso   1.00
H356   H     0.09580   0.93220   0.11060   0.01267  Uiso   1.00
H357   H     0.03210   0.99590   0.08940   0.01267  Uiso   1.00
H358   H     0.04580   0.95840   0.05540   0.01267  Uiso   1.00
H359   H     0.05530   0.46430   0.09430   0.01267  Uiso   1.00
H360   H     0.14210   0.34870   0.14750   0.01267  Uiso   1.00
H361   H     0.02550   0.14050   0.14600   0.01267  Uiso   1.00
H362   H     0.93930   0.25810   0.09370   0.01267  Uiso   1.00
H363   H     0.92080   0.51560   0.12880   0.01267  Uiso   1.00
H364   H     0.35860   0.97790   0.14920   0.01267  Uiso   1.00
H365   H     0.22780   0.83660   0.02230   0.01267  Uiso   1.00
H366   H     0.79220   0.37280   0.00300   0.01267  Uiso   1.00
H367   H     0.26930   0.84250   0.13240   0.01267  Uiso   1.00
H368   H     0.21380   0.81120   0.07840   0.01267  Uiso   1.00
H369   H     0.21840   0.93170   0.09630   0.01267  Uiso   1.00
H370   H     0.86320   0.84920   0.70790   0.01267  Uiso   1.00
H371   H     0.79560   0.73350   0.70790   0.01267  Uiso   1.00
H372   H     0.94020   0.51770   0.78960   0.01267  Uiso   1.00
H373   H     0.00790   0.63520   0.79030   0.01267  Uiso   1.00
H374   H     0.61520   0.31780   0.85040   0.01267  Uiso   1.00
H375   H     0.16570   0.90980   0.92190   0.01267  Uiso   1.00
H376   H     0.03430   0.14410   0.85410   0.01267  Uiso   1.00
H377   H     0.98320   0.05400   0.78200   0.01267  Uiso   1.00
H378   H     0.15060   0.03630   0.96690   0.01267  Uiso   1.00
H379   H     0.10540   0.13930   0.94060   0.01267  Uiso   1.00
H380   H     0.17340   0.13790   0.95440   0.01267  Uiso   1.00
C381   C     0.87465   0.44070   0.98414   0.01267  Uiso   1.00
C382   C     0.81559   0.49140   0.94773   0.01267  Uiso   1.00
C383   C     0.78745   0.48000   0.89967   0.01267  Uiso   1.00
C384   C     0.81785   0.41930   0.88711   0.01267  Uiso   1.00
C385   C     0.87554   0.36740   0.92238   0.01267  Uiso   1.00
C386   C     0.90399   0.37900   0.97025   0.01267  Uiso   1.00
C387   C     0.78976   0.41320   0.83575   0.01267  Uiso   1.00
C388   C     0.95349   0.61720   0.05979   0.01267  Uiso   1.00
C389   C     0.94150   0.68220   0.02310   0.01267  Uiso   1.00
C390   C     0.97100   0.78370   0.03000   0.01267  Uiso   1.00
C391   C     0.01670   0.82860   0.07450   0.01267  Uiso   1.00
C392   C     0.02860   0.76820   0.11240   0.01267  Uiso   1.00
C393   C     0.00080   0.66300   0.10620   0.01267  Uiso   1.00
C394   C     0.05080   0.93910   0.08330   0.01267  Uiso   1.00
C395   C     0.98801   0.37540   0.08884   0.01267  Uiso   1.00
C396   C     0.04908   0.40000   0.10492   0.01267  Uiso   1.00
C397   C     0.10127   0.33040   0.13663   0.01267  Uiso   1.00
C398   C     0.09195   0.23390   0.15182   0.01267  Uiso   1.00
C399   C     0.03154   0.20590   0.13587   0.01267  Uiso   1.00
C400   C     0.97999   0.27680   0.10450   0.01267  Uiso   1.00
C401   C     0.14882   0.16180   0.18831   0.01267  Uiso   1.00
C402   C     0.86260   0.45530   0.06250   0.01267  Uiso   1.00
C403   C     0.88130   0.48070   0.10640   0.01267  Uiso   1.00
C404   C     0.34400   0.95690   0.11900   0.01267  Uiso   1.00
C405   C     0.28550   0.90240   0.08780   0.01267  Uiso   1.00
C406   C     0.26690   0.87310   0.04440   0.01267  Uiso   1.00
C407   C     0.80550   0.39710   0.03250   0.01267  Uiso   1.00
C408   C     0.24280   0.86880   0.09990   0.01267  Uiso   1.00
C409   C     0.94287   0.75410   0.74826   0.01267  Uiso   1.00
C410   C     0.87894   0.78210   0.72421   0.01267  Uiso   1.00
C411   C     0.83807   0.71250   0.72389   0.01267  Uiso   1.00
C412   C     0.86044   0.61110   0.74740   0.01267  Uiso   1.00
C413   C     0.92427   0.58390   0.77269   0.01267  Uiso   1.00
C414   C     0.96497   0.65480   0.77306   0.01267  Uiso   1.00
C415   C     0.81632   0.53500   0.74668   0.01267  Uiso   1.00
C416   C     0.04561   0.93050   0.80653   0.01267  Uiso   1.00
C417   C     0.09929   0.88620   0.85025   0.01267  Uiso   1.00
C418   C     0.12970   0.94120   0.89350   0.01267  Uiso   1.00
C419   C     0.10720   0.04110   0.89490   0.01267  Uiso   1.00
C420   C     0.05230   0.07930   0.85350   0.01267  Uiso   1.00
C421   C     0.02130   0.02490   0.80970   0.01267  Uiso   1.00
C422   C     0.13700   0.09360   0.94380   0.01267  Uiso   1.00
O423   O     0.74963   0.48800   0.80787   0.01267  Uiso   1.00
O424   O     0.80767   0.33560   0.82394   0.01267  Uiso   1.00
O425   O     0.13782   0.07120   0.19849   0.01267  Uiso   1.00
O426   O     0.20363   0.19770   0.20597   0.01267  Uiso   1.00
O427   O     0.76232   0.57250   0.73021   0.01267  Uiso   1.00
O428   O     0.83692   0.43920   0.76280   0.01267  Uiso   1.00
O429   O     0.66755   0.68014   0.73464   0.01267  Uiso   1.00
H430   H     0.61933   0.68014   0.71151   0.01267  Uiso   1.00
Zn431  Zn    0.20314   0.03768   0.74205   0.01267  Uiso   1.00
Zn432  Zn    0.29368   0.81317   0.76479   0.01267  Uiso   1.00
Si433  Si    0.41873   0.97438   0.04885   0.01267  Uiso   1.00
H434   H     0.29490   0.03310   0.95580   0.01267  Uiso   1.00
H435   H     0.24800   0.01340   0.87590   0.01267  Uiso   1.00
H436   H     0.39530   0.82430   0.91390   0.01267  Uiso   1.00
H437   H     0.44350   0.84520   0.99370   0.01267  Uiso   1.00
H438   H     0.41170   0.15610   0.99180   0.01267  Uiso   1.00
H439   H     0.45900   0.32220   0.00310   0.01267  Uiso   1.00
H440   H     0.55610   0.29850   0.14320   0.01267  Uiso   1.00
H441   H     0.51380   0.12340   0.13310   0.01267  Uiso   1.00
H442   H     0.59580   0.43220   0.11060   0.01267  Uiso   1.00
H443   H     0.53210   0.49590   0.08940   0.01267  Uiso   1.00
H444   H     0.54580   0.45840   0.05540   0.01267  Uiso   1.00
H445   H     0.55530   0.96430   0.09430   0.01267  Uiso   1.00
H446   H     0.64210   0.84870   0.14750   0.01267  Uiso   1.00
H447   H     0.52550   0.64050   0.14600   0.01267  Uiso   1.00
H448   H     0.43930   0.75810   0.09370   0.01267  Uiso   1.00
H449   H     0.42080   0.01560   0.12880   0.01267  Uiso   1.00
H450   H     0.85860   0.47790   0.14920   0.01267  Uiso   1.00
H451   H     0.72780   0.33660   0.02230   0.01267  Uiso   1.00
H452   H     0.29220   0.87280   0.00300   0.01267  Uiso   1.00
H453   H     0.76930   0.34250   0.13240   0.01267  Uiso   1.00
H454   H     0.71380   0.31120   0.07840   0.01267  Uiso   1.00
H455   H     0.71840   0.43170   0.09630   0.01267  Uiso   1.00
H456   H     0.36320   0.34920   0.70790   0.01267  Uiso   1.00
H457   H     0.29560   0.23350   0.70790   0.01267  Uiso   1.00
H458   H     0.44020   0.01770   0.78960   0.01267  Uiso   1.00
H459   H     0.50790   0.13520   0.79030   0.01267  Uiso   1.00
H460   H     0.11520   0.81780   0.85040   0.01267  Uiso   1.00
H461   H     0.66570   0.40980   0.92190   0.01267  Uiso   1.00
H462   H     0.53430   0.64410   0.85410   0.01267  Uiso   1.00
H463   H     0.48320   0.55400   0.78200   0.01267  Uiso   1.00
H464   H     0.65060   0.53630   0.96690   0.01267  Uiso   1.00
H465   H     0.60540   0.63930   0.94060   0.01267  Uiso   1.00
H466   H     0.67340   0.63790   0.95440   0.01267  Uiso   1.00
C467   C     0.37465   0.94070   0.98414   0.01267  Uiso   1.00
C468   C     0.31559   0.99140   0.94773   0.01267  Uiso   1.00
C469   C     0.28745   0.98000   0.89967   0.01267  Uiso   1.00
C470   C     0.31785   0.91930   0.88711   0.01267  Uiso   1.00
C471   C     0.37554   0.86740   0.92238   0.01267  Uiso   1.00
C472   C     0.40399   0.87900   0.97025   0.01267  Uiso   1.00
C473   C     0.28976   0.91320   0.83575   0.01267  Uiso   1.00
C474   C     0.45349   0.11720   0.05979   0.01267  Uiso   1.00
C475   C     0.44150   0.18220   0.02310   0.01267  Uiso   1.00
C476   C     0.47100   0.28370   0.03000   0.01267  Uiso   1.00
C477   C     0.51670   0.32860   0.07450   0.01267  Uiso   1.00
C478   C     0.52860   0.26820   0.11240   0.01267  Uiso   1.00
C479   C     0.50080   0.16300   0.10620   0.01267  Uiso   1.00
C480   C     0.55080   0.43910   0.08330   0.01267  Uiso   1.00
C481   C     0.48801   0.87540   0.08884   0.01267  Uiso   1.00
C482   C     0.54908   0.90000   0.10492   0.01267  Uiso   1.00
C483   C     0.60127   0.83040   0.13663   0.01267  Uiso   1.00
C484   C     0.59195   0.73390   0.15182   0.01267  Uiso   1.00
C485   C     0.53154   0.70590   0.13587   0.01267  Uiso   1.00
C486   C     0.47999   0.77680   0.10450   0.01267  Uiso   1.00
C487   C     0.64882   0.66180   0.18831   0.01267  Uiso   1.00
C488   C     0.36260   0.95530   0.06250   0.01267  Uiso   1.00
C489   C     0.38130   0.98070   0.10640   0.01267  Uiso   1.00
C490   C     0.84400   0.45690   0.11900   0.01267  Uiso   1.00
C491   C     0.78550   0.40240   0.08780   0.01267  Uiso   1.00
C492   C     0.76690   0.37310   0.04440   0.01267  Uiso   1.00
C493   C     0.30550   0.89710   0.03250   0.01267  Uiso   1.00
C494   C     0.74280   0.36880   0.09990   0.01267  Uiso   1.00
C495   C     0.44287   0.25410   0.74826   0.01267  Uiso   1.00
C496   C     0.37894   0.28210   0.72421   0.01267  Uiso   1.00
C497   C     0.33807   0.21250   0.72389   0.01267  Uiso   1.00
C498   C     0.36044   0.11110   0.74740   0.01267  Uiso   1.00
C499   C     0.42427   0.08390   0.77269   0.01267  Uiso   1.00
C500   C     0.46497   0.15480   0.77306   0.01267  Uiso   1.00
C501   C     0.31632   0.03500   0.74668   0.01267  Uiso   1.00
C502   C     0.54561   0.43050   0.80653   0.01267  Uiso   1.00
C503   C     0.59929   0.38620   0.85025   0.01267  Uiso   1.00
C504   C     0.62970   0.44120   0.89350   0.01267  Uiso   1.00
C505   C     0.60720   0.54110   0.89490   0.01267  Uiso   1.00
C506   C     0.55230   0.57930   0.85350   0.01267  Uiso   1.00
C507   C     0.52130   0.52490   0.80970   0.01267  Uiso   1.00
C508   C     0.63700   0.59360   0.94380   0.01267  Uiso   1.00
O509   O     0.24963   0.98800   0.80787   0.01267  Uiso   1.00
O510   O     0.30767   0.83560   0.82394   0.01267  Uiso   1.00
O511   O     0.63782   0.57120   0.19849   0.01267  Uiso   1.00
O512   O     0.70363   0.69770   0.20597   0.01267  Uiso   1.00
O513   O     0.26232   0.07250   0.73021   0.01267  Uiso   1.00
O514   O     0.33692   0.93920   0.76280   0.01267  Uiso   1.00
O515   O     0.16755   0.18014   0.73464   0.01267  Uiso   1.00
H516   H     0.11933   0.18014   0.71151   0.01267  Uiso   1.00
Zn517  Zn    0.29686   0.53768   0.75795   0.01267  Uiso   1.00
Zn518  Zn    0.20632   0.31317   0.73521   0.01267  Uiso   1.00
Si519  Si    0.08127   0.47438   0.45115   0.01267  Uiso   1.00
H520   H     0.20510   0.53310   0.54420   0.01267  Uiso   1.00
H521   H     0.25200   0.51340   0.62410   0.01267  Uiso   1.00
H522   H     0.10470   0.32430   0.58610   0.01267  Uiso   1.00
H523   H     0.05650   0.34520   0.50630   0.01267  Uiso   1.00
H524   H     0.08830   0.65610   0.50820   0.01267  Uiso   1.00
H525   H     0.04100   0.82220   0.49690   0.01267  Uiso   1.00
H526   H     0.94390   0.79850   0.35680   0.01267  Uiso   1.00
H527   H     0.98620   0.62340   0.36690   0.01267  Uiso   1.00
H528   H     0.90420   0.93220   0.38940   0.01267  Uiso   1.00
H529   H     0.96790   0.99590   0.41060   0.01267  Uiso   1.00
H530   H     0.95420   0.95840   0.44460   0.01267  Uiso   1.00
H531   H     0.94470   0.46430   0.40570   0.01267  Uiso   1.00
H532   H     0.85790   0.34870   0.35250   0.01267  Uiso   1.00
H533   H     0.97450   0.14050   0.35400   0.01267  Uiso   1.00
H534   H     0.06070   0.25810   0.40630   0.01267  Uiso   1.00
H535   H     0.07920   0.51560   0.37120   0.01267  Uiso   1.00
H536   H     0.64140   0.97790   0.35080   0.01267  Uiso   1.00
H537   H     0.77220   0.83660   0.47770   0.01267  Uiso   1.00
H538   H     0.20780   0.37280   0.49700   0.01267  Uiso   1.00
H539   H     0.73070   0.84250   0.36760   0.01267  Uiso   1.00
H540   H     0.78620   0.81120   0.42160   0.01267  Uiso   1.00
H541   H     0.78160   0.93170   0.40370   0.01267  Uiso   1.00
H542   H     0.13680   0.84920   0.79210   0.01267  Uiso   1.00
H543   H     0.20440   0.73350   0.79210   0.01267  Uiso   1.00
H544   H     0.05980   0.51770   0.71040   0.01267  Uiso   1.00
H545   H     0.99210   0.63520   0.70970   0.01267  Uiso   1.00
H546   H     0.38480   0.31780   0.64960   0.01267  Uiso   1.00
H547   H     0.83430   0.90980   0.57810   0.01267  Uiso   1.00
H548   H     0.96570   0.14410   0.64590   0.01267  Uiso   1.00
H549   H     0.01680   0.05400   0.71800   0.01267  Uiso   1.00
H550   H     0.84940   0.03630   0.53310   0.01267  Uiso   1.00
H551   H     0.89460   0.13930   0.55940   0.01267  Uiso   1.00
H552   H     0.82660   0.13790   0.54560   0.01267  Uiso   1.00
C553   C     0.12535   0.44070   0.51586   0.01267  Uiso   1.00
C554   C     0.18441   0.49140   0.55227   0.01267  Uiso   1.00
C555   C     0.21255   0.48000   0.60033   0.01267  Uiso   1.00
C556   C     0.18215   0.41930   0.61289   0.01267  Uiso   1.00
C557   C     0.12446   0.36740   0.57762   0.01267  Uiso   1.00
C558   C     0.09601   0.37900   0.52975   0.01267  Uiso   1.00
C559   C     0.21024   0.41320   0.66425   0.01267  Uiso   1.00
C560   C     0.04651   0.61720   0.44021   0.01267  Uiso   1.00
C561   C     0.05850   0.68220   0.47690   0.01267  Uiso   1.00
C562   C     0.02900   0.78370   0.47000   0.01267  Uiso   1.00
C563   C     0.98330   0.82860   0.42550   0.01267  Uiso   1.00
C564   C     0.97140   0.76820   0.38760   0.01267  Uiso   1.00
C565   C     0.99920   0.66300   0.39380   0.01267  Uiso   1.00
C566   C     0.94920   0.93910   0.41670   0.01267  Uiso   1.00
C567   C     0.01199   0.37540   0.41116   0.01267  Uiso   1.00
C568   C     0.95092   0.40000   0.39508   0.01267  Uiso   1.00
C569   C     0.89873   0.33040   0.36337   0.01267  Uiso   1.00
C570   C     0.90805   0.23390   0.34818   0.01267  Uiso   1.00
C571   C     0.96846   0.20590   0.36413   0.01267  Uiso   1.00
C572   C     0.02001   0.27680   0.39550   0.01267  Uiso   1.00
C573   C     0.85118   0.16180   0.31169   0.01267  Uiso   1.00
C574   C     0.13740   0.45530   0.43750   0.01267  Uiso   1.00
C575   C     0.11870   0.48070   0.39360   0.01267  Uiso   1.00
C576   C     0.65600   0.95690   0.38100   0.01267  Uiso   1.00
C577   C     0.71450   0.90240   0.41220   0.01267  Uiso   1.00
C578   C     0.73310   0.87310   0.45560   0.01267  Uiso   1.00
C579   C     0.19450   0.39710   0.46750   0.01267  Uiso   1.00
C580   C     0.75720   0.86880   0.40010   0.01267  Uiso   1.00
C581   C     0.05713   0.75410   0.75174   0.01267  Uiso   1.00
C582   C     0.12106   0.78210   0.77579   0.01267  Uiso   1.00
C583   C     0.16193   0.71250   0.77611   0.01267  Uiso   1.00
C584   C     0.13956   0.61110   0.75260   0.01267  Uiso   1.00
C585   C     0.07573   0.58390   0.72731   0.01267  Uiso   1.00
C586   C     0.03503   0.65480   0.72694   0.01267  Uiso   1.00
C587   C     0.18368   0.53500   0.75332   0.01267  Uiso   1.00
C588   C     0.95439   0.93050   0.69347   0.01267  Uiso   1.00
C589   C     0.90071   0.88620   0.64975   0.01267  Uiso   1.00
C590   C     0.87030   0.94120   0.60650   0.01267  Uiso   1.00
C591   C     0.89280   0.04110   0.60510   0.01267  Uiso   1.00
C592   C     0.94770   0.07930   0.64650   0.01267  Uiso   1.00
C593   C     0.97870   0.02490   0.69030   0.01267  Uiso   1.00
C594   C     0.86300   0.09360   0.55620   0.01267  Uiso   1.00
O595   O     0.25037   0.48800   0.69213   0.01267  Uiso   1.00
O596   O     0.19233   0.33560   0.67606   0.01267  Uiso   1.00
O597   O     0.86218   0.07120   0.30151   0.01267  Uiso   1.00
O598   O     0.79637   0.19770   0.29403   0.01267  Uiso   1.00
O599   O     0.23768   0.57250   0.76979   0.01267  Uiso   1.00
O600   O     0.16308   0.43920   0.73720   0.01267  Uiso   1.00
O601   O     0.33245   0.68014   0.76536   0.01267  Uiso   1.00
H602   H     0.38067   0.68014   0.78849   0.01267  Uiso   1.00
Zn603  Zn    0.79686   0.03768   0.75795   0.01267  Uiso   1.00
Zn604  Zn    0.70632   0.81317   0.73521   0.01267  Uiso   1.00
Si605  Si    0.58127   0.97438   0.45115   0.01267  Uiso   1.00
H606   H     0.70510   0.03310   0.54420   0.01267  Uiso   1.00
H607   H     0.75200   0.01340   0.62410   0.01267  Uiso   1.00
H608   H     0.60470   0.82430   0.58610   0.01267  Uiso   1.00
H609   H     0.55650   0.84520   0.50630   0.01267  Uiso   1.00
H610   H     0.58830   0.15610   0.50820   0.01267  Uiso   1.00
H611   H     0.54100   0.32220   0.49690   0.01267  Uiso   1.00
H612   H     0.44390   0.29850   0.35680   0.01267  Uiso   1.00
H613   H     0.48620   0.12340   0.36690   0.01267  Uiso   1.00
H614   H     0.40420   0.43220   0.38940   0.01267  Uiso   1.00
H615   H     0.46790   0.49590   0.41060   0.01267  Uiso   1.00
H616   H     0.45420   0.45840   0.44460   0.01267  Uiso   1.00
H617   H     0.44470   0.96430   0.40570   0.01267  Uiso   1.00
H618   H     0.35790   0.84870   0.35250   0.01267  Uiso   1.00
H619   H     0.47450   0.64050   0.35400   0.01267  Uiso   1.00
H620   H     0.56070   0.75810   0.40630   0.01267  Uiso   1.00
H621   H     0.57920   0.01560   0.37120   0.01267  Uiso   1.00
H622   H     0.14140   0.47790   0.35080   0.01267  Uiso   1.00
H623   H     0.27220   0.33660   0.47770   0.01267  Uiso   1.00
H624   H     0.70780   0.87280   0.49700   0.01267  Uiso   1.00
H625   H     0.23070   0.34250   0.36760   0.01267  Uiso   1.00
H626   H     0.28620   0.31120   0.42160   0.01267  Uiso   1.00
H627   H     0.28160   0.43170   0.40370   0.01267  Uiso   1.00
H628   H     0.63680   0.34920   0.79210   0.01267  Uiso   1.00
H629   H     0.70440   0.23350   0.79210   0.01267  Uiso   1.00
H630   H     0.55980   0.01770   0.71040   0.01267  Uiso   1.00
H631   H     0.49210   0.13520   0.70970   0.01267  Uiso   1.00
H632   H     0.88480   0.81780   0.64960   0.01267  Uiso   1.00
H633   H     0.33430   0.40980   0.57810   0.01267  Uiso   1.00
H634   H     0.46570   0.64410   0.64590   0.01267  Uiso   1.00
H635   H     0.51680   0.55400   0.71800   0.01267  Uiso   1.00
H636   H     0.34940   0.53630   0.53310   0.01267  Uiso   1.00
H637   H     0.39460   0.63930   0.55940   0.01267  Uiso   1.00
H638   H     0.32660   0.63790   0.54560   0.01267  Uiso   1.00
C639   C     0.62535   0.94070   0.51586   0.01267  Uiso   1.00
C640   C     0.68441   0.99140   0.55227   0.01267  Uiso   1.00
C641   C     0.71255   0.98000   0.60033   0.01267  Uiso   1.00
C642   C     0.68215   0.91930   0.61289   0.01267  Uiso   1.00
C643   C     0.62446   0.86740   0.57762   0.01267  Uiso   1.00
C644   C     0.59601   0.87900   0.52975   0.01267  Uiso   1.00
C645   C     0.71024   0.91320   0.66425   0.01267  Uiso   1.00
C646   C     0.54651   0.11720   0.44021   0.01267  Uiso   1.00
C647   C     0.55850   0.18220   0.47690   0.01267  Uiso   1.00
C648   C     0.52900   0.28370   0.47000   0.01267  Uiso   1.00
C649   C     0.48330   0.32860   0.42550   0.01267  Uiso   1.00
C650   C     0.47140   0.26820   0.38760   0.01267  Uiso   1.00
C651   C     0.49920   0.16300   0.39380   0.01267  Uiso   1.00
C652   C     0.44920   0.43910   0.41670   0.01267  Uiso   1.00
C653   C     0.51199   0.87540   0.41116   0.01267  Uiso   1.00
C654   C     0.45092   0.90000   0.39508   0.01267  Uiso   1.00
C655   C     0.39873   0.83040   0.36337   0.01267  Uiso   1.00
C656   C     0.40805   0.73390   0.34818   0.01267  Uiso   1.00
C657   C     0.46846   0.70590   0.36413   0.01267  Uiso   1.00
C658   C     0.52001   0.77680   0.39550   0.01267  Uiso   1.00
C659   C     0.35118   0.66180   0.31169   0.01267  Uiso   1.00
C660   C     0.63740   0.95530   0.43750   0.01267  Uiso   1.00
C661   C     0.61870   0.98070   0.39360   0.01267  Uiso   1.00
C662   C     0.15600   0.45690   0.38100   0.01267  Uiso   1.00
C663   C     0.21450   0.40240   0.41220   0.01267  Uiso   1.00
C664   C     0.23310   0.37310   0.45560   0.01267  Uiso   1.00
C665   C     0.69450   0.89710   0.46750   0.01267  Uiso   1.00
C666   C     0.25720   0.36880   0.40010   0.01267  Uiso   1.00
C667   C     0.55713   0.25410   0.75174   0.01267  Uiso   1.00
C668   C     0.62106   0.28210   0.77579   0.01267  Uiso   1.00
C669   C     0.66193   0.21250   0.77611   0.01267  Uiso   1.00
C670   C     0.63956   0.11110   0.75260   0.01267  Uiso   1.00
C671   C     0.57573   0.08390   0.72731   0.01267  Uiso   1.00
C672   C     0.53503   0.15480   0.72694   0.01267  Uiso   1.00
C673   C     0.68368   0.03500   0.75332   0.01267  Uiso   1.00
C674   C     0.45439   0.43050   0.69347   0.01267  Uiso   1.00
C675   C     0.40071   0.38620   0.64975   0.01267  Uiso   1.00
C676   C     0.37030   0.44120   0.60650   0.01267  Uiso   1.00
C677   C     0.39280   0.54110   0.60510   0.01267  Uiso   1.00
C678   C     0.44770   0.57930   0.64650   0.01267  Uiso   1.00
C679   C     0.47870   0.52490   0.69030   0.01267  Uiso   1.00
C680   C     0.36300   0.59360   0.55620   0.01267  Uiso   1.00
O681   O     0.75037   0.98800   0.69213   0.01267  Uiso   1.00
O682   O     0.69233   0.83560   0.67606   0.01267  Uiso   1.00
O683   O     0.36218   0.57120   0.30151   0.01267  Uiso   1.00
O684   O     0.29637   0.69770   0.29403   0.01267  Uiso   1.00
O685   O     0.73768   0.07250   0.76979   0.01267  Uiso   1.00
O686   O     0.66308   0.93920   0.73720   0.01267  Uiso   1.00
O687   O     0.83245   0.18014   0.76536   0.01267  Uiso   1.00
H688   H     0.88067   0.18014   0.78849   0.01267  Uiso   1.00
Si689  Si    0.00000   0.15289   0.25000   0.01267  Uiso   1.00
Si690  Si    0.50000   0.65289   0.25000   0.01267  Uiso   1.00
Si691  Si    0.00000   0.84711   0.75000   0.01267  Uiso   1.00
Si692  Si    0.50000   0.34711   0.75000   0.01267  Uiso   1.00
