data_image0
_cell_length_a       37.441
_cell_length_b       37.449
_cell_length_c       27.25
_cell_angle_alpha    90
_cell_angle_beta     90
_cell_angle_gamma    90

_symmetry_space_group_name_H-M    "P 1"
_symmetry_int_tables_number       1

loop_
  _symmetry_equiv_pos_as_xyz
  'x, y, z'

loop_
  _atom_site_label
  _atom_site_occupancy
  _atom_site_fract_x
  _atom_site_fract_y
  _atom_site_fract_z
  _atom_site_thermal_displace_type
  _atom_site_B_iso_or_equiv
  _atom_site_type_symbol
  Cu1      1.0000 0.00102  0.00335  0.14958  Biso   1.000  Cu
  Cu2      1.0000 0.99089  0.99795  0.24613  Biso   1.000  Cu
  Cu3      1.0000 0.23856  0.28367  0.03999  Biso   1.000  Cu
  N1       1.0000 0.09341  0.30135  0.34180  Biso   1.000  N
  N2       1.0000 0.09182  0.19675  0.23600  Biso   1.000  N
  N3       1.0000 0.19445  0.90888  0.22460  Biso   1.000  N
  O1       1.0000 0.02520  0.04760  0.17054  Biso   1.000  O
  O2       1.0000 0.04497  0.97601  0.16470  Biso   1.000  O
  O3       1.0000 0.26616  0.79492  0.08120  Biso   1.000  O
  O4       1.0000 0.20991  0.77551  0.08170  Biso   1.000  O
  O5       1.0000 0.03889  0.97570  0.24578  Biso   1.000  O
  O6       1.0000 0.01457  0.04553  0.25101  Biso   1.000  O
  O7       1.0000 0.44550  0.97811  0.27184  Biso   1.000  O
  O8       1.0000 0.23272  0.79443  0.48020  Biso   1.000  O
  O9       1.0000 0.28887  0.77646  0.47890  Biso   1.000  O
  O10      1.0000 0.45533  0.97111  0.35204  Biso   1.000  O
  O11      1.0000 0.20498  0.26665  0.08910  Biso   1.000  O
  O12      1.0000 0.22513  0.21020  0.09030  Biso   1.000  O
  O13      1.0000 0.02528  0.45707  0.35680  Biso   1.000  O
  O14      1.0000 0.02990  0.45143  0.27513  Biso   1.000  O
  O15      1.0000 0.22472  0.29159  0.49050  Biso   1.000  O
  O16      1.0000 0.20582  0.23482  0.49020  Biso   1.000  O
  C1       1.0000 0.07391  0.27466  0.31470  Biso   1.000  C
  C2       1.0000 0.09156  0.24868  0.28840  Biso   1.000  C
  H1       1.0000 0.11640  0.24870  0.28730  Biso   1.000  H
  C3       1.0000 0.07297  0.22308  0.26390  Biso   1.000  C
  C4       1.0000 0.07597  0.16252  0.22900  Biso   1.000  C
  C5       1.0000 0.07310  0.14630  0.18430  Biso   1.000  C
  H2       1.0000 0.08220  0.15790  0.15680  Biso   1.000  H
  C6       1.0000 0.05740  0.11355  0.17840  Biso   1.000  C
  H3       1.0000 0.05560  0.10350  0.14730  Biso   1.000  H
  C7       1.0000 0.04399  0.09513  0.21890  Biso   1.000  C
  C8       1.0000 0.02714  0.06006  0.21290  Biso   1.000  C
  C9       1.0000 0.05558  0.96924  0.20710  Biso   1.000  C
  C10      1.0000 0.09080  0.95164  0.21250  Biso   1.000  C
  C11      1.0000 0.11010  0.94230  0.17200  Biso   1.000  C
  H4       1.0000 0.09970  0.94530  0.14130  Biso   1.000  H
  C12      1.0000 0.14450  0.92840  0.17430  Biso   1.000  C
  H5       1.0000 0.15750  0.92360  0.14610  Biso   1.000  H
  C13      1.0000 0.15858  0.92210  0.22120  Biso   1.000  C
  C14      1.0000 0.21886  0.92700  0.25340  Biso   1.000  C
  C15      1.0000 0.24538  0.90870  0.27970  Biso   1.000  C
  H6       1.0000 0.24610  0.88390  0.27900  Biso   1.000  H
  C16      1.0000 0.27000  0.92720  0.30630  Biso   1.000  C
  C17      1.0000 0.26850  0.96440  0.30910  Biso   1.000  C
  H7       1.0000 0.28520  0.97690  0.32750  Biso   1.000  H
  C18      1.0000 0.24250  0.98200  0.28480  Biso   1.000  C
  H8       1.0000 0.24070  0.00670  0.28750  Biso   1.000  H
  C19      1.0000 0.21820  0.96300  0.25540  Biso   1.000  C
  H9       1.0000 0.20140  0.97550  0.23700  Biso   1.000  H
  C20      1.0000 0.20430  0.88020  0.19330  Biso   1.000  C
  C21      1.0000 0.23760  0.87900  0.17280  Biso   1.000  C
  H10      1.0000 0.25360  0.89730  0.18010  Biso   1.000  H
  C22      1.0000 0.24870  0.85210  0.14200  Biso   1.000  C
  H11      1.0000 0.27160  0.85200  0.12890  Biso   1.000  H
  C23      1.0000 0.22400  0.82400  0.13060  Biso   1.000  C
  C24      1.0000 0.23580  0.79580  0.09570  Biso   1.000  C
  C25      1.0000 0.18990  0.82510  0.15080  Biso   1.000  C
  H12      1.0000 0.17350  0.80740  0.14310  Biso   1.000  H
  C26      1.0000 0.18030  0.85270  0.18270  Biso   1.000  C
  H13      1.0000 0.15780  0.85280  0.19690  Biso   1.000  H
  C27      1.0000 0.13975  0.93070  0.26180  Biso   1.000  C
  H14      1.0000 0.14950  0.92670  0.29270  Biso   1.000  H
  C28      1.0000 0.10594  0.94570  0.25750  Biso   1.000  C
  H15      1.0000 0.09340  0.95180  0.28570  Biso   1.000  H
  C29      1.0000 0.43655  0.96824  0.31350  Biso   1.000  C
  C30      1.0000 0.40094  0.95071  0.31920  Biso   1.000  C
  C31      1.0000 0.38809  0.94050  0.36420  Biso   1.000  C
  H16      1.0000 0.40240  0.94310  0.39190  Biso   1.000  H
  C32      1.0000 0.35419  0.92660  0.36870  Biso   1.000  C
  H17      1.0000 0.34570  0.92000  0.39940  Biso   1.000  H
  C33      1.0000 0.33290  0.92230  0.32810  Biso   1.000  C
  C34      1.0000 0.34581  0.93230  0.28240  Biso   1.000  C
  H18      1.0000 0.33140  0.92960  0.25490  Biso   1.000  H
  C35      1.0000 0.37909  0.94600  0.27750  Biso   1.000  C
  H19      1.0000 0.38760  0.95230  0.24660  Biso   1.000  H
  N4       1.0000 0.29766  0.90820  0.33240  Biso   1.000  N
  C36      1.0000 0.28929  0.87940  0.36460  Biso   1.000  C
  C37      1.0000 0.25588  0.87770  0.38760  Biso   1.000  C
  H20      1.0000 0.23920  0.89540  0.38090  Biso   1.000  H
  C38      1.0000 0.24720  0.85250  0.41780  Biso   1.000  C
  H21      1.0000 0.22430  0.85200  0.43110  Biso   1.000  H
  C39      1.0000 0.27260  0.82540  0.43100  Biso   1.000  C
  C40      1.0000 0.26360  0.79660  0.46680  Biso   1.000  C
  C41      1.0000 0.30616  0.82670  0.40850  Biso   1.000  C
  H22      1.0000 0.32340  0.80970  0.41610  Biso   1.000  H
  C42      1.0000 0.31390  0.85380  0.37460  Biso   1.000  C
  H23      1.0000 0.33590  0.85410  0.35880  Biso   1.000  H
  C43      1.0000 0.04860  0.11005  0.26520  Biso   1.000  C
  H24      1.0000 0.04120  0.09760  0.29300  Biso   1.000  H
  C44      1.0000 0.06440  0.14380  0.27020  Biso   1.000  C
  H25      1.0000 0.06720  0.15370  0.30120  Biso   1.000  H
  C45      1.0000 0.11954  0.20724  0.20430  Biso   1.000  C
  C46      1.0000 0.14760  0.18339  0.19390  Biso   1.000  C
  H26      1.0000 0.14790  0.16100  0.20870  Biso   1.000  H
  C47      1.0000 0.17450  0.19279  0.16230  Biso   1.000  C
  H27      1.0000 0.19240  0.17650  0.15500  Biso   1.000  H
  C48      1.0000 0.17510  0.22530  0.14180  Biso   1.000  C
  C49      1.0000 0.20450  0.23430  0.10450  Biso   1.000  C
  C50      1.0000 0.14820  0.24940  0.15200  Biso   1.000  C
  H28      1.0000 0.14910  0.27220  0.13830  Biso   1.000  H
  C51      1.0000 0.12060  0.24055  0.18160  Biso   1.000  C
  H29      1.0000 0.10230  0.25680  0.18690  Biso   1.000  H
  C52      1.0000 0.03640  0.22320  0.26550  Biso   1.000  C
  H30      1.0000 0.02340  0.20570  0.24910  Biso   1.000  H
  C53      1.0000 0.01890  0.24980  0.29170  Biso   1.000  C
  H31      1.0000 0.99410  0.25020  0.29190  Biso   1.000  H
  C54      1.0000 0.03660  0.27450  0.31650  Biso   1.000  C
  H32      1.0000 0.02440  0.29150  0.33490  Biso   1.000  H
  C55      1.0000 0.08075  0.33753  0.33690  Biso   1.000  C
  C56      1.0000 0.07360  0.35106  0.28970  Biso   1.000  C
  H33      1.0000 0.07920  0.33740  0.26220  Biso   1.000  H
  C57      1.0000 0.05860  0.38445  0.28370  Biso   1.000  C
  H34      1.0000 0.05330  0.39290  0.25240  Biso   1.000  H
  C58      1.0000 0.05126  0.40527  0.32440  Biso   1.000  C
  C59      1.0000 0.03444  0.44074  0.31700  Biso   1.000  C
  C60      1.0000 0.05920  0.39259  0.37170  Biso   1.000  C
  H35      1.0000 0.05440  0.40660  0.39910  Biso   1.000  H
  C61      1.0000 0.07450  0.35848  0.37720  Biso   1.000  C
  H36      1.0000 0.08030  0.35010  0.40830  Biso   1.000  H
  C62      1.0000 0.12078  0.29301  0.37460  Biso   1.000  C
  C63      1.0000 0.14720  0.31775  0.38640  Biso   1.000  C
  H37      1.0000 0.14620  0.34050  0.37290  Biso   1.000  H
  C64      1.0000 0.17410  0.30925  0.41700  Biso   1.000  C
  H38      1.0000 0.19190  0.32590  0.42340  Biso   1.000  H
  C65      1.0000 0.17526  0.27578  0.43900  Biso   1.000  C
  C66      1.0000 0.20420  0.26680  0.47570  Biso   1.000  C
  C67      1.0000 0.15060  0.25200  0.42790  Biso   1.000  C
  H39      1.0000 0.15210  0.22920  0.44150  Biso   1.000  H
  C68      1.0000 0.12220  0.26006  0.39620  Biso   1.000  C
  H40      1.0000 0.10460  0.24320  0.39000  Biso   1.000  H
  N5       1.0000 0.97543  0.98961  0.31800  Biso   1.000  N
  C69      1.0000 0.99230  0.00040  0.36220  Biso   1.000  C
  H41      1.0000 0.01310  0.01400  0.36460  Biso   1.000  H
  N6       1.0000 0.97200  0.98700  0.40206  Biso   1.000  N
  C70      1.0000 0.94250  0.96780  0.38250  Biso   1.000  C
  H42      1.0000 0.92490  0.95620  0.40050  Biso   1.000  H
  C71      1.0000 0.94460  0.96950  0.33050  Biso   1.000  C
  H43      1.0000 0.92870  0.95910  0.30850  Biso   1.000  H
  N7       1.0000 0.21820  0.33785  0.04050  Biso   1.000  N
  C72      1.0000 0.18990  0.35020  0.07090  Biso   1.000  C
  H44      1.0000 0.18050  0.33820  0.09790  Biso   1.000  H
  N8       1.0000 0.17870  0.38390  0.05290  Biso   1.000  N
  C73      1.0000 0.19990  0.39250  0.01140  Biso   1.000  C
  H45      1.0000 0.19810  0.41310  0.99250  Biso   1.000  H
  C74      1.0000 0.22430  0.36400  0.00370  Biso   1.000  C
  H46      1.0000 0.24130  0.36270  0.97890  Biso   1.000  H
  C75      1.0000 0.98810  0.99530  0.45320  Biso   1.000  C
  C76      1.0000 0.96550  0.99140  0.49050  Biso   1.000  C
  H47      1.0000 0.94200  0.98510  0.48400  Biso   1.000  H
  C77      1.0000 0.14490  0.40220  0.07510  Biso   1.000  C
  C78      1.0000 0.02430  0.00370  0.46290  Biso   1.000  C
  H48      1.0000 0.04070  0.00580  0.43740  Biso   1.000  H
  Cu4      1.0000 0.28340  0.76109  0.03072  Biso   1.000  Cu
  Cu5      1.0000 0.49898  0.49665  0.14958  Biso   1.000  Cu
  Cu6      1.0000 0.50911  0.50205  0.24613  Biso   1.000  Cu
  Cu7      1.0000 0.26144  0.21633  0.03999  Biso   1.000  Cu
  N9       1.0000 0.40659  0.19865  0.34180  Biso   1.000  N
  N10      1.0000 0.40818  0.30325  0.23600  Biso   1.000  N
  N11      1.0000 0.30555  0.59112  0.22460  Biso   1.000  N
  O17      1.0000 0.47480  0.45240  0.17054  Biso   1.000  O
  O18      1.0000 0.45503  0.52399  0.16470  Biso   1.000  O
  O19      1.0000 0.23384  0.70508  0.08120  Biso   1.000  O
  O20      1.0000 0.29009  0.72449  0.08170  Biso   1.000  O
  O21      1.0000 0.46111  0.52430  0.24578  Biso   1.000  O
  O22      1.0000 0.48543  0.45447  0.25101  Biso   1.000  O
  O23      1.0000 0.05450  0.52189  0.27184  Biso   1.000  O
  O24      1.0000 0.26728  0.70557  0.48020  Biso   1.000  O
  O25      1.0000 0.21113  0.72354  0.47890  Biso   1.000  O
  O26      1.0000 0.04467  0.52889  0.35204  Biso   1.000  O
  O27      1.0000 0.29502  0.23335  0.08910  Biso   1.000  O
  O28      1.0000 0.27487  0.28980  0.09030  Biso   1.000  O
  O29      1.0000 0.47472  0.04293  0.35680  Biso   1.000  O
  O30      1.0000 0.47010  0.04857  0.27513  Biso   1.000  O
  O31      1.0000 0.27528  0.20841  0.49050  Biso   1.000  O
  O32      1.0000 0.29418  0.26518  0.49020  Biso   1.000  O
  C79      1.0000 0.42609  0.22534  0.31470  Biso   1.000  C
  C80      1.0000 0.40844  0.25132  0.28840  Biso   1.000  C
  H49      1.0000 0.38360  0.25130  0.28730  Biso   1.000  H
  C81      1.0000 0.42703  0.27692  0.26390  Biso   1.000  C
  C82      1.0000 0.42403  0.33748  0.22900  Biso   1.000  C
  C83      1.0000 0.42690  0.35370  0.18430  Biso   1.000  C
  H50      1.0000 0.41780  0.34210  0.15680  Biso   1.000  H
  C84      1.0000 0.44260  0.38645  0.17840  Biso   1.000  C
  H51      1.0000 0.44440  0.39650  0.14730  Biso   1.000  H
  C85      1.0000 0.45601  0.40487  0.21890  Biso   1.000  C
  C86      1.0000 0.47286  0.43994  0.21290  Biso   1.000  C
  C87      1.0000 0.44442  0.53076  0.20710  Biso   1.000  C
  C88      1.0000 0.40920  0.54836  0.21250  Biso   1.000  C
  C89      1.0000 0.38990  0.55770  0.17200  Biso   1.000  C
  H52      1.0000 0.40030  0.55470  0.14130  Biso   1.000  H
  C90      1.0000 0.35550  0.57160  0.17430  Biso   1.000  C
  H53      1.0000 0.34250  0.57640  0.14610  Biso   1.000  H
  C91      1.0000 0.34142  0.57790  0.22120  Biso   1.000  C
  C92      1.0000 0.28114  0.57300  0.25340  Biso   1.000  C
  C93      1.0000 0.25462  0.59130  0.27970  Biso   1.000  C
  H54      1.0000 0.25390  0.61610  0.27900  Biso   1.000  H
  C94      1.0000 0.23000  0.57280  0.30630  Biso   1.000  C
  C95      1.0000 0.23150  0.53560  0.30910  Biso   1.000  C
  H55      1.0000 0.21480  0.52310  0.32750  Biso   1.000  H
  C96      1.0000 0.25750  0.51800  0.28480  Biso   1.000  C
  H56      1.0000 0.25930  0.49330  0.28750  Biso   1.000  H
  C97      1.0000 0.28180  0.53700  0.25540  Biso   1.000  C
  H57      1.0000 0.29860  0.52450  0.23700  Biso   1.000  H
  C98      1.0000 0.29570  0.61980  0.19330  Biso   1.000  C
  C99      1.0000 0.26240  0.62100  0.17280  Biso   1.000  C
  H58      1.0000 0.24640  0.60270  0.18010  Biso   1.000  H
  C100     1.0000 0.25130  0.64790  0.14200  Biso   1.000  C
  H59      1.0000 0.22840  0.64800  0.12890  Biso   1.000  H
  C101     1.0000 0.27600  0.67600  0.13060  Biso   1.000  C
  C102     1.0000 0.26420  0.70420  0.09570  Biso   1.000  C
  C103     1.0000 0.31010  0.67490  0.15080  Biso   1.000  C
  H60      1.0000 0.32650  0.69260  0.14310  Biso   1.000  H
  C104     1.0000 0.31970  0.64730  0.18270  Biso   1.000  C
  H61      1.0000 0.34220  0.64720  0.19690  Biso   1.000  H
  C105     1.0000 0.36025  0.56930  0.26180  Biso   1.000  C
  H62      1.0000 0.35050  0.57330  0.29270  Biso   1.000  H
  C106     1.0000 0.39406  0.55430  0.25750  Biso   1.000  C
  H63      1.0000 0.40660  0.54820  0.28570  Biso   1.000  H
  C107     1.0000 0.06345  0.53176  0.31350  Biso   1.000  C
  C108     1.0000 0.09906  0.54929  0.31920  Biso   1.000  C
  C109     1.0000 0.11191  0.55950  0.36420  Biso   1.000  C
  H64      1.0000 0.09760  0.55690  0.39190  Biso   1.000  H
  C110     1.0000 0.14581  0.57340  0.36870  Biso   1.000  C
  H65      1.0000 0.15430  0.58000  0.39940  Biso   1.000  H
  C111     1.0000 0.16710  0.57770  0.32810  Biso   1.000  C
  C112     1.0000 0.15419  0.56770  0.28240  Biso   1.000  C
  H66      1.0000 0.16860  0.57040  0.25490  Biso   1.000  H
  C113     1.0000 0.12091  0.55400  0.27750  Biso   1.000  C
  H67      1.0000 0.11240  0.54770  0.24660  Biso   1.000  H
  N12      1.0000 0.20234  0.59180  0.33240  Biso   1.000  N
  C114     1.0000 0.21071  0.62060  0.36460  Biso   1.000  C
  C115     1.0000 0.24412  0.62230  0.38760  Biso   1.000  C
  H68      1.0000 0.26080  0.60460  0.38090  Biso   1.000  H
  C116     1.0000 0.25280  0.64750  0.41780  Biso   1.000  C
  H69      1.0000 0.27570  0.64800  0.43110  Biso   1.000  H
  C117     1.0000 0.22740  0.67460  0.43100  Biso   1.000  C
  C118     1.0000 0.23640  0.70340  0.46680  Biso   1.000  C
  C119     1.0000 0.19384  0.67330  0.40850  Biso   1.000  C
  H70      1.0000 0.17660  0.69030  0.41610  Biso   1.000  H
  C120     1.0000 0.18610  0.64620  0.37460  Biso   1.000  C
  H71      1.0000 0.16410  0.64590  0.35880  Biso   1.000  H
  C121     1.0000 0.45140  0.38995  0.26520  Biso   1.000  C
  H72      1.0000 0.45880  0.40240  0.29300  Biso   1.000  H
  C122     1.0000 0.43560  0.35620  0.27020  Biso   1.000  C
  H73      1.0000 0.43280  0.34630  0.30120  Biso   1.000  H
  C123     1.0000 0.38046  0.29276  0.20430  Biso   1.000  C
  C124     1.0000 0.35240  0.31661  0.19390  Biso   1.000  C
  H74      1.0000 0.35210  0.33900  0.20870  Biso   1.000  H
  C125     1.0000 0.32550  0.30721  0.16230  Biso   1.000  C
  H75      1.0000 0.30760  0.32350  0.15500  Biso   1.000  H
  C126     1.0000 0.32490  0.27470  0.14180  Biso   1.000  C
  C127     1.0000 0.29550  0.26570  0.10450  Biso   1.000  C
  C128     1.0000 0.35180  0.25060  0.15200  Biso   1.000  C
  H76      1.0000 0.35090  0.22780  0.13830  Biso   1.000  H
  C129     1.0000 0.37940  0.25945  0.18160  Biso   1.000  C
  H77      1.0000 0.39770  0.24320  0.18690  Biso   1.000  H
  C130     1.0000 0.46360  0.27680  0.26550  Biso   1.000  C
  H78      1.0000 0.47660  0.29430  0.24910  Biso   1.000  H
  C131     1.0000 0.48110  0.25020  0.29170  Biso   1.000  C
  H79      1.0000 0.50590  0.24980  0.29190  Biso   1.000  H
  C132     1.0000 0.46340  0.22550  0.31650  Biso   1.000  C
  H80      1.0000 0.47560  0.20850  0.33490  Biso   1.000  H
  C133     1.0000 0.41925  0.16247  0.33690  Biso   1.000  C
  C134     1.0000 0.42640  0.14894  0.28970  Biso   1.000  C
  H81      1.0000 0.42080  0.16260  0.26220  Biso   1.000  H
  C135     1.0000 0.44140  0.11555  0.28370  Biso   1.000  C
  H82      1.0000 0.44670  0.10710  0.25240  Biso   1.000  H
  C136     1.0000 0.44874  0.09473  0.32440  Biso   1.000  C
  C137     1.0000 0.46556  0.05926  0.31700  Biso   1.000  C
  C138     1.0000 0.44080  0.10741  0.37170  Biso   1.000  C
  H83      1.0000 0.44560  0.09340  0.39910  Biso   1.000  H
  C139     1.0000 0.42550  0.14152  0.37720  Biso   1.000  C
  H84      1.0000 0.41970  0.14990  0.40830  Biso   1.000  H
  C140     1.0000 0.37922  0.20699  0.37460  Biso   1.000  C
  C141     1.0000 0.35280  0.18225  0.38640  Biso   1.000  C
  H85      1.0000 0.35380  0.15950  0.37290  Biso   1.000  H
  C142     1.0000 0.32590  0.19075  0.41700  Biso   1.000  C
  H86      1.0000 0.30810  0.17410  0.42340  Biso   1.000  H
  C143     1.0000 0.32474  0.22422  0.43900  Biso   1.000  C
  C144     1.0000 0.29580  0.23320  0.47570  Biso   1.000  C
  C145     1.0000 0.34940  0.24800  0.42790  Biso   1.000  C
  H87      1.0000 0.34790  0.27080  0.44150  Biso   1.000  H
  C146     1.0000 0.37780  0.23994  0.39620  Biso   1.000  C
  H88      1.0000 0.39540  0.25680  0.39000  Biso   1.000  H
  N13      1.0000 0.52457  0.51039  0.31800  Biso   1.000  N
  C147     1.0000 0.50770  0.49960  0.36220  Biso   1.000  C
  H89      1.0000 0.48690  0.48600  0.36460  Biso   1.000  H
  N14      1.0000 0.52800  0.51300  0.40206  Biso   1.000  N
  C148     1.0000 0.55750  0.53220  0.38250  Biso   1.000  C
  H90      1.0000 0.57510  0.54380  0.40050  Biso   1.000  H
  C149     1.0000 0.55540  0.53050  0.33050  Biso   1.000  C
  H91      1.0000 0.57130  0.54090  0.30850  Biso   1.000  H
  N15      1.0000 0.28180  0.16215  0.04050  Biso   1.000  N
  C150     1.0000 0.31010  0.14980  0.07090  Biso   1.000  C
  H92      1.0000 0.31950  0.16180  0.09790  Biso   1.000  H
  N16      1.0000 0.32130  0.11610  0.05290  Biso   1.000  N
  C151     1.0000 0.30010  0.10750  0.01140  Biso   1.000  C
  H93      1.0000 0.30190  0.08690  0.99250  Biso   1.000  H
  C152     1.0000 0.27570  0.13600  0.00370  Biso   1.000  C
  H94      1.0000 0.25870  0.13730  0.97890  Biso   1.000  H
  C153     1.0000 0.51190  0.50470  0.45320  Biso   1.000  C
  C154     1.0000 0.53450  0.50860  0.49050  Biso   1.000  C
  H95      1.0000 0.55800  0.51490  0.48400  Biso   1.000  H
  C155     1.0000 0.35510  0.09780  0.07510  Biso   1.000  C
  C156     1.0000 0.47570  0.49630  0.46290  Biso   1.000  C
  H96      1.0000 0.45930  0.49420  0.43740  Biso   1.000  H
  Cu8      1.0000 0.21660  0.73891  0.03072  Biso   1.000  Cu
  Cu9      1.0000 0.99898  0.50335  0.35042  Biso   1.000  Cu
  Cu10     1.0000 0.00911  0.49795  0.25387  Biso   1.000  Cu
  Cu11     1.0000 0.76144  0.78367  0.46001  Biso   1.000  Cu
  N17      1.0000 0.90659  0.80135  0.15820  Biso   1.000  N
  N18      1.0000 0.90818  0.69675  0.26400  Biso   1.000  N
  N19      1.0000 0.80555  0.40888  0.27540  Biso   1.000  N
  O33      1.0000 0.97480  0.54760  0.32946  Biso   1.000  O
  O34      1.0000 0.95503  0.47601  0.33530  Biso   1.000  O
  O35      1.0000 0.73384  0.29492  0.41880  Biso   1.000  O
  O36      1.0000 0.79009  0.27551  0.41830  Biso   1.000  O
  O37      1.0000 0.96111  0.47570  0.25422  Biso   1.000  O
  O38      1.0000 0.98543  0.54553  0.24899  Biso   1.000  O
  O39      1.0000 0.55450  0.47811  0.22816  Biso   1.000  O
  O40      1.0000 0.76728  0.29443  0.01980  Biso   1.000  O
  O41      1.0000 0.71113  0.27646  0.02110  Biso   1.000  O
  O42      1.0000 0.54467  0.47111  0.14796  Biso   1.000  O
  O43      1.0000 0.79502  0.76665  0.41090  Biso   1.000  O
  O44      1.0000 0.77487  0.71020  0.40970  Biso   1.000  O
  O45      1.0000 0.97472  0.95707  0.14320  Biso   1.000  O
  O46      1.0000 0.97010  0.95143  0.22487  Biso   1.000  O
  O47      1.0000 0.77528  0.79159  0.00950  Biso   1.000  O
  O48      1.0000 0.79418  0.73482  0.00980  Biso   1.000  O
  C157     1.0000 0.92609  0.77466  0.18530  Biso   1.000  C
  C158     1.0000 0.90844  0.74868  0.21160  Biso   1.000  C
  H97      1.0000 0.88360  0.74870  0.21270  Biso   1.000  H
  C159     1.0000 0.92703  0.72308  0.23610  Biso   1.000  C
  C160     1.0000 0.92403  0.66252  0.27100  Biso   1.000  C
  C161     1.0000 0.92690  0.64630  0.31570  Biso   1.000  C
  H98      1.0000 0.91780  0.65790  0.34320  Biso   1.000  H
  C162     1.0000 0.94260  0.61355  0.32160  Biso   1.000  C
  H99      1.0000 0.94440  0.60350  0.35270  Biso   1.000  H
  C163     1.0000 0.95601  0.59513  0.28110  Biso   1.000  C
  C164     1.0000 0.97286  0.56006  0.28710  Biso   1.000  C
  C165     1.0000 0.94442  0.46924  0.29290  Biso   1.000  C
  C166     1.0000 0.90920  0.45164  0.28750  Biso   1.000  C
  C167     1.0000 0.88990  0.44230  0.32800  Biso   1.000  C
  H100     1.0000 0.90030  0.44530  0.35870  Biso   1.000  H
  C168     1.0000 0.85550  0.42840  0.32570  Biso   1.000  C
  H101     1.0000 0.84250  0.42360  0.35390  Biso   1.000  H
  C169     1.0000 0.84142  0.42210  0.27880  Biso   1.000  C
  C170     1.0000 0.78114  0.42700  0.24660  Biso   1.000  C
  C171     1.0000 0.75462  0.40870  0.22030  Biso   1.000  C
  H102     1.0000 0.75390  0.38390  0.22100  Biso   1.000  H
  C172     1.0000 0.73000  0.42720  0.19370  Biso   1.000  C
  C173     1.0000 0.73150  0.46440  0.19090  Biso   1.000  C
  H103     1.0000 0.71480  0.47690  0.17250  Biso   1.000  H
  C174     1.0000 0.75750  0.48200  0.21520  Biso   1.000  C
  H104     1.0000 0.75930  0.50670  0.21250  Biso   1.000  H
  C175     1.0000 0.78180  0.46300  0.24460  Biso   1.000  C
  H105     1.0000 0.79860  0.47550  0.26300  Biso   1.000  H
  C176     1.0000 0.79570  0.38020  0.30670  Biso   1.000  C
  C177     1.0000 0.76240  0.37900  0.32720  Biso   1.000  C
  H106     1.0000 0.74640  0.39730  0.31990  Biso   1.000  H
  C178     1.0000 0.75130  0.35210  0.35800  Biso   1.000  C
  H107     1.0000 0.72840  0.35200  0.37110  Biso   1.000  H
  C179     1.0000 0.77600  0.32400  0.36940  Biso   1.000  C
  C180     1.0000 0.76420  0.29580  0.40430  Biso   1.000  C
  C181     1.0000 0.81010  0.32510  0.34920  Biso   1.000  C
  H108     1.0000 0.82650  0.30740  0.35690  Biso   1.000  H
  C182     1.0000 0.81970  0.35270  0.31730  Biso   1.000  C
  H109     1.0000 0.84220  0.35280  0.30310  Biso   1.000  H
  C183     1.0000 0.86025  0.43070  0.23820  Biso   1.000  C
  H110     1.0000 0.85050  0.42670  0.20730  Biso   1.000  H
  C184     1.0000 0.89406  0.44570  0.24250  Biso   1.000  C
  H111     1.0000 0.90660  0.45180  0.21430  Biso   1.000  H
  C185     1.0000 0.56345  0.46824  0.18650  Biso   1.000  C
  C186     1.0000 0.59906  0.45071  0.18080  Biso   1.000  C
  C187     1.0000 0.61191  0.44050  0.13580  Biso   1.000  C
  H112     1.0000 0.59760  0.44310  0.10810  Biso   1.000  H
  C188     1.0000 0.64581  0.42660  0.13130  Biso   1.000  C
  H113     1.0000 0.65430  0.42000  0.10060  Biso   1.000  H
  C189     1.0000 0.66710  0.42230  0.17190  Biso   1.000  C
  C190     1.0000 0.65419  0.43230  0.21760  Biso   1.000  C
  H114     1.0000 0.66860  0.42960  0.24510  Biso   1.000  H
  C191     1.0000 0.62091  0.44600  0.22250  Biso   1.000  C
  H115     1.0000 0.61240  0.45230  0.25340  Biso   1.000  H
  N20      1.0000 0.70234  0.40820  0.16760  Biso   1.000  N
  C192     1.0000 0.71071  0.37940  0.13540  Biso   1.000  C
  C193     1.0000 0.74412  0.37770  0.11240  Biso   1.000  C
  H116     1.0000 0.76080  0.39540  0.11910  Biso   1.000  H
  C194     1.0000 0.75280  0.35250  0.08220  Biso   1.000  C
  H117     1.0000 0.77570  0.35200  0.06890  Biso   1.000  H
  C195     1.0000 0.72740  0.32540  0.06900  Biso   1.000  C
  C196     1.0000 0.73640  0.29660  0.03320  Biso   1.000  C
  C197     1.0000 0.69384  0.32670  0.09150  Biso   1.000  C
  H118     1.0000 0.67660  0.30970  0.08390  Biso   1.000  H
  C198     1.0000 0.68610  0.35380  0.12540  Biso   1.000  C
  H119     1.0000 0.66410  0.35410  0.14120  Biso   1.000  H
  C199     1.0000 0.95140  0.61005  0.23480  Biso   1.000  C
  H120     1.0000 0.95880  0.59760  0.20700  Biso   1.000  H
  C200     1.0000 0.93560  0.64380  0.22980  Biso   1.000  C
  H121     1.0000 0.93280  0.65370  0.19880  Biso   1.000  H
  C201     1.0000 0.88046  0.70724  0.29570  Biso   1.000  C
  C202     1.0000 0.85240  0.68339  0.30610  Biso   1.000  C
  H122     1.0000 0.85210  0.66100  0.29130  Biso   1.000  H
  C203     1.0000 0.82550  0.69279  0.33770  Biso   1.000  C
  H123     1.0000 0.80760  0.67650  0.34500  Biso   1.000  H
  C204     1.0000 0.82490  0.72530  0.35820  Biso   1.000  C
  C205     1.0000 0.79550  0.73430  0.39550  Biso   1.000  C
  C206     1.0000 0.85180  0.74940  0.34800  Biso   1.000  C
  H124     1.0000 0.85090  0.77220  0.36170  Biso   1.000  H
  C207     1.0000 0.87940  0.74055  0.31840  Biso   1.000  C
  H125     1.0000 0.89770  0.75680  0.31310  Biso   1.000  H
  C208     1.0000 0.96360  0.72320  0.23450  Biso   1.000  C
  H126     1.0000 0.97660  0.70570  0.25090  Biso   1.000  H
  C209     1.0000 0.98110  0.74980  0.20830  Biso   1.000  C
  H127     1.0000 0.00590  0.75020  0.20810  Biso   1.000  H
  C210     1.0000 0.96340  0.77450  0.18350  Biso   1.000  C
  H128     1.0000 0.97560  0.79150  0.16510  Biso   1.000  H
  C211     1.0000 0.91925  0.83753  0.16310  Biso   1.000  C
  C212     1.0000 0.92640  0.85106  0.21030  Biso   1.000  C
  H129     1.0000 0.92080  0.83740  0.23780  Biso   1.000  H
  C213     1.0000 0.94140  0.88445  0.21630  Biso   1.000  C
  H130     1.0000 0.94670  0.89290  0.24760  Biso   1.000  H
  C214     1.0000 0.94874  0.90527  0.17560  Biso   1.000  C
  C215     1.0000 0.96556  0.94074  0.18300  Biso   1.000  C
  C216     1.0000 0.94080  0.89259  0.12830  Biso   1.000  C
  H131     1.0000 0.94560  0.90660  0.10090  Biso   1.000  H
  C217     1.0000 0.92550  0.85848  0.12280  Biso   1.000  C
  H132     1.0000 0.91970  0.85010  0.09170  Biso   1.000  H
  C218     1.0000 0.87922  0.79301  0.12540  Biso   1.000  C
  C219     1.0000 0.85280  0.81775  0.11360  Biso   1.000  C
  H133     1.0000 0.85380  0.84050  0.12710  Biso   1.000  H
  C220     1.0000 0.82590  0.80925  0.08300  Biso   1.000  C
  H134     1.0000 0.80810  0.82590  0.07660  Biso   1.000  H
  C221     1.0000 0.82474  0.77578  0.06100  Biso   1.000  C
  C222     1.0000 0.79580  0.76680  0.02430  Biso   1.000  C
  C223     1.0000 0.84940  0.75200  0.07210  Biso   1.000  C
  H135     1.0000 0.84790  0.72920  0.05850  Biso   1.000  H
  C224     1.0000 0.87780  0.76006  0.10380  Biso   1.000  C
  H136     1.0000 0.89540  0.74320  0.11000  Biso   1.000  H
  N21      1.0000 0.02457  0.48961  0.18200  Biso   1.000  N
  C225     1.0000 0.00770  0.50040  0.13780  Biso   1.000  C
  H137     1.0000 0.98690  0.51400  0.13540  Biso   1.000  H
  N22      1.0000 0.02800  0.48700  0.09794  Biso   1.000  N
  C226     1.0000 0.05750  0.46780  0.11750  Biso   1.000  C
  H138     1.0000 0.07510  0.45620  0.09950  Biso   1.000  H
  C227     1.0000 0.05540  0.46950  0.16950  Biso   1.000  C
  H139     1.0000 0.07130  0.45910  0.19150  Biso   1.000  H
  N23      1.0000 0.78180  0.83785  0.45950  Biso   1.000  N
  C228     1.0000 0.81010  0.85020  0.42910  Biso   1.000  C
  H140     1.0000 0.81950  0.83820  0.40210  Biso   1.000  H
  N24      1.0000 0.82130  0.88390  0.44710  Biso   1.000  N
  C229     1.0000 0.80010  0.89250  0.48860  Biso   1.000  C
  H141     1.0000 0.80190  0.91310  0.50750  Biso   1.000  H
  C230     1.0000 0.77570  0.86400  0.49630  Biso   1.000  C
  H142     1.0000 0.75870  0.86270  0.52110  Biso   1.000  H
  C231     1.0000 0.01190  0.49530  0.04680  Biso   1.000  C
  C232     1.0000 0.03450  0.49140  0.00950  Biso   1.000  C
  H143     1.0000 0.05800  0.48510  0.01600  Biso   1.000  H
  C233     1.0000 0.85510  0.90220  0.42490  Biso   1.000  C
  C234     1.0000 0.97570  0.50370  0.03710  Biso   1.000  C
  H144     1.0000 0.95930  0.50580  0.06260  Biso   1.000  H
  Cu12     1.0000 0.71660  0.26109  0.46928  Biso   1.000  Cu
  Cu13     1.0000 0.50102  0.99665  0.35042  Biso   1.000  Cu
  Cu14     1.0000 0.49089  0.00205  0.25387  Biso   1.000  Cu
  Cu15     1.0000 0.73856  0.71633  0.46001  Biso   1.000  Cu
  N25      1.0000 0.59341  0.69865  0.15820  Biso   1.000  N
  N26      1.0000 0.59182  0.80325  0.26400  Biso   1.000  N
  N27      1.0000 0.69445  0.09112  0.27540  Biso   1.000  N
  O49      1.0000 0.52520  0.95240  0.32946  Biso   1.000  O
  O50      1.0000 0.54497  0.02399  0.33530  Biso   1.000  O
  O51      1.0000 0.76616  0.20508  0.41880  Biso   1.000  O
  O52      1.0000 0.70991  0.22449  0.41830  Biso   1.000  O
  O53      1.0000 0.53889  0.02430  0.25422  Biso   1.000  O
  O54      1.0000 0.51457  0.95447  0.24899  Biso   1.000  O
  O55      1.0000 0.94550  0.02189  0.22816  Biso   1.000  O
  O56      1.0000 0.73272  0.20557  0.01980  Biso   1.000  O
  O57      1.0000 0.78887  0.22354  0.02110  Biso   1.000  O
  O58      1.0000 0.95533  0.02889  0.14796  Biso   1.000  O
  O59      1.0000 0.70498  0.73335  0.41090  Biso   1.000  O
  O60      1.0000 0.72513  0.78980  0.40970  Biso   1.000  O
  O61      1.0000 0.52528  0.54293  0.14320  Biso   1.000  O
  O62      1.0000 0.52990  0.54857  0.22487  Biso   1.000  O
  O63      1.0000 0.72472  0.70841  0.00950  Biso   1.000  O
  O64      1.0000 0.70582  0.76518  0.00980  Biso   1.000  O
  C235     1.0000 0.57391  0.72534  0.18530  Biso   1.000  C
  C236     1.0000 0.59156  0.75132  0.21160  Biso   1.000  C
  H145     1.0000 0.61640  0.75130  0.21270  Biso   1.000  H
  C237     1.0000 0.57297  0.77692  0.23610  Biso   1.000  C
  C238     1.0000 0.57597  0.83748  0.27100  Biso   1.000  C
  C239     1.0000 0.57310  0.85370  0.31570  Biso   1.000  C
  H146     1.0000 0.58220  0.84210  0.34320  Biso   1.000  H
  C240     1.0000 0.55740  0.88645  0.32160  Biso   1.000  C
  H147     1.0000 0.55560  0.89650  0.35270  Biso   1.000  H
  C241     1.0000 0.54399  0.90487  0.28110  Biso   1.000  C
  C242     1.0000 0.52714  0.93994  0.28710  Biso   1.000  C
  C243     1.0000 0.55558  0.03076  0.29290  Biso   1.000  C
  C244     1.0000 0.59080  0.04836  0.28750  Biso   1.000  C
  C245     1.0000 0.61010  0.05770  0.32800  Biso   1.000  C
  H148     1.0000 0.59970  0.05470  0.35870  Biso   1.000  H
  C246     1.0000 0.64450  0.07160  0.32570  Biso   1.000  C
  H149     1.0000 0.65750  0.07640  0.35390  Biso   1.000  H
  C247     1.0000 0.65858  0.07790  0.27880  Biso   1.000  C
  C248     1.0000 0.71886  0.07300  0.24660  Biso   1.000  C
  C249     1.0000 0.74538  0.09130  0.22030  Biso   1.000  C
  H150     1.0000 0.74610  0.11610  0.22100  Biso   1.000  H
  C250     1.0000 0.77000  0.07280  0.19370  Biso   1.000  C
  C251     1.0000 0.76850  0.03560  0.19090  Biso   1.000  C
  H151     1.0000 0.78520  0.02310  0.17250  Biso   1.000  H
  C252     1.0000 0.74250  0.01800  0.21520  Biso   1.000  C
  H152     1.0000 0.74070  0.99330  0.21250  Biso   1.000  H
  C253     1.0000 0.71820  0.03700  0.24460  Biso   1.000  C
  H153     1.0000 0.70140  0.02450  0.26300  Biso   1.000  H
  C254     1.0000 0.70430  0.11980  0.30670  Biso   1.000  C
  C255     1.0000 0.73760  0.12100  0.32720  Biso   1.000  C
  H154     1.0000 0.75360  0.10270  0.31990  Biso   1.000  H
  C256     1.0000 0.74870  0.14790  0.35800  Biso   1.000  C
  H155     1.0000 0.77160  0.14800  0.37110  Biso   1.000  H
  C257     1.0000 0.72400  0.17600  0.36940  Biso   1.000  C
  C258     1.0000 0.73580  0.20420  0.40430  Biso   1.000  C
  C259     1.0000 0.68990  0.17490  0.34920  Biso   1.000  C
  H156     1.0000 0.67350  0.19260  0.35690  Biso   1.000  H
  C260     1.0000 0.68030  0.14730  0.31730  Biso   1.000  C
  H157     1.0000 0.65780  0.14720  0.30310  Biso   1.000  H
  C261     1.0000 0.63975  0.06930  0.23820  Biso   1.000  C
  H158     1.0000 0.64950  0.07330  0.20730  Biso   1.000  H
  C262     1.0000 0.60594  0.05430  0.24250  Biso   1.000  C
  H159     1.0000 0.59340  0.04820  0.21430  Biso   1.000  H
  C263     1.0000 0.93655  0.03176  0.18650  Biso   1.000  C
  C264     1.0000 0.90094  0.04929  0.18080  Biso   1.000  C
  C265     1.0000 0.88809  0.05950  0.13580  Biso   1.000  C
  H160     1.0000 0.90240  0.05690  0.10810  Biso   1.000  H
  C266     1.0000 0.85419  0.07340  0.13130  Biso   1.000  C
  H161     1.0000 0.84570  0.08000  0.10060  Biso   1.000  H
  C267     1.0000 0.83290  0.07770  0.17190  Biso   1.000  C
  C268     1.0000 0.84581  0.06770  0.21760  Biso   1.000  C
  H162     1.0000 0.83140  0.07040  0.24510  Biso   1.000  H
  C269     1.0000 0.87909  0.05400  0.22250  Biso   1.000  C
  H163     1.0000 0.88760  0.04770  0.25340  Biso   1.000  H
  N28      1.0000 0.79766  0.09180  0.16760  Biso   1.000  N
  C270     1.0000 0.78929  0.12060  0.13540  Biso   1.000  C
  C271     1.0000 0.75588  0.12230  0.11240  Biso   1.000  C
  H164     1.0000 0.73920  0.10460  0.11910  Biso   1.000  H
  C272     1.0000 0.74720  0.14750  0.08220  Biso   1.000  C
  H165     1.0000 0.72430  0.14800  0.06890  Biso   1.000  H
  C273     1.0000 0.77260  0.17460  0.06900  Biso   1.000  C
  C274     1.0000 0.76360  0.20340  0.03320  Biso   1.000  C
  C275     1.0000 0.80616  0.17330  0.09150  Biso   1.000  C
  H166     1.0000 0.82340  0.19030  0.08390  Biso   1.000  H
  C276     1.0000 0.81390  0.14620  0.12540  Biso   1.000  C
  H167     1.0000 0.83590  0.14590  0.14120  Biso   1.000  H
  C277     1.0000 0.54860  0.88995  0.23480  Biso   1.000  C
  H168     1.0000 0.54120  0.90240  0.20700  Biso   1.000  H
  C278     1.0000 0.56440  0.85620  0.22980  Biso   1.000  C
  H169     1.0000 0.56720  0.84630  0.19880  Biso   1.000  H
  C279     1.0000 0.61954  0.79276  0.29570  Biso   1.000  C
  C280     1.0000 0.64760  0.81661  0.30610  Biso   1.000  C
  H170     1.0000 0.64790  0.83900  0.29130  Biso   1.000  H
  C281     1.0000 0.67450  0.80721  0.33770  Biso   1.000  C
  H171     1.0000 0.69240  0.82350  0.34500  Biso   1.000  H
  C282     1.0000 0.67510  0.77470  0.35820  Biso   1.000  C
  C283     1.0000 0.70450  0.76570  0.39550  Biso   1.000  C
  C284     1.0000 0.64820  0.75060  0.34800  Biso   1.000  C
  H172     1.0000 0.64910  0.72780  0.36170  Biso   1.000  H
  C285     1.0000 0.62060  0.75945  0.31840  Biso   1.000  C
  H173     1.0000 0.60230  0.74320  0.31310  Biso   1.000  H
  C286     1.0000 0.53640  0.77680  0.23450  Biso   1.000  C
  H174     1.0000 0.52340  0.79430  0.25090  Biso   1.000  H
  C287     1.0000 0.51890  0.75020  0.20830  Biso   1.000  C
  H175     1.0000 0.49410  0.74980  0.20810  Biso   1.000  H
  C288     1.0000 0.53660  0.72550  0.18350  Biso   1.000  C
  H176     1.0000 0.52440  0.70850  0.16510  Biso   1.000  H
  C289     1.0000 0.58075  0.66247  0.16310  Biso   1.000  C
  C290     1.0000 0.57360  0.64894  0.21030  Biso   1.000  C
  H177     1.0000 0.57920  0.66260  0.23780  Biso   1.000  H
  C291     1.0000 0.55860  0.61555  0.21630  Biso   1.000  C
  H178     1.0000 0.55330  0.60710  0.24760  Biso   1.000  H
  C292     1.0000 0.55126  0.59473  0.17560  Biso   1.000  C
  C293     1.0000 0.53444  0.55926  0.18300  Biso   1.000  C
  C294     1.0000 0.55920  0.60741  0.12830  Biso   1.000  C
  H179     1.0000 0.55440  0.59340  0.10090  Biso   1.000  H
  C295     1.0000 0.57450  0.64152  0.12280  Biso   1.000  C
  H180     1.0000 0.58030  0.64990  0.09170  Biso   1.000  H
  C296     1.0000 0.62078  0.70699  0.12540  Biso   1.000  C
  C297     1.0000 0.64720  0.68225  0.11360  Biso   1.000  C
  H181     1.0000 0.64620  0.65950  0.12710  Biso   1.000  H
  C298     1.0000 0.67410  0.69075  0.08300  Biso   1.000  C
  H182     1.0000 0.69190  0.67410  0.07660  Biso   1.000  H
  C299     1.0000 0.67526  0.72422  0.06100  Biso   1.000  C
  C300     1.0000 0.70420  0.73320  0.02430  Biso   1.000  C
  C301     1.0000 0.65060  0.74800  0.07210  Biso   1.000  C
  H183     1.0000 0.65210  0.77080  0.05850  Biso   1.000  H
  C302     1.0000 0.62220  0.73994  0.10380  Biso   1.000  C
  H184     1.0000 0.60460  0.75680  0.11000  Biso   1.000  H
  N29      1.0000 0.47543  0.01039  0.18200  Biso   1.000  N
  C303     1.0000 0.49230  0.99960  0.13780  Biso   1.000  C
  H185     1.0000 0.51310  0.98600  0.13540  Biso   1.000  H
  N30      1.0000 0.47200  0.01300  0.09794  Biso   1.000  N
  C304     1.0000 0.44250  0.03220  0.11750  Biso   1.000  C
  H186     1.0000 0.42490  0.04380  0.09950  Biso   1.000  H
  C305     1.0000 0.44460  0.03050  0.16950  Biso   1.000  C
  H187     1.0000 0.42870  0.04090  0.19150  Biso   1.000  H
  N31      1.0000 0.71820  0.66215  0.45950  Biso   1.000  N
  C306     1.0000 0.68990  0.64980  0.42910  Biso   1.000  C
  H188     1.0000 0.68050  0.66180  0.40210  Biso   1.000  H
  N32      1.0000 0.67870  0.61610  0.44710  Biso   1.000  N
  C307     1.0000 0.69990  0.60750  0.48860  Biso   1.000  C
  H189     1.0000 0.69810  0.58690  0.50750  Biso   1.000  H
  C308     1.0000 0.72430  0.63600  0.49630  Biso   1.000  C
  H190     1.0000 0.74130  0.63730  0.52110  Biso   1.000  H
  C309     1.0000 0.48810  0.00470  0.04680  Biso   1.000  C
  C310     1.0000 0.46550  0.00860  0.00950  Biso   1.000  C
  H191     1.0000 0.44200  0.01490  0.01600  Biso   1.000  H
  C311     1.0000 0.64490  0.59780  0.42490  Biso   1.000  C
  C312     1.0000 0.52430  0.99630  0.03710  Biso   1.000  C
  H192     1.0000 0.54070  0.99420  0.06260  Biso   1.000  H
  Cu16     1.0000 0.78340  0.23891  0.46928  Biso   1.000  Cu
  Cu17     1.0000 0.99898  0.99665  0.85042  Biso   1.000  Cu
  Cu18     1.0000 0.00911  0.00205  0.75387  Biso   1.000  Cu
  Cu19     1.0000 0.76144  0.71633  0.96001  Biso   1.000  Cu
  N33      1.0000 0.90659  0.69865  0.65820  Biso   1.000  N
  N34      1.0000 0.90818  0.80325  0.76400  Biso   1.000  N
  N35      1.0000 0.80555  0.09112  0.77540  Biso   1.000  N
  O65      1.0000 0.97480  0.95240  0.82946  Biso   1.000  O
  O66      1.0000 0.95503  0.02399  0.83530  Biso   1.000  O
  O67      1.0000 0.73384  0.20508  0.91880  Biso   1.000  O
  O68      1.0000 0.79009  0.22449  0.91830  Biso   1.000  O
  O69      1.0000 0.96111  0.02430  0.75422  Biso   1.000  O
  O70      1.0000 0.98543  0.95447  0.74899  Biso   1.000  O
  O71      1.0000 0.55450  0.02189  0.72816  Biso   1.000  O
  O72      1.0000 0.76728  0.20557  0.51980  Biso   1.000  O
  O73      1.0000 0.71113  0.22354  0.52110  Biso   1.000  O
  O74      1.0000 0.54467  0.02889  0.64796  Biso   1.000  O
  O75      1.0000 0.79502  0.73335  0.91090  Biso   1.000  O
  O76      1.0000 0.77487  0.78980  0.90970  Biso   1.000  O
  O77      1.0000 0.97472  0.54293  0.64320  Biso   1.000  O
  O78      1.0000 0.97010  0.54857  0.72487  Biso   1.000  O
  O79      1.0000 0.77528  0.70841  0.50950  Biso   1.000  O
  O80      1.0000 0.79418  0.76518  0.50980  Biso   1.000  O
  C313     1.0000 0.92609  0.72534  0.68530  Biso   1.000  C
  C314     1.0000 0.90844  0.75132  0.71160  Biso   1.000  C
  H193     1.0000 0.88360  0.75130  0.71270  Biso   1.000  H
  C315     1.0000 0.92703  0.77692  0.73610  Biso   1.000  C
  C316     1.0000 0.92403  0.83748  0.77100  Biso   1.000  C
  C317     1.0000 0.92690  0.85370  0.81570  Biso   1.000  C
  H194     1.0000 0.91780  0.84210  0.84320  Biso   1.000  H
  C318     1.0000 0.94260  0.88645  0.82160  Biso   1.000  C
  H195     1.0000 0.94440  0.89650  0.85270  Biso   1.000  H
  C319     1.0000 0.95601  0.90487  0.78110  Biso   1.000  C
  C320     1.0000 0.97286  0.93994  0.78710  Biso   1.000  C
  C321     1.0000 0.94442  0.03076  0.79290  Biso   1.000  C
  C322     1.0000 0.90920  0.04836  0.78750  Biso   1.000  C
  C323     1.0000 0.88990  0.05770  0.82800  Biso   1.000  C
  H196     1.0000 0.90030  0.05470  0.85870  Biso   1.000  H
  C324     1.0000 0.85550  0.07160  0.82570  Biso   1.000  C
  H197     1.0000 0.84250  0.07640  0.85390  Biso   1.000  H
  C325     1.0000 0.84142  0.07790  0.77880  Biso   1.000  C
  C326     1.0000 0.78114  0.07300  0.74660  Biso   1.000  C
  C327     1.0000 0.75462  0.09130  0.72030  Biso   1.000  C
  H198     1.0000 0.75390  0.11610  0.72100  Biso   1.000  H
  C328     1.0000 0.73000  0.07280  0.69370  Biso   1.000  C
  C329     1.0000 0.73150  0.03560  0.69090  Biso   1.000  C
  H199     1.0000 0.71480  0.02310  0.67250  Biso   1.000  H
  C330     1.0000 0.75750  0.01800  0.71520  Biso   1.000  C
  H200     1.0000 0.75930  0.99330  0.71250  Biso   1.000  H
  C331     1.0000 0.78180  0.03700  0.74460  Biso   1.000  C
  H201     1.0000 0.79860  0.02450  0.76300  Biso   1.000  H
  C332     1.0000 0.79570  0.11980  0.80670  Biso   1.000  C
  C333     1.0000 0.76240  0.12100  0.82720  Biso   1.000  C
  H202     1.0000 0.74640  0.10270  0.81990  Biso   1.000  H
  C334     1.0000 0.75130  0.14790  0.85800  Biso   1.000  C
  H203     1.0000 0.72840  0.14800  0.87110  Biso   1.000  H
  C335     1.0000 0.77600  0.17600  0.86940  Biso   1.000  C
  C336     1.0000 0.76420  0.20420  0.90430  Biso   1.000  C
  C337     1.0000 0.81010  0.17490  0.84920  Biso   1.000  C
  H204     1.0000 0.82650  0.19260  0.85690  Biso   1.000  H
  C338     1.0000 0.81970  0.14730  0.81730  Biso   1.000  C
  H205     1.0000 0.84220  0.14720  0.80310  Biso   1.000  H
  C339     1.0000 0.86025  0.06930  0.73820  Biso   1.000  C
  H206     1.0000 0.85050  0.07330  0.70730  Biso   1.000  H
  C340     1.0000 0.89406  0.05430  0.74250  Biso   1.000  C
  H207     1.0000 0.90660  0.04820  0.71430  Biso   1.000  H
  C341     1.0000 0.56345  0.03176  0.68650  Biso   1.000  C
  C342     1.0000 0.59906  0.04929  0.68080  Biso   1.000  C
  C343     1.0000 0.61191  0.05950  0.63580  Biso   1.000  C
  H208     1.0000 0.59760  0.05690  0.60810  Biso   1.000  H
  C344     1.0000 0.64581  0.07340  0.63130  Biso   1.000  C
  H209     1.0000 0.65430  0.08000  0.60060  Biso   1.000  H
  C345     1.0000 0.66710  0.07770  0.67190  Biso   1.000  C
  C346     1.0000 0.65419  0.06770  0.71760  Biso   1.000  C
  H210     1.0000 0.66860  0.07040  0.74510  Biso   1.000  H
  C347     1.0000 0.62091  0.05400  0.72250  Biso   1.000  C
  H211     1.0000 0.61240  0.04770  0.75340  Biso   1.000  H
  N36      1.0000 0.70234  0.09180  0.66760  Biso   1.000  N
  C348     1.0000 0.71071  0.12060  0.63540  Biso   1.000  C
  C349     1.0000 0.74412  0.12230  0.61240  Biso   1.000  C
  H212     1.0000 0.76080  0.10460  0.61910  Biso   1.000  H
  C350     1.0000 0.75280  0.14750  0.58220  Biso   1.000  C
  H213     1.0000 0.77570  0.14800  0.56890  Biso   1.000  H
  C351     1.0000 0.72740  0.17460  0.56900  Biso   1.000  C
  C352     1.0000 0.73640  0.20340  0.53320  Biso   1.000  C
  C353     1.0000 0.69384  0.17330  0.59150  Biso   1.000  C
  H214     1.0000 0.67660  0.19030  0.58390  Biso   1.000  H
  C354     1.0000 0.68610  0.14620  0.62540  Biso   1.000  C
  H215     1.0000 0.66410  0.14590  0.64120  Biso   1.000  H
  C355     1.0000 0.95140  0.88995  0.73480  Biso   1.000  C
  H216     1.0000 0.95880  0.90240  0.70700  Biso   1.000  H
  C356     1.0000 0.93560  0.85620  0.72980  Biso   1.000  C
  H217     1.0000 0.93280  0.84630  0.69880  Biso   1.000  H
  C357     1.0000 0.88046  0.79276  0.79570  Biso   1.000  C
  C358     1.0000 0.85240  0.81661  0.80610  Biso   1.000  C
  H218     1.0000 0.85210  0.83900  0.79130  Biso   1.000  H
  C359     1.0000 0.82550  0.80721  0.83770  Biso   1.000  C
  H219     1.0000 0.80760  0.82350  0.84500  Biso   1.000  H
  C360     1.0000 0.82490  0.77470  0.85820  Biso   1.000  C
  C361     1.0000 0.79550  0.76570  0.89550  Biso   1.000  C
  C362     1.0000 0.85180  0.75060  0.84800  Biso   1.000  C
  H220     1.0000 0.85090  0.72780  0.86170  Biso   1.000  H
  C363     1.0000 0.87940  0.75945  0.81840  Biso   1.000  C
  H221     1.0000 0.89770  0.74320  0.81310  Biso   1.000  H
  C364     1.0000 0.96360  0.77680  0.73450  Biso   1.000  C
  H222     1.0000 0.97660  0.79430  0.75090  Biso   1.000  H
  C365     1.0000 0.98110  0.75020  0.70830  Biso   1.000  C
  H223     1.0000 0.00590  0.74980  0.70810  Biso   1.000  H
  C366     1.0000 0.96340  0.72550  0.68350  Biso   1.000  C
  H224     1.0000 0.97560  0.70850  0.66510  Biso   1.000  H
  C367     1.0000 0.91925  0.66247  0.66310  Biso   1.000  C
  C368     1.0000 0.92640  0.64894  0.71030  Biso   1.000  C
  H225     1.0000 0.92080  0.66260  0.73780  Biso   1.000  H
  C369     1.0000 0.94140  0.61555  0.71630  Biso   1.000  C
  H226     1.0000 0.94670  0.60710  0.74760  Biso   1.000  H
  C370     1.0000 0.94874  0.59473  0.67560  Biso   1.000  C
  C371     1.0000 0.96556  0.55926  0.68300  Biso   1.000  C
  C372     1.0000 0.94080  0.60741  0.62830  Biso   1.000  C
  H227     1.0000 0.94560  0.59340  0.60090  Biso   1.000  H
  C373     1.0000 0.92550  0.64152  0.62280  Biso   1.000  C
  H228     1.0000 0.91970  0.64990  0.59170  Biso   1.000  H
  C374     1.0000 0.87922  0.70699  0.62540  Biso   1.000  C
  C375     1.0000 0.85280  0.68225  0.61360  Biso   1.000  C
  H229     1.0000 0.85380  0.65950  0.62710  Biso   1.000  H
  C376     1.0000 0.82590  0.69075  0.58300  Biso   1.000  C
  H230     1.0000 0.80810  0.67410  0.57660  Biso   1.000  H
  C377     1.0000 0.82474  0.72422  0.56100  Biso   1.000  C
  C378     1.0000 0.79580  0.73320  0.52430  Biso   1.000  C
  C379     1.0000 0.84940  0.74800  0.57210  Biso   1.000  C
  H231     1.0000 0.84790  0.77080  0.55850  Biso   1.000  H
  C380     1.0000 0.87780  0.73994  0.60380  Biso   1.000  C
  H232     1.0000 0.89540  0.75680  0.61000  Biso   1.000  H
  N37      1.0000 0.02457  0.01039  0.68200  Biso   1.000  N
  C381     1.0000 0.00770  0.99960  0.63780  Biso   1.000  C
  H233     1.0000 0.98690  0.98600  0.63540  Biso   1.000  H
  N38      1.0000 0.02800  0.01300  0.59794  Biso   1.000  N
  C382     1.0000 0.05750  0.03220  0.61750  Biso   1.000  C
  H234     1.0000 0.07510  0.04380  0.59950  Biso   1.000  H
  C383     1.0000 0.05540  0.03050  0.66950  Biso   1.000  C
  H235     1.0000 0.07130  0.04090  0.69150  Biso   1.000  H
  N39      1.0000 0.78180  0.66215  0.95950  Biso   1.000  N
  C384     1.0000 0.81010  0.64980  0.92910  Biso   1.000  C
  H236     1.0000 0.81950  0.66180  0.90210  Biso   1.000  H
  N40      1.0000 0.82130  0.61610  0.94710  Biso   1.000  N
  C385     1.0000 0.80010  0.60750  0.98860  Biso   1.000  C
  H237     1.0000 0.80190  0.58690  0.00750  Biso   1.000  H
  C386     1.0000 0.77570  0.63600  0.99630  Biso   1.000  C
  H238     1.0000 0.75870  0.63730  0.02110  Biso   1.000  H
  C387     1.0000 0.01190  0.00470  0.54680  Biso   1.000  C
  C388     1.0000 0.03450  0.00860  0.50950  Biso   1.000  C
  H239     1.0000 0.05800  0.01490  0.51600  Biso   1.000  H
  C389     1.0000 0.85510  0.59780  0.92490  Biso   1.000  C
  C390     1.0000 0.97570  0.99630  0.53710  Biso   1.000  C
  H240     1.0000 0.95930  0.99420  0.56260  Biso   1.000  H
  Cu20     1.0000 0.71660  0.23891  0.96928  Biso   1.000  Cu
  Cu21     1.0000 0.50102  0.50335  0.85042  Biso   1.000  Cu
  Cu22     1.0000 0.49089  0.49795  0.75387  Biso   1.000  Cu
  Cu23     1.0000 0.73856  0.78367  0.96001  Biso   1.000  Cu
  N41      1.0000 0.59341  0.80135  0.65820  Biso   1.000  N
  N42      1.0000 0.59182  0.69675  0.76400  Biso   1.000  N
  N43      1.0000 0.69445  0.40888  0.77540  Biso   1.000  N
  O81      1.0000 0.52520  0.54760  0.82946  Biso   1.000  O
  O82      1.0000 0.54497  0.47601  0.83530  Biso   1.000  O
  O83      1.0000 0.76616  0.29492  0.91880  Biso   1.000  O
  O84      1.0000 0.70991  0.27551  0.91830  Biso   1.000  O
  O85      1.0000 0.53889  0.47570  0.75422  Biso   1.000  O
  O86      1.0000 0.51457  0.54553  0.74899  Biso   1.000  O
  O87      1.0000 0.94550  0.47811  0.72816  Biso   1.000  O
  O88      1.0000 0.73272  0.29443  0.51980  Biso   1.000  O
  O89      1.0000 0.78887  0.27646  0.52110  Biso   1.000  O
  O90      1.0000 0.95533  0.47111  0.64796  Biso   1.000  O
  O91      1.0000 0.70498  0.76665  0.91090  Biso   1.000  O
  O92      1.0000 0.72513  0.71020  0.90970  Biso   1.000  O
  O93      1.0000 0.52528  0.95707  0.64320  Biso   1.000  O
  O94      1.0000 0.52990  0.95143  0.72487  Biso   1.000  O
  O95      1.0000 0.72472  0.79159  0.50950  Biso   1.000  O
  O96      1.0000 0.70582  0.73482  0.50980  Biso   1.000  O
  C391     1.0000 0.57391  0.77466  0.68530  Biso   1.000  C
  C392     1.0000 0.59156  0.74868  0.71160  Biso   1.000  C
  H241     1.0000 0.61640  0.74870  0.71270  Biso   1.000  H
  C393     1.0000 0.57297  0.72308  0.73610  Biso   1.000  C
  C394     1.0000 0.57597  0.66252  0.77100  Biso   1.000  C
  C395     1.0000 0.57310  0.64630  0.81570  Biso   1.000  C
  H242     1.0000 0.58220  0.65790  0.84320  Biso   1.000  H
  C396     1.0000 0.55740  0.61355  0.82160  Biso   1.000  C
  H243     1.0000 0.55560  0.60350  0.85270  Biso   1.000  H
  C397     1.0000 0.54399  0.59513  0.78110  Biso   1.000  C
  C398     1.0000 0.52714  0.56006  0.78710  Biso   1.000  C
  C399     1.0000 0.55558  0.46924  0.79290  Biso   1.000  C
  C400     1.0000 0.59080  0.45164  0.78750  Biso   1.000  C
  C401     1.0000 0.61010  0.44230  0.82800  Biso   1.000  C
  H244     1.0000 0.59970  0.44530  0.85870  Biso   1.000  H
  C402     1.0000 0.64450  0.42840  0.82570  Biso   1.000  C
  H245     1.0000 0.65750  0.42360  0.85390  Biso   1.000  H
  C403     1.0000 0.65858  0.42210  0.77880  Biso   1.000  C
  C404     1.0000 0.71886  0.42700  0.74660  Biso   1.000  C
  C405     1.0000 0.74538  0.40870  0.72030  Biso   1.000  C
  H246     1.0000 0.74610  0.38390  0.72100  Biso   1.000  H
  C406     1.0000 0.77000  0.42720  0.69370  Biso   1.000  C
  C407     1.0000 0.76850  0.46440  0.69090  Biso   1.000  C
  H247     1.0000 0.78520  0.47690  0.67250  Biso   1.000  H
  C408     1.0000 0.74250  0.48200  0.71520  Biso   1.000  C
  H248     1.0000 0.74070  0.50670  0.71250  Biso   1.000  H
  C409     1.0000 0.71820  0.46300  0.74460  Biso   1.000  C
  H249     1.0000 0.70140  0.47550  0.76300  Biso   1.000  H
  C410     1.0000 0.70430  0.38020  0.80670  Biso   1.000  C
  C411     1.0000 0.73760  0.37900  0.82720  Biso   1.000  C
  H250     1.0000 0.75360  0.39730  0.81990  Biso   1.000  H
  C412     1.0000 0.74870  0.35210  0.85800  Biso   1.000  C
  H251     1.0000 0.77160  0.35200  0.87110  Biso   1.000  H
  C413     1.0000 0.72400  0.32400  0.86940  Biso   1.000  C
  C414     1.0000 0.73580  0.29580  0.90430  Biso   1.000  C
  C415     1.0000 0.68990  0.32510  0.84920  Biso   1.000  C
  H252     1.0000 0.67350  0.30740  0.85690  Biso   1.000  H
  C416     1.0000 0.68030  0.35270  0.81730  Biso   1.000  C
  H253     1.0000 0.65780  0.35280  0.80310  Biso   1.000  H
  C417     1.0000 0.63975  0.43070  0.73820  Biso   1.000  C
  H254     1.0000 0.64950  0.42670  0.70730  Biso   1.000  H
  C418     1.0000 0.60594  0.44570  0.74250  Biso   1.000  C
  H255     1.0000 0.59340  0.45180  0.71430  Biso   1.000  H
  C419     1.0000 0.93655  0.46824  0.68650  Biso   1.000  C
  C420     1.0000 0.90094  0.45071  0.68080  Biso   1.000  C
  C421     1.0000 0.88809  0.44050  0.63580  Biso   1.000  C
  H256     1.0000 0.90240  0.44310  0.60810  Biso   1.000  H
  C422     1.0000 0.85419  0.42660  0.63130  Biso   1.000  C
  H257     1.0000 0.84570  0.42000  0.60060  Biso   1.000  H
  C423     1.0000 0.83290  0.42230  0.67190  Biso   1.000  C
  C424     1.0000 0.84581  0.43230  0.71760  Biso   1.000  C
  H258     1.0000 0.83140  0.42960  0.74510  Biso   1.000  H
  C425     1.0000 0.87909  0.44600  0.72250  Biso   1.000  C
  H259     1.0000 0.88760  0.45230  0.75340  Biso   1.000  H
  N44      1.0000 0.79766  0.40820  0.66760  Biso   1.000  N
  C426     1.0000 0.78929  0.37940  0.63540  Biso   1.000  C
  C427     1.0000 0.75588  0.37770  0.61240  Biso   1.000  C
  H260     1.0000 0.73920  0.39540  0.61910  Biso   1.000  H
  C428     1.0000 0.74720  0.35250  0.58220  Biso   1.000  C
  H261     1.0000 0.72430  0.35200  0.56890  Biso   1.000  H
  C429     1.0000 0.77260  0.32540  0.56900  Biso   1.000  C
  C430     1.0000 0.76360  0.29660  0.53320  Biso   1.000  C
  C431     1.0000 0.80616  0.32670  0.59150  Biso   1.000  C
  H262     1.0000 0.82340  0.30970  0.58390  Biso   1.000  H
  C432     1.0000 0.81390  0.35380  0.62540  Biso   1.000  C
  H263     1.0000 0.83590  0.35410  0.64120  Biso   1.000  H
  C433     1.0000 0.54860  0.61005  0.73480  Biso   1.000  C
  H264     1.0000 0.54120  0.59760  0.70700  Biso   1.000  H
  C434     1.0000 0.56440  0.64380  0.72980  Biso   1.000  C
  H265     1.0000 0.56720  0.65370  0.69880  Biso   1.000  H
  C435     1.0000 0.61954  0.70724  0.79570  Biso   1.000  C
  C436     1.0000 0.64760  0.68339  0.80610  Biso   1.000  C
  H266     1.0000 0.64790  0.66100  0.79130  Biso   1.000  H
  C437     1.0000 0.67450  0.69279  0.83770  Biso   1.000  C
  H267     1.0000 0.69240  0.67650  0.84500  Biso   1.000  H
  C438     1.0000 0.67510  0.72530  0.85820  Biso   1.000  C
  C439     1.0000 0.70450  0.73430  0.89550  Biso   1.000  C
  C440     1.0000 0.64820  0.74940  0.84800  Biso   1.000  C
  H268     1.0000 0.64910  0.77220  0.86170  Biso   1.000  H
  C441     1.0000 0.62060  0.74055  0.81840  Biso   1.000  C
  H269     1.0000 0.60230  0.75680  0.81310  Biso   1.000  H
  C442     1.0000 0.53640  0.72320  0.73450  Biso   1.000  C
  H270     1.0000 0.52340  0.70570  0.75090  Biso   1.000  H
  C443     1.0000 0.51890  0.74980  0.70830  Biso   1.000  C
  H271     1.0000 0.49410  0.75020  0.70810  Biso   1.000  H
  C444     1.0000 0.53660  0.77450  0.68350  Biso   1.000  C
  H272     1.0000 0.52440  0.79150  0.66510  Biso   1.000  H
  C445     1.0000 0.58075  0.83753  0.66310  Biso   1.000  C
  C446     1.0000 0.57360  0.85106  0.71030  Biso   1.000  C
  H273     1.0000 0.57920  0.83740  0.73780  Biso   1.000  H
  C447     1.0000 0.55860  0.88445  0.71630  Biso   1.000  C
  H274     1.0000 0.55330  0.89290  0.74760  Biso   1.000  H
  C448     1.0000 0.55126  0.90527  0.67560  Biso   1.000  C
  C449     1.0000 0.53444  0.94074  0.68300  Biso   1.000  C
  C450     1.0000 0.55920  0.89259  0.62830  Biso   1.000  C
  H275     1.0000 0.55440  0.90660  0.60090  Biso   1.000  H
  C451     1.0000 0.57450  0.85848  0.62280  Biso   1.000  C
  H276     1.0000 0.58030  0.85010  0.59170  Biso   1.000  H
  C452     1.0000 0.62078  0.79301  0.62540  Biso   1.000  C
  C453     1.0000 0.64720  0.81775  0.61360  Biso   1.000  C
  H277     1.0000 0.64620  0.84050  0.62710  Biso   1.000  H
  C454     1.0000 0.67410  0.80925  0.58300  Biso   1.000  C
  H278     1.0000 0.69190  0.82590  0.57660  Biso   1.000  H
  C455     1.0000 0.67526  0.77578  0.56100  Biso   1.000  C
  C456     1.0000 0.70420  0.76680  0.52430  Biso   1.000  C
  C457     1.0000 0.65060  0.75200  0.57210  Biso   1.000  C
  H279     1.0000 0.65210  0.72920  0.55850  Biso   1.000  H
  C458     1.0000 0.62220  0.76006  0.60380  Biso   1.000  C
  H280     1.0000 0.60460  0.74320  0.61000  Biso   1.000  H
  N45      1.0000 0.47543  0.48961  0.68200  Biso   1.000  N
  C459     1.0000 0.49230  0.50040  0.63780  Biso   1.000  C
  H281     1.0000 0.51310  0.51400  0.63540  Biso   1.000  H
  N46      1.0000 0.47200  0.48700  0.59794  Biso   1.000  N
  C460     1.0000 0.44250  0.46780  0.61750  Biso   1.000  C
  H282     1.0000 0.42490  0.45620  0.59950  Biso   1.000  H
  C461     1.0000 0.44460  0.46950  0.66950  Biso   1.000  C
  H283     1.0000 0.42870  0.45910  0.69150  Biso   1.000  H
  N47      1.0000 0.71820  0.83785  0.95950  Biso   1.000  N
  C462     1.0000 0.68990  0.85020  0.92910  Biso   1.000  C
  H284     1.0000 0.68050  0.83820  0.90210  Biso   1.000  H
  N48      1.0000 0.67870  0.88390  0.94710  Biso   1.000  N
  C463     1.0000 0.69990  0.89250  0.98860  Biso   1.000  C
  H285     1.0000 0.69810  0.91310  0.00750  Biso   1.000  H
  C464     1.0000 0.72430  0.86400  0.99630  Biso   1.000  C
  H286     1.0000 0.74130  0.86270  0.02110  Biso   1.000  H
  C465     1.0000 0.48810  0.49530  0.54680  Biso   1.000  C
  C466     1.0000 0.46550  0.49140  0.50950  Biso   1.000  C
  H287     1.0000 0.44200  0.48510  0.51600  Biso   1.000  H
  C467     1.0000 0.64490  0.90220  0.92490  Biso   1.000  C
  C468     1.0000 0.52430  0.50370  0.53710  Biso   1.000  C
  H288     1.0000 0.54070  0.50580  0.56260  Biso   1.000  H
  Cu24     1.0000 0.78340  0.26109  0.96928  Biso   1.000  Cu
  Cu25     1.0000 0.00102  0.49665  0.64958  Biso   1.000  Cu
  Cu26     1.0000 0.99089  0.50205  0.74613  Biso   1.000  Cu
  Cu27     1.0000 0.23856  0.21633  0.53999  Biso   1.000  Cu
  N49      1.0000 0.09341  0.19865  0.84180  Biso   1.000  N
  N50      1.0000 0.09182  0.30325  0.73600  Biso   1.000  N
  N51      1.0000 0.19445  0.59112  0.72460  Biso   1.000  N
  O97      1.0000 0.02520  0.45240  0.67054  Biso   1.000  O
  O98      1.0000 0.04497  0.52399  0.66470  Biso   1.000  O
  O99      1.0000 0.26616  0.70508  0.58120  Biso   1.000  O
  O100     1.0000 0.20991  0.72449  0.58170  Biso   1.000  O
  O101     1.0000 0.03889  0.52430  0.74578  Biso   1.000  O
  O102     1.0000 0.01457  0.45447  0.75101  Biso   1.000  O
  O103     1.0000 0.44550  0.52189  0.77184  Biso   1.000  O
  O104     1.0000 0.23272  0.70557  0.98020  Biso   1.000  O
  O105     1.0000 0.28887  0.72354  0.97890  Biso   1.000  O
  O106     1.0000 0.45533  0.52889  0.85204  Biso   1.000  O
  O107     1.0000 0.20498  0.23335  0.58910  Biso   1.000  O
  O108     1.0000 0.22513  0.28980  0.59030  Biso   1.000  O
  O109     1.0000 0.02528  0.04293  0.85680  Biso   1.000  O
  O110     1.0000 0.02990  0.04857  0.77513  Biso   1.000  O
  O111     1.0000 0.22472  0.20841  0.99050  Biso   1.000  O
  O112     1.0000 0.20582  0.26518  0.99020  Biso   1.000  O
  C469     1.0000 0.07391  0.22534  0.81470  Biso   1.000  C
  C470     1.0000 0.09156  0.25132  0.78840  Biso   1.000  C
  H289     1.0000 0.11640  0.25130  0.78730  Biso   1.000  H
  C471     1.0000 0.07297  0.27692  0.76390  Biso   1.000  C
  C472     1.0000 0.07597  0.33748  0.72900  Biso   1.000  C
  C473     1.0000 0.07310  0.35370  0.68430  Biso   1.000  C
  H290     1.0000 0.08220  0.34210  0.65680  Biso   1.000  H
  C474     1.0000 0.05740  0.38645  0.67840  Biso   1.000  C
  H291     1.0000 0.05560  0.39650  0.64730  Biso   1.000  H
  C475     1.0000 0.04399  0.40487  0.71890  Biso   1.000  C
  C476     1.0000 0.02714  0.43994  0.71290  Biso   1.000  C
  C477     1.0000 0.05558  0.53076  0.70710  Biso   1.000  C
  C478     1.0000 0.09080  0.54836  0.71250  Biso   1.000  C
  C479     1.0000 0.11010  0.55770  0.67200  Biso   1.000  C
  H292     1.0000 0.09970  0.55470  0.64130  Biso   1.000  H
  C480     1.0000 0.14450  0.57160  0.67430  Biso   1.000  C
  H293     1.0000 0.15750  0.57640  0.64610  Biso   1.000  H
  C481     1.0000 0.15858  0.57790  0.72120  Biso   1.000  C
  C482     1.0000 0.21886  0.57300  0.75340  Biso   1.000  C
  C483     1.0000 0.24538  0.59130  0.77970  Biso   1.000  C
  H294     1.0000 0.24610  0.61610  0.77900  Biso   1.000  H
  C484     1.0000 0.27000  0.57280  0.80630  Biso   1.000  C
  C485     1.0000 0.26850  0.53560  0.80910  Biso   1.000  C
  H295     1.0000 0.28520  0.52310  0.82750  Biso   1.000  H
  C486     1.0000 0.24250  0.51800  0.78480  Biso   1.000  C
  H296     1.0000 0.24070  0.49330  0.78750  Biso   1.000  H
  C487     1.0000 0.21820  0.53700  0.75540  Biso   1.000  C
  H297     1.0000 0.20140  0.52450  0.73700  Biso   1.000  H
  C488     1.0000 0.20430  0.61980  0.69330  Biso   1.000  C
  C489     1.0000 0.23760  0.62100  0.67280  Biso   1.000  C
  H298     1.0000 0.25360  0.60270  0.68010  Biso   1.000  H
  C490     1.0000 0.24870  0.64790  0.64200  Biso   1.000  C
  H299     1.0000 0.27160  0.64800  0.62890  Biso   1.000  H
  C491     1.0000 0.22400  0.67600  0.63060  Biso   1.000  C
  C492     1.0000 0.23580  0.70420  0.59570  Biso   1.000  C
  C493     1.0000 0.18990  0.67490  0.65080  Biso   1.000  C
  H300     1.0000 0.17350  0.69260  0.64310  Biso   1.000  H
  C494     1.0000 0.18030  0.64730  0.68270  Biso   1.000  C
  H301     1.0000 0.15780  0.64720  0.69690  Biso   1.000  H
  C495     1.0000 0.13975  0.56930  0.76180  Biso   1.000  C
  H302     1.0000 0.14950  0.57330  0.79270  Biso   1.000  H
  C496     1.0000 0.10594  0.55430  0.75750  Biso   1.000  C
  H303     1.0000 0.09340  0.54820  0.78570  Biso   1.000  H
  C497     1.0000 0.43655  0.53176  0.81350  Biso   1.000  C
  C498     1.0000 0.40094  0.54929  0.81920  Biso   1.000  C
  C499     1.0000 0.38809  0.55950  0.86420  Biso   1.000  C
  H304     1.0000 0.40240  0.55690  0.89190  Biso   1.000  H
  C500     1.0000 0.35419  0.57340  0.86870  Biso   1.000  C
  H305     1.0000 0.34570  0.58000  0.89940  Biso   1.000  H
  C501     1.0000 0.33290  0.57770  0.82810  Biso   1.000  C
  C502     1.0000 0.34581  0.56770  0.78240  Biso   1.000  C
  H306     1.0000 0.33140  0.57040  0.75490  Biso   1.000  H
  C503     1.0000 0.37909  0.55400  0.77750  Biso   1.000  C
  H307     1.0000 0.38760  0.54770  0.74660  Biso   1.000  H
  N52      1.0000 0.29766  0.59180  0.83240  Biso   1.000  N
  C504     1.0000 0.28929  0.62060  0.86460  Biso   1.000  C
  C505     1.0000 0.25588  0.62230  0.88760  Biso   1.000  C
  H308     1.0000 0.23920  0.60460  0.88090  Biso   1.000  H
  C506     1.0000 0.24720  0.64750  0.91780  Biso   1.000  C
  H309     1.0000 0.22430  0.64800  0.93110  Biso   1.000  H
  C507     1.0000 0.27260  0.67460  0.93100  Biso   1.000  C
  C508     1.0000 0.26360  0.70340  0.96680  Biso   1.000  C
  C509     1.0000 0.30616  0.67330  0.90850  Biso   1.000  C
  H310     1.0000 0.32340  0.69030  0.91610  Biso   1.000  H
  C510     1.0000 0.31390  0.64620  0.87460  Biso   1.000  C
  H311     1.0000 0.33590  0.64590  0.85880  Biso   1.000  H
  C511     1.0000 0.04860  0.38995  0.76520  Biso   1.000  C
  H312     1.0000 0.04120  0.40240  0.79300  Biso   1.000  H
  C512     1.0000 0.06440  0.35620  0.77020  Biso   1.000  C
  H313     1.0000 0.06720  0.34630  0.80120  Biso   1.000  H
  C513     1.0000 0.11954  0.29276  0.70430  Biso   1.000  C
  C514     1.0000 0.14760  0.31661  0.69390  Biso   1.000  C
  H314     1.0000 0.14790  0.33900  0.70870  Biso   1.000  H
  C515     1.0000 0.17450  0.30721  0.66230  Biso   1.000  C
  H315     1.0000 0.19240  0.32350  0.65500  Biso   1.000  H
  C516     1.0000 0.17510  0.27470  0.64180  Biso   1.000  C
  C517     1.0000 0.20450  0.26570  0.60450  Biso   1.000  C
  C518     1.0000 0.14820  0.25060  0.65200  Biso   1.000  C
  H316     1.0000 0.14910  0.22780  0.63830  Biso   1.000  H
  C519     1.0000 0.12060  0.25945  0.68160  Biso   1.000  C
  H317     1.0000 0.10230  0.24320  0.68690  Biso   1.000  H
  C520     1.0000 0.03640  0.27680  0.76550  Biso   1.000  C
  H318     1.0000 0.02340  0.29430  0.74910  Biso   1.000  H
  C521     1.0000 0.01890  0.25020  0.79170  Biso   1.000  C
  H319     1.0000 0.99410  0.24980  0.79190  Biso   1.000  H
  C522     1.0000 0.03660  0.22550  0.81650  Biso   1.000  C
  H320     1.0000 0.02440  0.20850  0.83490  Biso   1.000  H
  C523     1.0000 0.08075  0.16247  0.83690  Biso   1.000  C
  C524     1.0000 0.07360  0.14894  0.78970  Biso   1.000  C
  H321     1.0000 0.07920  0.16260  0.76220  Biso   1.000  H
  C525     1.0000 0.05860  0.11555  0.78370  Biso   1.000  C
  H322     1.0000 0.05330  0.10710  0.75240  Biso   1.000  H
  C526     1.0000 0.05126  0.09473  0.82440  Biso   1.000  C
  C527     1.0000 0.03444  0.05926  0.81700  Biso   1.000  C
  C528     1.0000 0.05920  0.10741  0.87170  Biso   1.000  C
  H323     1.0000 0.05440  0.09340  0.89910  Biso   1.000  H
  C529     1.0000 0.07450  0.14152  0.87720  Biso   1.000  C
  H324     1.0000 0.08030  0.14990  0.90830  Biso   1.000  H
  C530     1.0000 0.12078  0.20699  0.87460  Biso   1.000  C
  C531     1.0000 0.14720  0.18225  0.88640  Biso   1.000  C
  H325     1.0000 0.14620  0.15950  0.87290  Biso   1.000  H
  C532     1.0000 0.17410  0.19075  0.91700  Biso   1.000  C
  H326     1.0000 0.19190  0.17410  0.92340  Biso   1.000  H
  C533     1.0000 0.17526  0.22422  0.93900  Biso   1.000  C
  C534     1.0000 0.20420  0.23320  0.97570  Biso   1.000  C
  C535     1.0000 0.15060  0.24800  0.92790  Biso   1.000  C
  H327     1.0000 0.15210  0.27080  0.94150  Biso   1.000  H
  C536     1.0000 0.12220  0.23994  0.89620  Biso   1.000  C
  H328     1.0000 0.10460  0.25680  0.89000  Biso   1.000  H
  N53      1.0000 0.97543  0.51039  0.81800  Biso   1.000  N
  C537     1.0000 0.99230  0.49960  0.86220  Biso   1.000  C
  H329     1.0000 0.01310  0.48600  0.86460  Biso   1.000  H
  N54      1.0000 0.97200  0.51300  0.90206  Biso   1.000  N
  C538     1.0000 0.94250  0.53220  0.88250  Biso   1.000  C
  H330     1.0000 0.92490  0.54380  0.90050  Biso   1.000  H
  C539     1.0000 0.94460  0.53050  0.83050  Biso   1.000  C
  H331     1.0000 0.92870  0.54090  0.80850  Biso   1.000  H
  N55      1.0000 0.21820  0.16215  0.54050  Biso   1.000  N
  C540     1.0000 0.18990  0.14980  0.57090  Biso   1.000  C
  H332     1.0000 0.18050  0.16180  0.59790  Biso   1.000  H
  N56      1.0000 0.17870  0.11610  0.55290  Biso   1.000  N
  C541     1.0000 0.19990  0.10750  0.51140  Biso   1.000  C
  H333     1.0000 0.19810  0.08690  0.49250  Biso   1.000  H
  C542     1.0000 0.22430  0.13600  0.50370  Biso   1.000  C
  H334     1.0000 0.24130  0.13730  0.47890  Biso   1.000  H
  C543     1.0000 0.98810  0.50470  0.95320  Biso   1.000  C
  C544     1.0000 0.96550  0.50860  0.99050  Biso   1.000  C
  H335     1.0000 0.94200  0.51490  0.98400  Biso   1.000  H
  C545     1.0000 0.14490  0.09780  0.57510  Biso   1.000  C
  C546     1.0000 0.02430  0.49630  0.96290  Biso   1.000  C
  H336     1.0000 0.04070  0.49420  0.93740  Biso   1.000  H
  Cu28     1.0000 0.28340  0.73891  0.53072  Biso   1.000  Cu
  Cu29     1.0000 0.49898  0.00335  0.64958  Biso   1.000  Cu
  Cu30     1.0000 0.50911  0.99795  0.74613  Biso   1.000  Cu
  Cu31     1.0000 0.26144  0.28367  0.53999  Biso   1.000  Cu
  N57      1.0000 0.40659  0.30135  0.84180  Biso   1.000  N
  N58      1.0000 0.40818  0.19675  0.73600  Biso   1.000  N
  N59      1.0000 0.30555  0.90888  0.72460  Biso   1.000  N
  O113     1.0000 0.47480  0.04760  0.67054  Biso   1.000  O
  O114     1.0000 0.45503  0.97601  0.66470  Biso   1.000  O
  O115     1.0000 0.23384  0.79492  0.58120  Biso   1.000  O
  O116     1.0000 0.29009  0.77551  0.58170  Biso   1.000  O
  O117     1.0000 0.46111  0.97570  0.74578  Biso   1.000  O
  O118     1.0000 0.48543  0.04553  0.75101  Biso   1.000  O
  O119     1.0000 0.05450  0.97811  0.77184  Biso   1.000  O
  O120     1.0000 0.26728  0.79443  0.98020  Biso   1.000  O
  O121     1.0000 0.21113  0.77646  0.97890  Biso   1.000  O
  O122     1.0000 0.04467  0.97111  0.85204  Biso   1.000  O
  O123     1.0000 0.29502  0.26665  0.58910  Biso   1.000  O
  O124     1.0000 0.27487  0.21020  0.59030  Biso   1.000  O
  O125     1.0000 0.47472  0.45707  0.85680  Biso   1.000  O
  O126     1.0000 0.47010  0.45143  0.77513  Biso   1.000  O
  O127     1.0000 0.27528  0.29159  0.99050  Biso   1.000  O
  O128     1.0000 0.29418  0.23482  0.99020  Biso   1.000  O
  C547     1.0000 0.42609  0.27466  0.81470  Biso   1.000  C
  C548     1.0000 0.40844  0.24868  0.78840  Biso   1.000  C
  H337     1.0000 0.38360  0.24870  0.78730  Biso   1.000  H
  C549     1.0000 0.42703  0.22308  0.76390  Biso   1.000  C
  C550     1.0000 0.42403  0.16252  0.72900  Biso   1.000  C
  C551     1.0000 0.42690  0.14630  0.68430  Biso   1.000  C
  H338     1.0000 0.41780  0.15790  0.65680  Biso   1.000  H
  C552     1.0000 0.44260  0.11355  0.67840  Biso   1.000  C
  H339     1.0000 0.44440  0.10350  0.64730  Biso   1.000  H
  C553     1.0000 0.45601  0.09513  0.71890  Biso   1.000  C
  C554     1.0000 0.47286  0.06006  0.71290  Biso   1.000  C
  C555     1.0000 0.44442  0.96924  0.70710  Biso   1.000  C
  C556     1.0000 0.40920  0.95164  0.71250  Biso   1.000  C
  C557     1.0000 0.38990  0.94230  0.67200  Biso   1.000  C
  H340     1.0000 0.40030  0.94530  0.64130  Biso   1.000  H
  C558     1.0000 0.35550  0.92840  0.67430  Biso   1.000  C
  H341     1.0000 0.34250  0.92360  0.64610  Biso   1.000  H
  C559     1.0000 0.34142  0.92210  0.72120  Biso   1.000  C
  C560     1.0000 0.28114  0.92700  0.75340  Biso   1.000  C
  C561     1.0000 0.25462  0.90870  0.77970  Biso   1.000  C
  H342     1.0000 0.25390  0.88390  0.77900  Biso   1.000  H
  C562     1.0000 0.23000  0.92720  0.80630  Biso   1.000  C
  C563     1.0000 0.23150  0.96440  0.80910  Biso   1.000  C
  H343     1.0000 0.21480  0.97690  0.82750  Biso   1.000  H
  C564     1.0000 0.25750  0.98200  0.78480  Biso   1.000  C
  H344     1.0000 0.25930  0.00670  0.78750  Biso   1.000  H
  C565     1.0000 0.28180  0.96300  0.75540  Biso   1.000  C
  H345     1.0000 0.29860  0.97550  0.73700  Biso   1.000  H
  C566     1.0000 0.29570  0.88020  0.69330  Biso   1.000  C
  C567     1.0000 0.26240  0.87900  0.67280  Biso   1.000  C
  H346     1.0000 0.24640  0.89730  0.68010  Biso   1.000  H
  C568     1.0000 0.25130  0.85210  0.64200  Biso   1.000  C
  H347     1.0000 0.22840  0.85200  0.62890  Biso   1.000  H
  C569     1.0000 0.27600  0.82400  0.63060  Biso   1.000  C
  C570     1.0000 0.26420  0.79580  0.59570  Biso   1.000  C
  C571     1.0000 0.31010  0.82510  0.65080  Biso   1.000  C
  H348     1.0000 0.32650  0.80740  0.64310  Biso   1.000  H
  C572     1.0000 0.31970  0.85270  0.68270  Biso   1.000  C
  H349     1.0000 0.34220  0.85280  0.69690  Biso   1.000  H
  C573     1.0000 0.36025  0.93070  0.76180  Biso   1.000  C
  H350     1.0000 0.35050  0.92670  0.79270  Biso   1.000  H
  C574     1.0000 0.39406  0.94570  0.75750  Biso   1.000  C
  H351     1.0000 0.40660  0.95180  0.78570  Biso   1.000  H
  C575     1.0000 0.06345  0.96824  0.81350  Biso   1.000  C
  C576     1.0000 0.09906  0.95071  0.81920  Biso   1.000  C
  C577     1.0000 0.11191  0.94050  0.86420  Biso   1.000  C
  H352     1.0000 0.09760  0.94310  0.89190  Biso   1.000  H
  C578     1.0000 0.14581  0.92660  0.86870  Biso   1.000  C
  H353     1.0000 0.15430  0.92000  0.89940  Biso   1.000  H
  C579     1.0000 0.16710  0.92230  0.82810  Biso   1.000  C
  C580     1.0000 0.15419  0.93230  0.78240  Biso   1.000  C
  H354     1.0000 0.16860  0.92960  0.75490  Biso   1.000  H
  C581     1.0000 0.12091  0.94600  0.77750  Biso   1.000  C
  H355     1.0000 0.11240  0.95230  0.74660  Biso   1.000  H
  N60      1.0000 0.20234  0.90820  0.83240  Biso   1.000  N
  C582     1.0000 0.21071  0.87940  0.86460  Biso   1.000  C
  C583     1.0000 0.24412  0.87770  0.88760  Biso   1.000  C
  H356     1.0000 0.26080  0.89540  0.88090  Biso   1.000  H
  C584     1.0000 0.25280  0.85250  0.91780  Biso   1.000  C
  H357     1.0000 0.27570  0.85200  0.93110  Biso   1.000  H
  C585     1.0000 0.22740  0.82540  0.93100  Biso   1.000  C
  C586     1.0000 0.23640  0.79660  0.96680  Biso   1.000  C
  C587     1.0000 0.19384  0.82670  0.90850  Biso   1.000  C
  H358     1.0000 0.17660  0.80970  0.91610  Biso   1.000  H
  C588     1.0000 0.18610  0.85380  0.87460  Biso   1.000  C
  H359     1.0000 0.16410  0.85410  0.85880  Biso   1.000  H
  C589     1.0000 0.45140  0.11005  0.76520  Biso   1.000  C
  H360     1.0000 0.45880  0.09760  0.79300  Biso   1.000  H
  C590     1.0000 0.43560  0.14380  0.77020  Biso   1.000  C
  H361     1.0000 0.43280  0.15370  0.80120  Biso   1.000  H
  C591     1.0000 0.38046  0.20724  0.70430  Biso   1.000  C
  C592     1.0000 0.35240  0.18339  0.69390  Biso   1.000  C
  H362     1.0000 0.35210  0.16100  0.70870  Biso   1.000  H
  C593     1.0000 0.32550  0.19279  0.66230  Biso   1.000  C
  H363     1.0000 0.30760  0.17650  0.65500  Biso   1.000  H
  C594     1.0000 0.32490  0.22530  0.64180  Biso   1.000  C
  C595     1.0000 0.29550  0.23430  0.60450  Biso   1.000  C
  C596     1.0000 0.35180  0.24940  0.65200  Biso   1.000  C
  H364     1.0000 0.35090  0.27220  0.63830  Biso   1.000  H
  C597     1.0000 0.37940  0.24055  0.68160  Biso   1.000  C
  H365     1.0000 0.39770  0.25680  0.68690  Biso   1.000  H
  C598     1.0000 0.46360  0.22320  0.76550  Biso   1.000  C
  H366     1.0000 0.47660  0.20570  0.74910  Biso   1.000  H
  C599     1.0000 0.48110  0.24980  0.79170  Biso   1.000  C
  H367     1.0000 0.50590  0.25020  0.79190  Biso   1.000  H
  C600     1.0000 0.46340  0.27450  0.81650  Biso   1.000  C
  H368     1.0000 0.47560  0.29150  0.83490  Biso   1.000  H
  C601     1.0000 0.41925  0.33753  0.83690  Biso   1.000  C
  C602     1.0000 0.42640  0.35106  0.78970  Biso   1.000  C
  H369     1.0000 0.42080  0.33740  0.76220  Biso   1.000  H
  C603     1.0000 0.44140  0.38445  0.78370  Biso   1.000  C
  H370     1.0000 0.44670  0.39290  0.75240  Biso   1.000  H
  C604     1.0000 0.44874  0.40527  0.82440  Biso   1.000  C
  C605     1.0000 0.46556  0.44074  0.81700  Biso   1.000  C
  C606     1.0000 0.44080  0.39259  0.87170  Biso   1.000  C
  H371     1.0000 0.44560  0.40660  0.89910  Biso   1.000  H
  C607     1.0000 0.42550  0.35848  0.87720  Biso   1.000  C
  H372     1.0000 0.41970  0.35010  0.90830  Biso   1.000  H
  C608     1.0000 0.37922  0.29301  0.87460  Biso   1.000  C
  C609     1.0000 0.35280  0.31775  0.88640  Biso   1.000  C
  H373     1.0000 0.35380  0.34050  0.87290  Biso   1.000  H
  C610     1.0000 0.32590  0.30925  0.91700  Biso   1.000  C
  H374     1.0000 0.30810  0.32590  0.92340  Biso   1.000  H
  C611     1.0000 0.32474  0.27578  0.93900  Biso   1.000  C
  C612     1.0000 0.29580  0.26680  0.97570  Biso   1.000  C
  C613     1.0000 0.34940  0.25200  0.92790  Biso   1.000  C
  H375     1.0000 0.34790  0.22920  0.94150  Biso   1.000  H
  C614     1.0000 0.37780  0.26006  0.89620  Biso   1.000  C
  H376     1.0000 0.39540  0.24320  0.89000  Biso   1.000  H
  N61      1.0000 0.52457  0.98961  0.81800  Biso   1.000  N
  C615     1.0000 0.50770  0.00040  0.86220  Biso   1.000  C
  H377     1.0000 0.48690  0.01400  0.86460  Biso   1.000  H
  N62      1.0000 0.52800  0.98700  0.90206  Biso   1.000  N
  C616     1.0000 0.55750  0.96780  0.88250  Biso   1.000  C
  H378     1.0000 0.57510  0.95620  0.90050  Biso   1.000  H
  C617     1.0000 0.55540  0.96950  0.83050  Biso   1.000  C
  H379     1.0000 0.57130  0.95910  0.80850  Biso   1.000  H
  N63      1.0000 0.28180  0.33785  0.54050  Biso   1.000  N
  C618     1.0000 0.31010  0.35020  0.57090  Biso   1.000  C
  H380     1.0000 0.31950  0.33820  0.59790  Biso   1.000  H
  N64      1.0000 0.32130  0.38390  0.55290  Biso   1.000  N
  C619     1.0000 0.30010  0.39250  0.51140  Biso   1.000  C
  H381     1.0000 0.30190  0.41310  0.49250  Biso   1.000  H
  C620     1.0000 0.27570  0.36400  0.50370  Biso   1.000  C
  H382     1.0000 0.25870  0.36270  0.47890  Biso   1.000  H
  C621     1.0000 0.51190  0.99530  0.95320  Biso   1.000  C
  C622     1.0000 0.53450  0.99140  0.99050  Biso   1.000  C
  H383     1.0000 0.55800  0.98510  0.98400  Biso   1.000  H
  C623     1.0000 0.35510  0.40220  0.57510  Biso   1.000  C
  C624     1.0000 0.47570  0.00370  0.96290  Biso   1.000  C
  H384     1.0000 0.45930  0.00580  0.93740  Biso   1.000  H
  Cu32     1.0000 0.21660  0.76109  0.53072  Biso   1.000  Cu
