data_image0
_cell_length_a       27.3489
_cell_length_b       27.3489
_cell_length_c       27.3489
_cell_angle_alpha    90
_cell_angle_beta     90
_cell_angle_gamma    90

_symmetry_space_group_name_H-M    "P 1"
_symmetry_int_tables_number       1

loop_
  _symmetry_equiv_pos_as_xyz
  'x, y, z'

loop_
  _atom_site_label
  _atom_site_occupancy
  _atom_site_fract_x
  _atom_site_fract_y
  _atom_site_fract_z
  _atom_site_thermal_displace_type
  _atom_site_B_iso_or_equiv
  _atom_site_type_symbol
  C1       1.0000 0.13943  0.07463  0.42297  Biso   1.000  C
  C2       1.0000 0.15528  0.10173  0.37852  Biso   1.000  C
  C3       1.0000 0.12045  0.12787  0.35166  Biso   1.000  C
  H1       1.0000 0.08830  0.12990  0.36240  Biso   1.000  H
  C4       1.0000 0.13446  0.15015  0.30972  Biso   1.000  C
  H2       1.0000 0.11050  0.16160  0.28850  Biso   1.000  H
  C5       1.0000 0.18361  0.15660  0.29717  Biso   1.000  C
  C6       1.0000 0.21680  0.13386  0.32555  Biso   1.000  C
  H3       1.0000 0.24970  0.13670  0.31750  Biso   1.000  H
  C7       1.0000 0.20421  0.10652  0.36618  Biso   1.000  C
  H4       1.0000 0.22830  0.09150  0.38500  Biso   1.000  H
  C8       1.0000 0.19681  0.18528  0.25288  Biso   1.000  C
  C9       1.0000 0.17065  0.22618  0.23820  Biso   1.000  C
  H5       1.0000 0.14330  0.23600  0.25580  Biso   1.000  H
  O1       1.0000 0.17176  0.05248  0.44624  Biso   1.000  O
  O2       1.0000 0.09659  0.07431  0.43735  Biso   1.000  O
  C10      1.0000 0.86057  0.92537  0.42297  Biso   1.000  C
  C11      1.0000 0.84472  0.89827  0.37852  Biso   1.000  C
  C12      1.0000 0.87955  0.87213  0.35166  Biso   1.000  C
  H6       1.0000 0.91170  0.87010  0.36240  Biso   1.000  H
  C13      1.0000 0.86554  0.84985  0.30972  Biso   1.000  C
  H7       1.0000 0.88950  0.83840  0.28850  Biso   1.000  H
  C14      1.0000 0.81639  0.84340  0.29717  Biso   1.000  C
  C15      1.0000 0.78320  0.86614  0.32555  Biso   1.000  C
  H8       1.0000 0.75030  0.86330  0.31750  Biso   1.000  H
  C16      1.0000 0.79579  0.89348  0.36618  Biso   1.000  C
  H9       1.0000 0.77170  0.90850  0.38500  Biso   1.000  H
  C17      1.0000 0.80319  0.81472  0.25288  Biso   1.000  C
  C18      1.0000 0.82935  0.77382  0.23820  Biso   1.000  C
  H10      1.0000 0.85670  0.76400  0.25580  Biso   1.000  H
  O3       1.0000 0.82824  0.94752  0.44624  Biso   1.000  O
  O4       1.0000 0.90341  0.92569  0.43735  Biso   1.000  O
  C19      1.0000 0.86057  0.07463  0.57703  Biso   1.000  C
  C20      1.0000 0.84472  0.10173  0.62148  Biso   1.000  C
  C21      1.0000 0.87955  0.12787  0.64834  Biso   1.000  C
  H11      1.0000 0.91170  0.12990  0.63760  Biso   1.000  H
  C22      1.0000 0.86554  0.15015  0.69028  Biso   1.000  C
  H12      1.0000 0.88950  0.16160  0.71150  Biso   1.000  H
  C23      1.0000 0.81639  0.15660  0.70283  Biso   1.000  C
  C24      1.0000 0.78320  0.13386  0.67445  Biso   1.000  C
  H13      1.0000 0.75030  0.13670  0.68250  Biso   1.000  H
  C25      1.0000 0.79579  0.10652  0.63382  Biso   1.000  C
  H14      1.0000 0.77170  0.09150  0.61500  Biso   1.000  H
  C26      1.0000 0.80319  0.18528  0.74712  Biso   1.000  C
  C27      1.0000 0.82935  0.22618  0.76180  Biso   1.000  C
  H15      1.0000 0.85670  0.23600  0.74420  Biso   1.000  H
  O5       1.0000 0.82824  0.05248  0.55376  Biso   1.000  O
  O6       1.0000 0.90341  0.07431  0.56265  Biso   1.000  O
  C28      1.0000 0.13943  0.92537  0.57703  Biso   1.000  C
  C29      1.0000 0.15528  0.89827  0.62148  Biso   1.000  C
  C30      1.0000 0.12045  0.87213  0.64834  Biso   1.000  C
  H16      1.0000 0.08830  0.87010  0.63760  Biso   1.000  H
  C31      1.0000 0.13446  0.84985  0.69028  Biso   1.000  C
  H17      1.0000 0.11050  0.83840  0.71150  Biso   1.000  H
  C32      1.0000 0.18361  0.84340  0.70283  Biso   1.000  C
  C33      1.0000 0.21680  0.86614  0.67445  Biso   1.000  C
  H18      1.0000 0.24970  0.86330  0.68250  Biso   1.000  H
  C34      1.0000 0.20421  0.89348  0.63382  Biso   1.000  C
  H19      1.0000 0.22830  0.90850  0.61500  Biso   1.000  H
  C35      1.0000 0.19681  0.81472  0.74712  Biso   1.000  C
  C36      1.0000 0.17065  0.77382  0.76180  Biso   1.000  C
  H20      1.0000 0.14330  0.76400  0.74420  Biso   1.000  H
  O7       1.0000 0.17176  0.94752  0.55376  Biso   1.000  O
  O8       1.0000 0.09659  0.92569  0.56265  Biso   1.000  O
  C37      1.0000 0.42297  0.13943  0.07463  Biso   1.000  C
  C38      1.0000 0.37852  0.15528  0.10173  Biso   1.000  C
  C39      1.0000 0.35166  0.12045  0.12787  Biso   1.000  C
  H21      1.0000 0.36240  0.08830  0.12990  Biso   1.000  H
  C40      1.0000 0.30972  0.13446  0.15015  Biso   1.000  C
  H22      1.0000 0.28850  0.11050  0.16160  Biso   1.000  H
  C41      1.0000 0.29717  0.18361  0.15660  Biso   1.000  C
  C42      1.0000 0.32555  0.21680  0.13386  Biso   1.000  C
  H23      1.0000 0.31750  0.24970  0.13670  Biso   1.000  H
  C43      1.0000 0.36618  0.20421  0.10652  Biso   1.000  C
  H24      1.0000 0.38500  0.22830  0.09150  Biso   1.000  H
  C44      1.0000 0.25288  0.19681  0.18528  Biso   1.000  C
  C45      1.0000 0.23820  0.17065  0.22618  Biso   1.000  C
  H25      1.0000 0.25580  0.14330  0.23600  Biso   1.000  H
  O9       1.0000 0.44624  0.17176  0.05248  Biso   1.000  O
  O10      1.0000 0.43735  0.09659  0.07431  Biso   1.000  O
  C46      1.0000 0.42297  0.86057  0.92537  Biso   1.000  C
  C47      1.0000 0.37852  0.84472  0.89827  Biso   1.000  C
  C48      1.0000 0.35166  0.87955  0.87213  Biso   1.000  C
  H26      1.0000 0.36240  0.91170  0.87010  Biso   1.000  H
  C49      1.0000 0.30972  0.86554  0.84985  Biso   1.000  C
  H27      1.0000 0.28850  0.88950  0.83840  Biso   1.000  H
  C50      1.0000 0.29717  0.81639  0.84340  Biso   1.000  C
  C51      1.0000 0.32555  0.78320  0.86614  Biso   1.000  C
  H28      1.0000 0.31750  0.75030  0.86330  Biso   1.000  H
  C52      1.0000 0.36618  0.79579  0.89348  Biso   1.000  C
  H29      1.0000 0.38500  0.77170  0.90850  Biso   1.000  H
  C53      1.0000 0.25288  0.80319  0.81472  Biso   1.000  C
  C54      1.0000 0.23820  0.82935  0.77382  Biso   1.000  C
  H30      1.0000 0.25580  0.85670  0.76400  Biso   1.000  H
  O11      1.0000 0.44624  0.82824  0.94752  Biso   1.000  O
  O12      1.0000 0.43735  0.90341  0.92569  Biso   1.000  O
  C55      1.0000 0.57703  0.86057  0.07463  Biso   1.000  C
  C56      1.0000 0.62148  0.84472  0.10173  Biso   1.000  C
  C57      1.0000 0.64834  0.87955  0.12787  Biso   1.000  C
  H31      1.0000 0.63760  0.91170  0.12990  Biso   1.000  H
  C58      1.0000 0.69028  0.86554  0.15015  Biso   1.000  C
  H32      1.0000 0.71150  0.88950  0.16160  Biso   1.000  H
  C59      1.0000 0.70283  0.81639  0.15660  Biso   1.000  C
  C60      1.0000 0.67445  0.78320  0.13386  Biso   1.000  C
  H33      1.0000 0.68250  0.75030  0.13670  Biso   1.000  H
  C61      1.0000 0.63382  0.79579  0.10652  Biso   1.000  C
  H34      1.0000 0.61500  0.77170  0.09150  Biso   1.000  H
  C62      1.0000 0.74712  0.80319  0.18528  Biso   1.000  C
  C63      1.0000 0.76180  0.82935  0.22618  Biso   1.000  C
  H35      1.0000 0.74420  0.85670  0.23600  Biso   1.000  H
  O13      1.0000 0.55376  0.82824  0.05248  Biso   1.000  O
  O14      1.0000 0.56265  0.90341  0.07431  Biso   1.000  O
  C64      1.0000 0.57703  0.13943  0.92537  Biso   1.000  C
  C65      1.0000 0.62148  0.15528  0.89827  Biso   1.000  C
  C66      1.0000 0.64834  0.12045  0.87213  Biso   1.000  C
  H36      1.0000 0.63760  0.08830  0.87010  Biso   1.000  H
  C67      1.0000 0.69028  0.13446  0.84985  Biso   1.000  C
  H37      1.0000 0.71150  0.11050  0.83840  Biso   1.000  H
  C68      1.0000 0.70283  0.18361  0.84340  Biso   1.000  C
  C69      1.0000 0.67445  0.21680  0.86614  Biso   1.000  C
  H38      1.0000 0.68250  0.24970  0.86330  Biso   1.000  H
  C70      1.0000 0.63382  0.20421  0.89348  Biso   1.000  C
  H39      1.0000 0.61500  0.22830  0.90850  Biso   1.000  H
  C71      1.0000 0.74712  0.19681  0.81472  Biso   1.000  C
  C72      1.0000 0.76180  0.17065  0.77382  Biso   1.000  C
  H40      1.0000 0.74420  0.14330  0.76400  Biso   1.000  H
  O15      1.0000 0.55376  0.17176  0.94752  Biso   1.000  O
  O16      1.0000 0.56265  0.09659  0.92569  Biso   1.000  O
  C73      1.0000 0.07463  0.42297  0.13943  Biso   1.000  C
  C74      1.0000 0.10173  0.37852  0.15528  Biso   1.000  C
  C75      1.0000 0.12787  0.35166  0.12045  Biso   1.000  C
  H41      1.0000 0.12990  0.36240  0.08830  Biso   1.000  H
  C76      1.0000 0.15015  0.30972  0.13446  Biso   1.000  C
  H42      1.0000 0.16160  0.28850  0.11050  Biso   1.000  H
  C77      1.0000 0.15660  0.29717  0.18361  Biso   1.000  C
  C78      1.0000 0.13386  0.32555  0.21680  Biso   1.000  C
  H43      1.0000 0.13670  0.31750  0.24970  Biso   1.000  H
  C79      1.0000 0.10652  0.36618  0.20421  Biso   1.000  C
  H44      1.0000 0.09150  0.38500  0.22830  Biso   1.000  H
  C80      1.0000 0.18528  0.25288  0.19681  Biso   1.000  C
  C81      1.0000 0.22618  0.23820  0.17065  Biso   1.000  C
  H45      1.0000 0.23600  0.25580  0.14330  Biso   1.000  H
  O17      1.0000 0.05248  0.44624  0.17176  Biso   1.000  O
  O18      1.0000 0.07431  0.43735  0.09659  Biso   1.000  O
  C82      1.0000 0.92537  0.42297  0.86057  Biso   1.000  C
  C83      1.0000 0.89827  0.37852  0.84472  Biso   1.000  C
  C84      1.0000 0.87213  0.35166  0.87955  Biso   1.000  C
  H46      1.0000 0.87010  0.36240  0.91170  Biso   1.000  H
  C85      1.0000 0.84985  0.30972  0.86554  Biso   1.000  C
  H47      1.0000 0.83840  0.28850  0.88950  Biso   1.000  H
  C86      1.0000 0.84340  0.29717  0.81639  Biso   1.000  C
  C87      1.0000 0.86614  0.32555  0.78320  Biso   1.000  C
  H48      1.0000 0.86330  0.31750  0.75030  Biso   1.000  H
  C88      1.0000 0.89348  0.36618  0.79579  Biso   1.000  C
  H49      1.0000 0.90850  0.38500  0.77170  Biso   1.000  H
  C89      1.0000 0.81472  0.25288  0.80319  Biso   1.000  C
  C90      1.0000 0.77382  0.23820  0.82935  Biso   1.000  C
  H50      1.0000 0.76400  0.25580  0.85670  Biso   1.000  H
  O19      1.0000 0.94752  0.44624  0.82824  Biso   1.000  O
  O20      1.0000 0.92569  0.43735  0.90341  Biso   1.000  O
  C91      1.0000 0.07463  0.57703  0.86057  Biso   1.000  C
  C92      1.0000 0.10173  0.62148  0.84472  Biso   1.000  C
  C93      1.0000 0.12787  0.64834  0.87955  Biso   1.000  C
  H51      1.0000 0.12990  0.63760  0.91170  Biso   1.000  H
  C94      1.0000 0.15015  0.69028  0.86554  Biso   1.000  C
  H52      1.0000 0.16160  0.71150  0.88950  Biso   1.000  H
  C95      1.0000 0.15660  0.70283  0.81639  Biso   1.000  C
  C96      1.0000 0.13386  0.67445  0.78320  Biso   1.000  C
  H53      1.0000 0.13670  0.68250  0.75030  Biso   1.000  H
  C97      1.0000 0.10652  0.63382  0.79579  Biso   1.000  C
  H54      1.0000 0.09150  0.61500  0.77170  Biso   1.000  H
  C98      1.0000 0.18528  0.74712  0.80319  Biso   1.000  C
  C99      1.0000 0.22618  0.76180  0.82935  Biso   1.000  C
  H55      1.0000 0.23600  0.74420  0.85670  Biso   1.000  H
  O21      1.0000 0.05248  0.55376  0.82824  Biso   1.000  O
  O22      1.0000 0.07431  0.56265  0.90341  Biso   1.000  O
  C100     1.0000 0.92537  0.57703  0.13943  Biso   1.000  C
  C101     1.0000 0.89827  0.62148  0.15528  Biso   1.000  C
  C102     1.0000 0.87213  0.64834  0.12045  Biso   1.000  C
  H56      1.0000 0.87010  0.63760  0.08830  Biso   1.000  H
  C103     1.0000 0.84985  0.69028  0.13446  Biso   1.000  C
  H57      1.0000 0.83840  0.71150  0.11050  Biso   1.000  H
  C104     1.0000 0.84340  0.70283  0.18361  Biso   1.000  C
  C105     1.0000 0.86614  0.67445  0.21680  Biso   1.000  C
  H58      1.0000 0.86330  0.68250  0.24970  Biso   1.000  H
  C106     1.0000 0.89348  0.63382  0.20421  Biso   1.000  C
  H59      1.0000 0.90850  0.61500  0.22830  Biso   1.000  H
  C107     1.0000 0.81472  0.74712  0.19681  Biso   1.000  C
  C108     1.0000 0.77382  0.76180  0.17065  Biso   1.000  C
  H60      1.0000 0.76400  0.74420  0.14330  Biso   1.000  H
  O23      1.0000 0.94752  0.55376  0.17176  Biso   1.000  O
  O24      1.0000 0.92569  0.56265  0.09659  Biso   1.000  O
  C109     1.0000 0.86057  0.92537  0.57703  Biso   1.000  C
  C110     1.0000 0.84472  0.89827  0.62148  Biso   1.000  C
  C111     1.0000 0.87955  0.87213  0.64834  Biso   1.000  C
  H61      1.0000 0.91170  0.87010  0.63760  Biso   1.000  H
  C112     1.0000 0.86554  0.84985  0.69028  Biso   1.000  C
  H62      1.0000 0.88950  0.83840  0.71150  Biso   1.000  H
  C113     1.0000 0.81639  0.84340  0.70283  Biso   1.000  C
  C114     1.0000 0.78320  0.86614  0.67445  Biso   1.000  C
  H63      1.0000 0.75030  0.86330  0.68250  Biso   1.000  H
  C115     1.0000 0.79579  0.89348  0.63382  Biso   1.000  C
  H64      1.0000 0.77170  0.90850  0.61500  Biso   1.000  H
  C116     1.0000 0.80319  0.81472  0.74712  Biso   1.000  C
  C117     1.0000 0.82935  0.77382  0.76180  Biso   1.000  C
  H65      1.0000 0.85670  0.76400  0.74420  Biso   1.000  H
  O25      1.0000 0.82824  0.94752  0.55376  Biso   1.000  O
  O26      1.0000 0.90341  0.92569  0.56265  Biso   1.000  O
  C118     1.0000 0.13943  0.07463  0.57703  Biso   1.000  C
  C119     1.0000 0.15528  0.10173  0.62148  Biso   1.000  C
  C120     1.0000 0.12045  0.12787  0.64834  Biso   1.000  C
  H66      1.0000 0.08830  0.12990  0.63760  Biso   1.000  H
  C121     1.0000 0.13446  0.15015  0.69028  Biso   1.000  C
  H67      1.0000 0.11050  0.16160  0.71150  Biso   1.000  H
  C122     1.0000 0.18361  0.15660  0.70283  Biso   1.000  C
  C123     1.0000 0.21680  0.13386  0.67445  Biso   1.000  C
  H68      1.0000 0.24970  0.13670  0.68250  Biso   1.000  H
  C124     1.0000 0.20421  0.10652  0.63382  Biso   1.000  C
  H69      1.0000 0.22830  0.09150  0.61500  Biso   1.000  H
  C125     1.0000 0.19681  0.18528  0.74712  Biso   1.000  C
  C126     1.0000 0.17065  0.22618  0.76180  Biso   1.000  C
  H70      1.0000 0.14330  0.23600  0.74420  Biso   1.000  H
  O27      1.0000 0.17176  0.05248  0.55376  Biso   1.000  O
  O28      1.0000 0.09659  0.07431  0.56265  Biso   1.000  O
  C127     1.0000 0.13943  0.92537  0.42297  Biso   1.000  C
  C128     1.0000 0.15528  0.89827  0.37852  Biso   1.000  C
  C129     1.0000 0.12045  0.87213  0.35166  Biso   1.000  C
  H71      1.0000 0.08830  0.87010  0.36240  Biso   1.000  H
  C130     1.0000 0.13446  0.84985  0.30972  Biso   1.000  C
  H72      1.0000 0.11050  0.83840  0.28850  Biso   1.000  H
  C131     1.0000 0.18361  0.84340  0.29717  Biso   1.000  C
  C132     1.0000 0.21680  0.86614  0.32555  Biso   1.000  C
  H73      1.0000 0.24970  0.86330  0.31750  Biso   1.000  H
  C133     1.0000 0.20421  0.89348  0.36618  Biso   1.000  C
  H74      1.0000 0.22830  0.90850  0.38500  Biso   1.000  H
  C134     1.0000 0.19681  0.81472  0.25288  Biso   1.000  C
  C135     1.0000 0.17065  0.77382  0.23820  Biso   1.000  C
  H75      1.0000 0.14330  0.76400  0.25580  Biso   1.000  H
  O29      1.0000 0.17176  0.94752  0.44624  Biso   1.000  O
  O30      1.0000 0.09659  0.92569  0.43735  Biso   1.000  O
  C136     1.0000 0.86057  0.07463  0.42297  Biso   1.000  C
  C137     1.0000 0.84472  0.10173  0.37852  Biso   1.000  C
  C138     1.0000 0.87955  0.12787  0.35166  Biso   1.000  C
  H76      1.0000 0.91170  0.12990  0.36240  Biso   1.000  H
  C139     1.0000 0.86554  0.15015  0.30972  Biso   1.000  C
  H77      1.0000 0.88950  0.16160  0.28850  Biso   1.000  H
  C140     1.0000 0.81639  0.15660  0.29717  Biso   1.000  C
  C141     1.0000 0.78320  0.13386  0.32555  Biso   1.000  C
  H78      1.0000 0.75030  0.13670  0.31750  Biso   1.000  H
  C142     1.0000 0.79579  0.10652  0.36618  Biso   1.000  C
  H79      1.0000 0.77170  0.09150  0.38500  Biso   1.000  H
  C143     1.0000 0.80319  0.18528  0.25288  Biso   1.000  C
  C144     1.0000 0.82935  0.22618  0.23820  Biso   1.000  C
  H80      1.0000 0.85670  0.23600  0.25580  Biso   1.000  H
  O31      1.0000 0.82824  0.05248  0.44624  Biso   1.000  O
  O32      1.0000 0.90341  0.07431  0.43735  Biso   1.000  O
  C145     1.0000 0.57703  0.86057  0.92537  Biso   1.000  C
  C146     1.0000 0.62148  0.84472  0.89827  Biso   1.000  C
  C147     1.0000 0.64834  0.87955  0.87213  Biso   1.000  C
  H81      1.0000 0.63760  0.91170  0.87010  Biso   1.000  H
  C148     1.0000 0.69028  0.86554  0.84985  Biso   1.000  C
  H82      1.0000 0.71150  0.88950  0.83840  Biso   1.000  H
  C149     1.0000 0.70283  0.81639  0.84340  Biso   1.000  C
  C150     1.0000 0.67445  0.78320  0.86614  Biso   1.000  C
  H83      1.0000 0.68250  0.75030  0.86330  Biso   1.000  H
  C151     1.0000 0.63382  0.79579  0.89348  Biso   1.000  C
  H84      1.0000 0.61500  0.77170  0.90850  Biso   1.000  H
  C152     1.0000 0.74712  0.80319  0.81472  Biso   1.000  C
  C153     1.0000 0.76180  0.82935  0.77382  Biso   1.000  C
  H85      1.0000 0.74420  0.85670  0.76400  Biso   1.000  H
  O33      1.0000 0.55376  0.82824  0.94752  Biso   1.000  O
  O34      1.0000 0.56265  0.90341  0.92569  Biso   1.000  O
  C154     1.0000 0.57703  0.13943  0.07463  Biso   1.000  C
  C155     1.0000 0.62148  0.15528  0.10173  Biso   1.000  C
  C156     1.0000 0.64834  0.12045  0.12787  Biso   1.000  C
  H86      1.0000 0.63760  0.08830  0.12990  Biso   1.000  H
  C157     1.0000 0.69028  0.13446  0.15015  Biso   1.000  C
  H87      1.0000 0.71150  0.11050  0.16160  Biso   1.000  H
  C158     1.0000 0.70283  0.18361  0.15660  Biso   1.000  C
  C159     1.0000 0.67445  0.21680  0.13386  Biso   1.000  C
  H88      1.0000 0.68250  0.24970  0.13670  Biso   1.000  H
  C160     1.0000 0.63382  0.20421  0.10652  Biso   1.000  C
  H89      1.0000 0.61500  0.22830  0.09150  Biso   1.000  H
  C161     1.0000 0.74712  0.19681  0.18528  Biso   1.000  C
  C162     1.0000 0.76180  0.17065  0.22618  Biso   1.000  C
  H90      1.0000 0.74420  0.14330  0.23600  Biso   1.000  H
  O35      1.0000 0.55376  0.17176  0.05248  Biso   1.000  O
  O36      1.0000 0.56265  0.09659  0.07431  Biso   1.000  O
  C163     1.0000 0.42297  0.13943  0.92537  Biso   1.000  C
  C164     1.0000 0.37852  0.15528  0.89827  Biso   1.000  C
  C165     1.0000 0.35166  0.12045  0.87213  Biso   1.000  C
  H91      1.0000 0.36240  0.08830  0.87010  Biso   1.000  H
  C166     1.0000 0.30972  0.13446  0.84985  Biso   1.000  C
  H92      1.0000 0.28850  0.11050  0.83840  Biso   1.000  H
  C167     1.0000 0.29717  0.18361  0.84340  Biso   1.000  C
  C168     1.0000 0.32555  0.21680  0.86614  Biso   1.000  C
  H93      1.0000 0.31750  0.24970  0.86330  Biso   1.000  H
  C169     1.0000 0.36618  0.20421  0.89348  Biso   1.000  C
  H94      1.0000 0.38500  0.22830  0.90850  Biso   1.000  H
  C170     1.0000 0.25288  0.19681  0.81472  Biso   1.000  C
  C171     1.0000 0.23820  0.17065  0.77382  Biso   1.000  C
  H95      1.0000 0.25580  0.14330  0.76400  Biso   1.000  H
  O37      1.0000 0.44624  0.17176  0.94752  Biso   1.000  O
  O38      1.0000 0.43735  0.09659  0.92569  Biso   1.000  O
  C172     1.0000 0.42297  0.86057  0.07463  Biso   1.000  C
  C173     1.0000 0.37852  0.84472  0.10173  Biso   1.000  C
  C174     1.0000 0.35166  0.87955  0.12787  Biso   1.000  C
  H96      1.0000 0.36240  0.91170  0.12990  Biso   1.000  H
  C175     1.0000 0.30972  0.86554  0.15015  Biso   1.000  C
  H97      1.0000 0.28850  0.88950  0.16160  Biso   1.000  H
  C176     1.0000 0.29717  0.81639  0.15660  Biso   1.000  C
  C177     1.0000 0.32555  0.78320  0.13386  Biso   1.000  C
  H98      1.0000 0.31750  0.75030  0.13670  Biso   1.000  H
  C178     1.0000 0.36618  0.79579  0.10652  Biso   1.000  C
  H99      1.0000 0.38500  0.77170  0.09150  Biso   1.000  H
  C179     1.0000 0.25288  0.80319  0.18528  Biso   1.000  C
  C180     1.0000 0.23820  0.82935  0.22618  Biso   1.000  C
  H100     1.0000 0.25580  0.85670  0.23600  Biso   1.000  H
  O39      1.0000 0.44624  0.82824  0.05248  Biso   1.000  O
  O40      1.0000 0.43735  0.90341  0.07431  Biso   1.000  O
  C181     1.0000 0.92537  0.57703  0.86057  Biso   1.000  C
  C182     1.0000 0.89827  0.62148  0.84472  Biso   1.000  C
  C183     1.0000 0.87213  0.64834  0.87955  Biso   1.000  C
  H101     1.0000 0.87010  0.63760  0.91170  Biso   1.000  H
  C184     1.0000 0.84985  0.69028  0.86554  Biso   1.000  C
  H102     1.0000 0.83840  0.71150  0.88950  Biso   1.000  H
  C185     1.0000 0.84340  0.70283  0.81639  Biso   1.000  C
  C186     1.0000 0.86614  0.67445  0.78320  Biso   1.000  C
  H103     1.0000 0.86330  0.68250  0.75030  Biso   1.000  H
  C187     1.0000 0.89348  0.63382  0.79579  Biso   1.000  C
  H104     1.0000 0.90850  0.61500  0.77170  Biso   1.000  H
  C188     1.0000 0.81472  0.74712  0.80319  Biso   1.000  C
  C189     1.0000 0.77382  0.76180  0.82935  Biso   1.000  C
  H105     1.0000 0.76400  0.74420  0.85670  Biso   1.000  H
  O41      1.0000 0.94752  0.55376  0.82824  Biso   1.000  O
  O42      1.0000 0.92569  0.56265  0.90341  Biso   1.000  O
  C190     1.0000 0.07463  0.57703  0.13943  Biso   1.000  C
  C191     1.0000 0.10173  0.62148  0.15528  Biso   1.000  C
  C192     1.0000 0.12787  0.64834  0.12045  Biso   1.000  C
  H106     1.0000 0.12990  0.63760  0.08830  Biso   1.000  H
  C193     1.0000 0.15015  0.69028  0.13446  Biso   1.000  C
  H107     1.0000 0.16160  0.71150  0.11050  Biso   1.000  H
  C194     1.0000 0.15660  0.70283  0.18361  Biso   1.000  C
  C195     1.0000 0.13386  0.67445  0.21680  Biso   1.000  C
  H108     1.0000 0.13670  0.68250  0.24970  Biso   1.000  H
  C196     1.0000 0.10652  0.63382  0.20421  Biso   1.000  C
  H109     1.0000 0.09150  0.61500  0.22830  Biso   1.000  H
  C197     1.0000 0.18528  0.74712  0.19681  Biso   1.000  C
  C198     1.0000 0.22618  0.76180  0.17065  Biso   1.000  C
  H110     1.0000 0.23600  0.74420  0.14330  Biso   1.000  H
  O43      1.0000 0.05248  0.55376  0.17176  Biso   1.000  O
  O44      1.0000 0.07431  0.56265  0.09659  Biso   1.000  O
  C199     1.0000 0.92537  0.42297  0.13943  Biso   1.000  C
  C200     1.0000 0.89827  0.37852  0.15528  Biso   1.000  C
  C201     1.0000 0.87213  0.35166  0.12045  Biso   1.000  C
  H111     1.0000 0.87010  0.36240  0.08830  Biso   1.000  H
  C202     1.0000 0.84985  0.30972  0.13446  Biso   1.000  C
  H112     1.0000 0.83840  0.28850  0.11050  Biso   1.000  H
  C203     1.0000 0.84340  0.29717  0.18361  Biso   1.000  C
  C204     1.0000 0.86614  0.32555  0.21680  Biso   1.000  C
  H113     1.0000 0.86330  0.31750  0.24970  Biso   1.000  H
  C205     1.0000 0.89348  0.36618  0.20421  Biso   1.000  C
  H114     1.0000 0.90850  0.38500  0.22830  Biso   1.000  H
  C206     1.0000 0.81472  0.25288  0.19681  Biso   1.000  C
  C207     1.0000 0.77382  0.23820  0.17065  Biso   1.000  C
  H115     1.0000 0.76400  0.25580  0.14330  Biso   1.000  H
  O45      1.0000 0.94752  0.44624  0.17176  Biso   1.000  O
  O46      1.0000 0.92569  0.43735  0.09659  Biso   1.000  O
  C208     1.0000 0.07463  0.42297  0.86057  Biso   1.000  C
  C209     1.0000 0.10173  0.37852  0.84472  Biso   1.000  C
  C210     1.0000 0.12787  0.35166  0.87955  Biso   1.000  C
  H116     1.0000 0.12990  0.36240  0.91170  Biso   1.000  H
  C211     1.0000 0.15015  0.30972  0.86554  Biso   1.000  C
  H117     1.0000 0.16160  0.28850  0.88950  Biso   1.000  H
  C212     1.0000 0.15660  0.29717  0.81639  Biso   1.000  C
  C213     1.0000 0.13386  0.32555  0.78320  Biso   1.000  C
  H118     1.0000 0.13670  0.31750  0.75030  Biso   1.000  H
  C214     1.0000 0.10652  0.36618  0.79579  Biso   1.000  C
  H119     1.0000 0.09150  0.38500  0.77170  Biso   1.000  H
  C215     1.0000 0.18528  0.25288  0.80319  Biso   1.000  C
  C216     1.0000 0.22618  0.23820  0.82935  Biso   1.000  C
  H120     1.0000 0.23600  0.25580  0.85670  Biso   1.000  H
  O47      1.0000 0.05248  0.44624  0.82824  Biso   1.000  O
  O48      1.0000 0.07431  0.43735  0.90341  Biso   1.000  O
  Mg1      1.0000 0.17218  0.00000  0.50000  Biso   1.000  Mg
  Mg2      1.0000 0.82782  0.00000  0.50000  Biso   1.000  Mg
  Mg3      1.0000 0.50000  0.17218  0.00000  Biso   1.000  Mg
  Mg4      1.0000 0.50000  0.82782  0.00000  Biso   1.000  Mg
  Mg5      1.0000 0.00000  0.50000  0.17218  Biso   1.000  Mg
  Mg6      1.0000 0.00000  0.50000  0.82782  Biso   1.000  Mg
  C217     1.0000 0.63943  0.57463  0.92297  Biso   1.000  C
  C218     1.0000 0.65528  0.60173  0.87852  Biso   1.000  C
  C219     1.0000 0.62045  0.62787  0.85166  Biso   1.000  C
  H121     1.0000 0.58830  0.62990  0.86240  Biso   1.000  H
  C220     1.0000 0.63446  0.65015  0.80972  Biso   1.000  C
  H122     1.0000 0.61050  0.66160  0.78850  Biso   1.000  H
  C221     1.0000 0.68361  0.65660  0.79717  Biso   1.000  C
  C222     1.0000 0.71680  0.63386  0.82555  Biso   1.000  C
  H123     1.0000 0.74970  0.63670  0.81750  Biso   1.000  H
  C223     1.0000 0.70421  0.60652  0.86618  Biso   1.000  C
  H124     1.0000 0.72830  0.59150  0.88500  Biso   1.000  H
  C224     1.0000 0.69681  0.68528  0.75288  Biso   1.000  C
  C225     1.0000 0.67065  0.72618  0.73820  Biso   1.000  C
  H125     1.0000 0.64330  0.73600  0.75580  Biso   1.000  H
  O49      1.0000 0.67176  0.55248  0.94624  Biso   1.000  O
  O50      1.0000 0.59659  0.57431  0.93735  Biso   1.000  O
  C226     1.0000 0.36057  0.42537  0.92297  Biso   1.000  C
  C227     1.0000 0.34472  0.39827  0.87852  Biso   1.000  C
  C228     1.0000 0.37955  0.37213  0.85166  Biso   1.000  C
  H126     1.0000 0.41170  0.37010  0.86240  Biso   1.000  H
  C229     1.0000 0.36554  0.34985  0.80972  Biso   1.000  C
  H127     1.0000 0.38950  0.33840  0.78850  Biso   1.000  H
  C230     1.0000 0.31639  0.34340  0.79717  Biso   1.000  C
  C231     1.0000 0.28320  0.36614  0.82555  Biso   1.000  C
  H128     1.0000 0.25030  0.36330  0.81750  Biso   1.000  H
  C232     1.0000 0.29579  0.39348  0.86618  Biso   1.000  C
  H129     1.0000 0.27170  0.40850  0.88500  Biso   1.000  H
  C233     1.0000 0.30319  0.31472  0.75288  Biso   1.000  C
  C234     1.0000 0.32935  0.27382  0.73820  Biso   1.000  C
  H130     1.0000 0.35670  0.26400  0.75580  Biso   1.000  H
  O51      1.0000 0.32824  0.44752  0.94624  Biso   1.000  O
  O52      1.0000 0.40341  0.42569  0.93735  Biso   1.000  O
  C235     1.0000 0.36057  0.57463  0.07703  Biso   1.000  C
  C236     1.0000 0.34472  0.60173  0.12148  Biso   1.000  C
  C237     1.0000 0.37955  0.62787  0.14834  Biso   1.000  C
  H131     1.0000 0.41170  0.62990  0.13760  Biso   1.000  H
  C238     1.0000 0.36554  0.65015  0.19028  Biso   1.000  C
  H132     1.0000 0.38950  0.66160  0.21150  Biso   1.000  H
  C239     1.0000 0.31639  0.65660  0.20283  Biso   1.000  C
  C240     1.0000 0.28320  0.63386  0.17445  Biso   1.000  C
  H133     1.0000 0.25030  0.63670  0.18250  Biso   1.000  H
  C241     1.0000 0.29579  0.60652  0.13382  Biso   1.000  C
  H134     1.0000 0.27170  0.59150  0.11500  Biso   1.000  H
  C242     1.0000 0.30319  0.68528  0.24712  Biso   1.000  C
  C243     1.0000 0.32935  0.72618  0.26180  Biso   1.000  C
  H135     1.0000 0.35670  0.73600  0.24420  Biso   1.000  H
  O53      1.0000 0.32824  0.55248  0.05376  Biso   1.000  O
  O54      1.0000 0.40341  0.57431  0.06265  Biso   1.000  O
  C244     1.0000 0.63943  0.42537  0.07703  Biso   1.000  C
  C245     1.0000 0.65528  0.39827  0.12148  Biso   1.000  C
  C246     1.0000 0.62045  0.37213  0.14834  Biso   1.000  C
  H136     1.0000 0.58830  0.37010  0.13760  Biso   1.000  H
  C247     1.0000 0.63446  0.34985  0.19028  Biso   1.000  C
  H137     1.0000 0.61050  0.33840  0.21150  Biso   1.000  H
  C248     1.0000 0.68361  0.34340  0.20283  Biso   1.000  C
  C249     1.0000 0.71680  0.36614  0.17445  Biso   1.000  C
  H138     1.0000 0.74970  0.36330  0.18250  Biso   1.000  H
  C250     1.0000 0.70421  0.39348  0.13382  Biso   1.000  C
  H139     1.0000 0.72830  0.40850  0.11500  Biso   1.000  H
  C251     1.0000 0.69681  0.31472  0.24712  Biso   1.000  C
  C252     1.0000 0.67065  0.27382  0.26180  Biso   1.000  C
  H140     1.0000 0.64330  0.26400  0.24420  Biso   1.000  H
  O55      1.0000 0.67176  0.44752  0.05376  Biso   1.000  O
  O56      1.0000 0.59659  0.42569  0.06265  Biso   1.000  O
  C253     1.0000 0.92297  0.63943  0.57463  Biso   1.000  C
  C254     1.0000 0.87852  0.65528  0.60173  Biso   1.000  C
  C255     1.0000 0.85166  0.62045  0.62787  Biso   1.000  C
  H141     1.0000 0.86240  0.58830  0.62990  Biso   1.000  H
  C256     1.0000 0.80972  0.63446  0.65015  Biso   1.000  C
  H142     1.0000 0.78850  0.61050  0.66160  Biso   1.000  H
  C257     1.0000 0.79717  0.68361  0.65660  Biso   1.000  C
  C258     1.0000 0.82555  0.71680  0.63386  Biso   1.000  C
  H143     1.0000 0.81750  0.74970  0.63670  Biso   1.000  H
  C259     1.0000 0.86618  0.70421  0.60652  Biso   1.000  C
  H144     1.0000 0.88500  0.72830  0.59150  Biso   1.000  H
  C260     1.0000 0.75288  0.69681  0.68528  Biso   1.000  C
  C261     1.0000 0.73820  0.67065  0.72618  Biso   1.000  C
  H145     1.0000 0.75580  0.64330  0.73600  Biso   1.000  H
  O57      1.0000 0.94624  0.67176  0.55248  Biso   1.000  O
  O58      1.0000 0.93735  0.59659  0.57431  Biso   1.000  O
  C262     1.0000 0.92297  0.36057  0.42537  Biso   1.000  C
  C263     1.0000 0.87852  0.34472  0.39827  Biso   1.000  C
  C264     1.0000 0.85166  0.37955  0.37213  Biso   1.000  C
  H146     1.0000 0.86240  0.41170  0.37010  Biso   1.000  H
  C265     1.0000 0.80972  0.36554  0.34985  Biso   1.000  C
  H147     1.0000 0.78850  0.38950  0.33840  Biso   1.000  H
  C266     1.0000 0.79717  0.31639  0.34340  Biso   1.000  C
  C267     1.0000 0.82555  0.28320  0.36614  Biso   1.000  C
  H148     1.0000 0.81750  0.25030  0.36330  Biso   1.000  H
  C268     1.0000 0.86618  0.29579  0.39348  Biso   1.000  C
  H149     1.0000 0.88500  0.27170  0.40850  Biso   1.000  H
  C269     1.0000 0.75288  0.30319  0.31472  Biso   1.000  C
  C270     1.0000 0.73820  0.32935  0.27382  Biso   1.000  C
  H150     1.0000 0.75580  0.35670  0.26400  Biso   1.000  H
  O59      1.0000 0.94624  0.32824  0.44752  Biso   1.000  O
  O60      1.0000 0.93735  0.40341  0.42569  Biso   1.000  O
  C271     1.0000 0.07703  0.36057  0.57463  Biso   1.000  C
  C272     1.0000 0.12148  0.34472  0.60173  Biso   1.000  C
  C273     1.0000 0.14834  0.37955  0.62787  Biso   1.000  C
  H151     1.0000 0.13760  0.41170  0.62990  Biso   1.000  H
  C274     1.0000 0.19028  0.36554  0.65015  Biso   1.000  C
  H152     1.0000 0.21150  0.38950  0.66160  Biso   1.000  H
  C275     1.0000 0.20283  0.31639  0.65660  Biso   1.000  C
  C276     1.0000 0.17445  0.28320  0.63386  Biso   1.000  C
  H153     1.0000 0.18250  0.25030  0.63670  Biso   1.000  H
  C277     1.0000 0.13382  0.29579  0.60652  Biso   1.000  C
  H154     1.0000 0.11500  0.27170  0.59150  Biso   1.000  H
  C278     1.0000 0.24712  0.30319  0.68528  Biso   1.000  C
  C279     1.0000 0.26180  0.32935  0.72618  Biso   1.000  C
  H155     1.0000 0.24420  0.35670  0.73600  Biso   1.000  H
  O61      1.0000 0.05376  0.32824  0.55248  Biso   1.000  O
  O62      1.0000 0.06265  0.40341  0.57431  Biso   1.000  O
  C280     1.0000 0.07703  0.63943  0.42537  Biso   1.000  C
  C281     1.0000 0.12148  0.65528  0.39827  Biso   1.000  C
  C282     1.0000 0.14834  0.62045  0.37213  Biso   1.000  C
  H156     1.0000 0.13760  0.58830  0.37010  Biso   1.000  H
  C283     1.0000 0.19028  0.63446  0.34985  Biso   1.000  C
  H157     1.0000 0.21150  0.61050  0.33840  Biso   1.000  H
  C284     1.0000 0.20283  0.68361  0.34340  Biso   1.000  C
  C285     1.0000 0.17445  0.71680  0.36614  Biso   1.000  C
  H158     1.0000 0.18250  0.74970  0.36330  Biso   1.000  H
  C286     1.0000 0.13382  0.70421  0.39348  Biso   1.000  C
  H159     1.0000 0.11500  0.72830  0.40850  Biso   1.000  H
  C287     1.0000 0.24712  0.69681  0.31472  Biso   1.000  C
  C288     1.0000 0.26180  0.67065  0.27382  Biso   1.000  C
  H160     1.0000 0.24420  0.64330  0.26400  Biso   1.000  H
  O63      1.0000 0.05376  0.67176  0.44752  Biso   1.000  O
  O64      1.0000 0.06265  0.59659  0.42569  Biso   1.000  O
  C289     1.0000 0.57463  0.92297  0.63943  Biso   1.000  C
  C290     1.0000 0.60173  0.87852  0.65528  Biso   1.000  C
  C291     1.0000 0.62787  0.85166  0.62045  Biso   1.000  C
  H161     1.0000 0.62990  0.86240  0.58830  Biso   1.000  H
  C292     1.0000 0.65015  0.80972  0.63446  Biso   1.000  C
  H162     1.0000 0.66160  0.78850  0.61050  Biso   1.000  H
  C293     1.0000 0.65660  0.79717  0.68361  Biso   1.000  C
  C294     1.0000 0.63386  0.82555  0.71680  Biso   1.000  C
  H163     1.0000 0.63670  0.81750  0.74970  Biso   1.000  H
  C295     1.0000 0.60652  0.86618  0.70421  Biso   1.000  C
  H164     1.0000 0.59150  0.88500  0.72830  Biso   1.000  H
  C296     1.0000 0.68528  0.75288  0.69681  Biso   1.000  C
  C297     1.0000 0.72618  0.73820  0.67065  Biso   1.000  C
  H165     1.0000 0.73600  0.75580  0.64330  Biso   1.000  H
  O65      1.0000 0.55248  0.94624  0.67176  Biso   1.000  O
  O66      1.0000 0.57431  0.93735  0.59659  Biso   1.000  O
  C298     1.0000 0.42537  0.92297  0.36057  Biso   1.000  C
  C299     1.0000 0.39827  0.87852  0.34472  Biso   1.000  C
  C300     1.0000 0.37213  0.85166  0.37955  Biso   1.000  C
  H166     1.0000 0.37010  0.86240  0.41170  Biso   1.000  H
  C301     1.0000 0.34985  0.80972  0.36554  Biso   1.000  C
  H167     1.0000 0.33840  0.78850  0.38950  Biso   1.000  H
  C302     1.0000 0.34340  0.79717  0.31639  Biso   1.000  C
  C303     1.0000 0.36614  0.82555  0.28320  Biso   1.000  C
  H168     1.0000 0.36330  0.81750  0.25030  Biso   1.000  H
  C304     1.0000 0.39348  0.86618  0.29579  Biso   1.000  C
  H169     1.0000 0.40850  0.88500  0.27170  Biso   1.000  H
  C305     1.0000 0.31472  0.75288  0.30319  Biso   1.000  C
  C306     1.0000 0.27382  0.73820  0.32935  Biso   1.000  C
  H170     1.0000 0.26400  0.75580  0.35670  Biso   1.000  H
  O67      1.0000 0.44752  0.94624  0.32824  Biso   1.000  O
  O68      1.0000 0.42569  0.93735  0.40341  Biso   1.000  O
  C307     1.0000 0.57463  0.07703  0.36057  Biso   1.000  C
  C308     1.0000 0.60173  0.12148  0.34472  Biso   1.000  C
  C309     1.0000 0.62787  0.14834  0.37955  Biso   1.000  C
  H171     1.0000 0.62990  0.13760  0.41170  Biso   1.000  H
  C310     1.0000 0.65015  0.19028  0.36554  Biso   1.000  C
  H172     1.0000 0.66160  0.21150  0.38950  Biso   1.000  H
  C311     1.0000 0.65660  0.20283  0.31639  Biso   1.000  C
  C312     1.0000 0.63386  0.17445  0.28320  Biso   1.000  C
  H173     1.0000 0.63670  0.18250  0.25030  Biso   1.000  H
  C313     1.0000 0.60652  0.13382  0.29579  Biso   1.000  C
  H174     1.0000 0.59150  0.11500  0.27170  Biso   1.000  H
  C314     1.0000 0.68528  0.24712  0.30319  Biso   1.000  C
  C315     1.0000 0.72618  0.26180  0.32935  Biso   1.000  C
  H175     1.0000 0.73600  0.24420  0.35670  Biso   1.000  H
  O69      1.0000 0.55248  0.05376  0.32824  Biso   1.000  O
  O70      1.0000 0.57431  0.06265  0.40341  Biso   1.000  O
  C316     1.0000 0.42537  0.07703  0.63943  Biso   1.000  C
  C317     1.0000 0.39827  0.12148  0.65528  Biso   1.000  C
  C318     1.0000 0.37213  0.14834  0.62045  Biso   1.000  C
  H176     1.0000 0.37010  0.13760  0.58830  Biso   1.000  H
  C319     1.0000 0.34985  0.19028  0.63446  Biso   1.000  C
  H177     1.0000 0.33840  0.21150  0.61050  Biso   1.000  H
  C320     1.0000 0.34340  0.20283  0.68361  Biso   1.000  C
  C321     1.0000 0.36614  0.17445  0.71680  Biso   1.000  C
  H178     1.0000 0.36330  0.18250  0.74970  Biso   1.000  H
  C322     1.0000 0.39348  0.13382  0.70421  Biso   1.000  C
  H179     1.0000 0.40850  0.11500  0.72830  Biso   1.000  H
  C323     1.0000 0.31472  0.24712  0.69681  Biso   1.000  C
  C324     1.0000 0.27382  0.26180  0.67065  Biso   1.000  C
  H180     1.0000 0.26400  0.24420  0.64330  Biso   1.000  H
  O71      1.0000 0.44752  0.05376  0.67176  Biso   1.000  O
  O72      1.0000 0.42569  0.06265  0.59659  Biso   1.000  O
  C325     1.0000 0.36057  0.42537  0.07703  Biso   1.000  C
  C326     1.0000 0.34472  0.39827  0.12148  Biso   1.000  C
  C327     1.0000 0.37955  0.37213  0.14834  Biso   1.000  C
  H181     1.0000 0.41170  0.37010  0.13760  Biso   1.000  H
  C328     1.0000 0.36554  0.34985  0.19028  Biso   1.000  C
  H182     1.0000 0.38950  0.33840  0.21150  Biso   1.000  H
  C329     1.0000 0.31639  0.34340  0.20283  Biso   1.000  C
  C330     1.0000 0.28320  0.36614  0.17445  Biso   1.000  C
  H183     1.0000 0.25030  0.36330  0.18250  Biso   1.000  H
  C331     1.0000 0.29579  0.39348  0.13382  Biso   1.000  C
  H184     1.0000 0.27170  0.40850  0.11500  Biso   1.000  H
  C332     1.0000 0.30319  0.31472  0.24712  Biso   1.000  C
  C333     1.0000 0.32935  0.27382  0.26180  Biso   1.000  C
  H185     1.0000 0.35670  0.26400  0.24420  Biso   1.000  H
  O73      1.0000 0.32824  0.44752  0.05376  Biso   1.000  O
  O74      1.0000 0.40341  0.42569  0.06265  Biso   1.000  O
  C334     1.0000 0.63943  0.57463  0.07703  Biso   1.000  C
  C335     1.0000 0.65528  0.60173  0.12148  Biso   1.000  C
  C336     1.0000 0.62045  0.62787  0.14834  Biso   1.000  C
  H186     1.0000 0.58830  0.62990  0.13760  Biso   1.000  H
  C337     1.0000 0.63446  0.65015  0.19028  Biso   1.000  C
  H187     1.0000 0.61050  0.66160  0.21150  Biso   1.000  H
  C338     1.0000 0.68361  0.65660  0.20283  Biso   1.000  C
  C339     1.0000 0.71680  0.63386  0.17445  Biso   1.000  C
  H188     1.0000 0.74970  0.63670  0.18250  Biso   1.000  H
  C340     1.0000 0.70421  0.60652  0.13382  Biso   1.000  C
  H189     1.0000 0.72830  0.59150  0.11500  Biso   1.000  H
  C341     1.0000 0.69681  0.68528  0.24712  Biso   1.000  C
  C342     1.0000 0.67065  0.72618  0.26180  Biso   1.000  C
  H190     1.0000 0.64330  0.73600  0.24420  Biso   1.000  H
  O75      1.0000 0.67176  0.55248  0.05376  Biso   1.000  O
  O76      1.0000 0.59659  0.57431  0.06265  Biso   1.000  O
  C343     1.0000 0.63943  0.42537  0.92297  Biso   1.000  C
  C344     1.0000 0.65528  0.39827  0.87852  Biso   1.000  C
  C345     1.0000 0.62045  0.37213  0.85166  Biso   1.000  C
  H191     1.0000 0.58830  0.37010  0.86240  Biso   1.000  H
  C346     1.0000 0.63446  0.34985  0.80972  Biso   1.000  C
  H192     1.0000 0.61050  0.33840  0.78850  Biso   1.000  H
  C347     1.0000 0.68361  0.34340  0.79717  Biso   1.000  C
  C348     1.0000 0.71680  0.36614  0.82555  Biso   1.000  C
  H193     1.0000 0.74970  0.36330  0.81750  Biso   1.000  H
  C349     1.0000 0.70421  0.39348  0.86618  Biso   1.000  C
  H194     1.0000 0.72830  0.40850  0.88500  Biso   1.000  H
  C350     1.0000 0.69681  0.31472  0.75288  Biso   1.000  C
  C351     1.0000 0.67065  0.27382  0.73820  Biso   1.000  C
  H195     1.0000 0.64330  0.26400  0.75580  Biso   1.000  H
  O77      1.0000 0.67176  0.44752  0.94624  Biso   1.000  O
  O78      1.0000 0.59659  0.42569  0.93735  Biso   1.000  O
  C352     1.0000 0.36057  0.57463  0.92297  Biso   1.000  C
  C353     1.0000 0.34472  0.60173  0.87852  Biso   1.000  C
  C354     1.0000 0.37955  0.62787  0.85166  Biso   1.000  C
  H196     1.0000 0.41170  0.62990  0.86240  Biso   1.000  H
  C355     1.0000 0.36554  0.65015  0.80972  Biso   1.000  C
  H197     1.0000 0.38950  0.66160  0.78850  Biso   1.000  H
  C356     1.0000 0.31639  0.65660  0.79717  Biso   1.000  C
  C357     1.0000 0.28320  0.63386  0.82555  Biso   1.000  C
  H198     1.0000 0.25030  0.63670  0.81750  Biso   1.000  H
  C358     1.0000 0.29579  0.60652  0.86618  Biso   1.000  C
  H199     1.0000 0.27170  0.59150  0.88500  Biso   1.000  H
  C359     1.0000 0.30319  0.68528  0.75288  Biso   1.000  C
  C360     1.0000 0.32935  0.72618  0.73820  Biso   1.000  C
  H200     1.0000 0.35670  0.73600  0.75580  Biso   1.000  H
  O79      1.0000 0.32824  0.55248  0.94624  Biso   1.000  O
  O80      1.0000 0.40341  0.57431  0.93735  Biso   1.000  O
  C361     1.0000 0.07703  0.36057  0.42537  Biso   1.000  C
  C362     1.0000 0.12148  0.34472  0.39827  Biso   1.000  C
  C363     1.0000 0.14834  0.37955  0.37213  Biso   1.000  C
  H201     1.0000 0.13760  0.41170  0.37010  Biso   1.000  H
  C364     1.0000 0.19028  0.36554  0.34985  Biso   1.000  C
  H202     1.0000 0.21150  0.38950  0.33840  Biso   1.000  H
  C365     1.0000 0.20283  0.31639  0.34340  Biso   1.000  C
  C366     1.0000 0.17445  0.28320  0.36614  Biso   1.000  C
  H203     1.0000 0.18250  0.25030  0.36330  Biso   1.000  H
  C367     1.0000 0.13382  0.29579  0.39348  Biso   1.000  C
  H204     1.0000 0.11500  0.27170  0.40850  Biso   1.000  H
  C368     1.0000 0.24712  0.30319  0.31472  Biso   1.000  C
  C369     1.0000 0.26180  0.32935  0.27382  Biso   1.000  C
  H205     1.0000 0.24420  0.35670  0.26400  Biso   1.000  H
  O81      1.0000 0.05376  0.32824  0.44752  Biso   1.000  O
  O82      1.0000 0.06265  0.40341  0.42569  Biso   1.000  O
  C370     1.0000 0.07703  0.63943  0.57463  Biso   1.000  C
  C371     1.0000 0.12148  0.65528  0.60173  Biso   1.000  C
  C372     1.0000 0.14834  0.62045  0.62787  Biso   1.000  C
  H206     1.0000 0.13760  0.58830  0.62990  Biso   1.000  H
  C373     1.0000 0.19028  0.63446  0.65015  Biso   1.000  C
  H207     1.0000 0.21150  0.61050  0.66160  Biso   1.000  H
  C374     1.0000 0.20283  0.68361  0.65660  Biso   1.000  C
  C375     1.0000 0.17445  0.71680  0.63386  Biso   1.000  C
  H208     1.0000 0.18250  0.74970  0.63670  Biso   1.000  H
  C376     1.0000 0.13382  0.70421  0.60652  Biso   1.000  C
  H209     1.0000 0.11500  0.72830  0.59150  Biso   1.000  H
  C377     1.0000 0.24712  0.69681  0.68528  Biso   1.000  C
  C378     1.0000 0.26180  0.67065  0.72618  Biso   1.000  C
  H210     1.0000 0.24420  0.64330  0.73600  Biso   1.000  H
  O83      1.0000 0.05376  0.67176  0.55248  Biso   1.000  O
  O84      1.0000 0.06265  0.59659  0.57431  Biso   1.000  O
  C379     1.0000 0.92297  0.63943  0.42537  Biso   1.000  C
  C380     1.0000 0.87852  0.65528  0.39827  Biso   1.000  C
  C381     1.0000 0.85166  0.62045  0.37213  Biso   1.000  C
  H211     1.0000 0.86240  0.58830  0.37010  Biso   1.000  H
  C382     1.0000 0.80972  0.63446  0.34985  Biso   1.000  C
  H212     1.0000 0.78850  0.61050  0.33840  Biso   1.000  H
  C383     1.0000 0.79717  0.68361  0.34340  Biso   1.000  C
  C384     1.0000 0.82555  0.71680  0.36614  Biso   1.000  C
  H213     1.0000 0.81750  0.74970  0.36330  Biso   1.000  H
  C385     1.0000 0.86618  0.70421  0.39348  Biso   1.000  C
  H214     1.0000 0.88500  0.72830  0.40850  Biso   1.000  H
  C386     1.0000 0.75288  0.69681  0.31472  Biso   1.000  C
  C387     1.0000 0.73820  0.67065  0.27382  Biso   1.000  C
  H215     1.0000 0.75580  0.64330  0.26400  Biso   1.000  H
  O85      1.0000 0.94624  0.67176  0.44752  Biso   1.000  O
  O86      1.0000 0.93735  0.59659  0.42569  Biso   1.000  O
  C388     1.0000 0.92297  0.36057  0.57463  Biso   1.000  C
  C389     1.0000 0.87852  0.34472  0.60173  Biso   1.000  C
  C390     1.0000 0.85166  0.37955  0.62787  Biso   1.000  C
  H216     1.0000 0.86240  0.41170  0.62990  Biso   1.000  H
  C391     1.0000 0.80972  0.36554  0.65015  Biso   1.000  C
  H217     1.0000 0.78850  0.38950  0.66160  Biso   1.000  H
  C392     1.0000 0.79717  0.31639  0.65660  Biso   1.000  C
  C393     1.0000 0.82555  0.28320  0.63386  Biso   1.000  C
  H218     1.0000 0.81750  0.25030  0.63670  Biso   1.000  H
  C394     1.0000 0.86618  0.29579  0.60652  Biso   1.000  C
  H219     1.0000 0.88500  0.27170  0.59150  Biso   1.000  H
  C395     1.0000 0.75288  0.30319  0.68528  Biso   1.000  C
  C396     1.0000 0.73820  0.32935  0.72618  Biso   1.000  C
  H220     1.0000 0.75580  0.35670  0.73600  Biso   1.000  H
  O87      1.0000 0.94624  0.32824  0.55248  Biso   1.000  O
  O88      1.0000 0.93735  0.40341  0.57431  Biso   1.000  O
  C397     1.0000 0.42537  0.07703  0.36057  Biso   1.000  C
  C398     1.0000 0.39827  0.12148  0.34472  Biso   1.000  C
  C399     1.0000 0.37213  0.14834  0.37955  Biso   1.000  C
  H221     1.0000 0.37010  0.13760  0.41170  Biso   1.000  H
  C400     1.0000 0.34985  0.19028  0.36554  Biso   1.000  C
  H222     1.0000 0.33840  0.21150  0.38950  Biso   1.000  H
  C401     1.0000 0.34340  0.20283  0.31639  Biso   1.000  C
  C402     1.0000 0.36614  0.17445  0.28320  Biso   1.000  C
  H223     1.0000 0.36330  0.18250  0.25030  Biso   1.000  H
  C403     1.0000 0.39348  0.13382  0.29579  Biso   1.000  C
  H224     1.0000 0.40850  0.11500  0.27170  Biso   1.000  H
  C404     1.0000 0.31472  0.24712  0.30319  Biso   1.000  C
  C405     1.0000 0.27382  0.26180  0.32935  Biso   1.000  C
  H225     1.0000 0.26400  0.24420  0.35670  Biso   1.000  H
  O89      1.0000 0.44752  0.05376  0.32824  Biso   1.000  O
  O90      1.0000 0.42569  0.06265  0.40341  Biso   1.000  O
  C406     1.0000 0.57463  0.07703  0.63943  Biso   1.000  C
  C407     1.0000 0.60173  0.12148  0.65528  Biso   1.000  C
  C408     1.0000 0.62787  0.14834  0.62045  Biso   1.000  C
  H226     1.0000 0.62990  0.13760  0.58830  Biso   1.000  H
  C409     1.0000 0.65015  0.19028  0.63446  Biso   1.000  C
  H227     1.0000 0.66160  0.21150  0.61050  Biso   1.000  H
  C410     1.0000 0.65660  0.20283  0.68361  Biso   1.000  C
  C411     1.0000 0.63386  0.17445  0.71680  Biso   1.000  C
  H228     1.0000 0.63670  0.18250  0.74970  Biso   1.000  H
  C412     1.0000 0.60652  0.13382  0.70421  Biso   1.000  C
  H229     1.0000 0.59150  0.11500  0.72830  Biso   1.000  H
  C413     1.0000 0.68528  0.24712  0.69681  Biso   1.000  C
  C414     1.0000 0.72618  0.26180  0.67065  Biso   1.000  C
  H230     1.0000 0.73600  0.24420  0.64330  Biso   1.000  H
  O91      1.0000 0.55248  0.05376  0.67176  Biso   1.000  O
  O92      1.0000 0.57431  0.06265  0.59659  Biso   1.000  O
  C415     1.0000 0.42537  0.92297  0.63943  Biso   1.000  C
  C416     1.0000 0.39827  0.87852  0.65528  Biso   1.000  C
  C417     1.0000 0.37213  0.85166  0.62045  Biso   1.000  C
  H231     1.0000 0.37010  0.86240  0.58830  Biso   1.000  H
  C418     1.0000 0.34985  0.80972  0.63446  Biso   1.000  C
  H232     1.0000 0.33840  0.78850  0.61050  Biso   1.000  H
  C419     1.0000 0.34340  0.79717  0.68361  Biso   1.000  C
  C420     1.0000 0.36614  0.82555  0.71680  Biso   1.000  C
  H233     1.0000 0.36330  0.81750  0.74970  Biso   1.000  H
  C421     1.0000 0.39348  0.86618  0.70421  Biso   1.000  C
  H234     1.0000 0.40850  0.88500  0.72830  Biso   1.000  H
  C422     1.0000 0.31472  0.75288  0.69681  Biso   1.000  C
  C423     1.0000 0.27382  0.73820  0.67065  Biso   1.000  C
  H235     1.0000 0.26400  0.75580  0.64330  Biso   1.000  H
  O93      1.0000 0.44752  0.94624  0.67176  Biso   1.000  O
  O94      1.0000 0.42569  0.93735  0.59659  Biso   1.000  O
  C424     1.0000 0.57463  0.92297  0.36057  Biso   1.000  C
  C425     1.0000 0.60173  0.87852  0.34472  Biso   1.000  C
  C426     1.0000 0.62787  0.85166  0.37955  Biso   1.000  C
  H236     1.0000 0.62990  0.86240  0.41170  Biso   1.000  H
  C427     1.0000 0.65015  0.80972  0.36554  Biso   1.000  C
  H237     1.0000 0.66160  0.78850  0.38950  Biso   1.000  H
  C428     1.0000 0.65660  0.79717  0.31639  Biso   1.000  C
  C429     1.0000 0.63386  0.82555  0.28320  Biso   1.000  C
  H238     1.0000 0.63670  0.81750  0.25030  Biso   1.000  H
  C430     1.0000 0.60652  0.86618  0.29579  Biso   1.000  C
  H239     1.0000 0.59150  0.88500  0.27170  Biso   1.000  H
  C431     1.0000 0.68528  0.75288  0.30319  Biso   1.000  C
  C432     1.0000 0.72618  0.73820  0.32935  Biso   1.000  C
  H240     1.0000 0.73600  0.75580  0.35670  Biso   1.000  H
  O95      1.0000 0.55248  0.94624  0.32824  Biso   1.000  O
  O96      1.0000 0.57431  0.93735  0.40341  Biso   1.000  O
  Mg7      1.0000 0.67218  0.50000  0.00000  Biso   1.000  Mg
  Mg8      1.0000 0.32782  0.50000  0.00000  Biso   1.000  Mg
  Mg9      1.0000 0.00000  0.67218  0.50000  Biso   1.000  Mg
  Mg10     1.0000 0.00000  0.32782  0.50000  Biso   1.000  Mg
  Mg11     1.0000 0.50000  0.00000  0.67218  Biso   1.000  Mg
  Mg12     1.0000 0.50000  0.00000  0.32782  Biso   1.000  Mg
