data_image0
_cell_length_a       23.362
_cell_length_b       22.491
_cell_length_c       22.738
_cell_angle_alpha    90
_cell_angle_beta     90
_cell_angle_gamma    90

_symmetry_space_group_name_H-M    "P 1"
_symmetry_int_tables_number       1

loop_
  _symmetry_equiv_pos_as_xyz
  'x, y, z'

loop_
  _atom_site_label
  _atom_site_occupancy
  _atom_site_fract_x
  _atom_site_fract_y
  _atom_site_fract_z
  _atom_site_thermal_displace_type
  _atom_site_B_iso_or_equiv
  _atom_site_type_symbol
  Co1      1.0000 0.51148  0.61571  0.11014  Biso   1.000  Co
  Co2      1.0000 0.52874  0.64602  0.24645  Biso   1.000  Co
  O1       1.0000 0.48650  0.61700  0.00670  Biso   1.000  O
  O2       1.0000 0.54910  0.55920  0.04900  Biso   1.000  O
  O3       1.0000 0.68940  0.45600  0.93980  Biso   1.000  O
  O4       1.0000 0.67460  0.42670  0.84780  Biso   1.000  O
  O5       1.0000 0.52220  0.57980  0.78730  Biso   1.000  O
  O6       1.0000 0.45090  0.57630  0.52330  Biso   1.000  O
  O7       1.0000 0.30310  0.42210  0.47410  Biso   1.000  O
  O8       1.0000 0.30510  0.41770  0.37640  Biso   1.000  O
  O9       1.0000 0.49980  0.59680  0.31180  Biso   1.000  O
  O10      1.0000 0.44570  0.53270  0.26410  Biso   1.000  O
  O11      1.0000 0.54220  0.57730  0.18560  Biso   1.000  O
  C1       1.0000 0.52300  0.58060  0.00400  Biso   1.000  C
  C2       1.0000 0.54660  0.55940  0.94400  Biso   1.000  C
  C3       1.0000 0.52550  0.57420  0.89570  Biso   1.000  C
  H1       1.0000 0.49240  0.59720  0.89640  Biso   1.000  H
  C4       1.0000 0.54770  0.55880  0.84070  Biso   1.000  C
  C5       1.0000 0.58800  0.52010  0.83810  Biso   1.000  C
  H2       1.0000 0.59950  0.50430  0.80220  Biso   1.000  H
  C6       1.0000 0.61360  0.50250  0.88930  Biso   1.000  C
  C7       1.0000 0.59170  0.52090  0.94400  Biso   1.000  C
  H3       1.0000 0.60750  0.50730  0.97900  Biso   1.000  H
  C8       1.0000 0.66360  0.45710  0.89310  Biso   1.000  C
  C9       1.0000 0.55370  0.58500  0.73500  Biso   1.000  C
  H4       1.0000 0.55990  0.54630  0.71730  Biso   1.000  H
  H5       1.0000 0.59050  0.60360  0.74230  Biso   1.000  H
  C10      1.0000 0.51580  0.62500  0.69460  Biso   1.000  C
  H6       1.0000 0.47590  0.62190  0.70610  Biso   1.000  H
  H7       1.0000 0.52740  0.66630  0.69800  Biso   1.000  H
  C11      1.0000 0.52370  0.60310  0.63020  Biso   1.000  C
  H8       1.0000 0.56280  0.61000  0.61750  Biso   1.000  H
  H9       1.0000 0.51600  0.56080  0.62780  Biso   1.000  H
  C12      1.0000 0.48170  0.63780  0.59010  Biso   1.000  C
  H10      1.0000 0.44270  0.63150  0.60370  Biso   1.000  H
  H11      1.0000 0.48990  0.68000  0.59230  Biso   1.000  H
  C13      1.0000 0.48730  0.61650  0.52610  Biso   1.000  C
  H12      1.0000 0.47880  0.64830  0.49860  Biso   1.000  H
  H13      1.0000 0.52540  0.60130  0.51820  Biso   1.000  H
  C14      1.0000 0.43210  0.55110  0.47270  Biso   1.000  C
  C15      1.0000 0.45480  0.56670  0.41900  Biso   1.000  C
  H14      1.0000 0.48430  0.59440  0.41690  Biso   1.000  H
  C16      1.0000 0.43410  0.54120  0.36890  Biso   1.000  C
  C17      1.0000 0.39070  0.49980  0.36870  Biso   1.000  C
  H15      1.0000 0.37710  0.48450  0.33340  Biso   1.000  H
  C18      1.0000 0.36730  0.48100  0.42200  Biso   1.000  C
  C19      1.0000 0.38930  0.50860  0.47440  Biso   1.000  C
  H16      1.0000 0.37420  0.49750  0.51060  Biso   1.000  H
  C20      1.0000 0.32460  0.43900  0.42490  Biso   1.000  C
  C21      1.0000 0.46210  0.55770  0.30930  Biso   1.000  C
  Co3      1.0000 0.51148  0.11571  0.61014  Biso   1.000  Co
  Co4      1.0000 0.52874  0.14602  0.74645  Biso   1.000  Co
  O12      1.0000 0.48650  0.11700  0.50670  Biso   1.000  O
  O13      1.0000 0.54910  0.05920  0.54900  Biso   1.000  O
  O14      1.0000 0.68940  0.95600  0.43980  Biso   1.000  O
  O15      1.0000 0.67460  0.92670  0.34780  Biso   1.000  O
  O16      1.0000 0.52220  0.07980  0.28730  Biso   1.000  O
  O17      1.0000 0.45090  0.07630  0.02330  Biso   1.000  O
  O18      1.0000 0.30310  0.92210  0.97410  Biso   1.000  O
  O19      1.0000 0.30510  0.91770  0.87640  Biso   1.000  O
  O20      1.0000 0.49980  0.09680  0.81180  Biso   1.000  O
  O21      1.0000 0.44570  0.03270  0.76410  Biso   1.000  O
  O22      1.0000 0.54220  0.07730  0.68560  Biso   1.000  O
  C22      1.0000 0.52300  0.08060  0.50400  Biso   1.000  C
  C23      1.0000 0.54660  0.05940  0.44400  Biso   1.000  C
  C24      1.0000 0.52550  0.07420  0.39570  Biso   1.000  C
  H17      1.0000 0.49240  0.09720  0.39640  Biso   1.000  H
  C25      1.0000 0.54770  0.05880  0.34070  Biso   1.000  C
  C26      1.0000 0.58800  0.02010  0.33810  Biso   1.000  C
  H18      1.0000 0.59950  0.00430  0.30220  Biso   1.000  H
  C27      1.0000 0.61360  0.00250  0.38930  Biso   1.000  C
  C28      1.0000 0.59170  0.02090  0.44400  Biso   1.000  C
  H19      1.0000 0.60750  0.00730  0.47900  Biso   1.000  H
  C29      1.0000 0.66360  0.95710  0.39310  Biso   1.000  C
  C30      1.0000 0.55370  0.08500  0.23500  Biso   1.000  C
  H20      1.0000 0.55990  0.04630  0.21730  Biso   1.000  H
  H21      1.0000 0.59050  0.10360  0.24230  Biso   1.000  H
  C31      1.0000 0.51580  0.12500  0.19460  Biso   1.000  C
  H22      1.0000 0.47590  0.12190  0.20610  Biso   1.000  H
  H23      1.0000 0.52740  0.16630  0.19800  Biso   1.000  H
  C32      1.0000 0.52370  0.10310  0.13020  Biso   1.000  C
  H24      1.0000 0.56280  0.11000  0.11750  Biso   1.000  H
  H25      1.0000 0.51600  0.06080  0.12780  Biso   1.000  H
  C33      1.0000 0.48170  0.13780  0.09010  Biso   1.000  C
  H26      1.0000 0.44270  0.13150  0.10370  Biso   1.000  H
  H27      1.0000 0.48990  0.18000  0.09230  Biso   1.000  H
  C34      1.0000 0.48730  0.11650  0.02610  Biso   1.000  C
  H28      1.0000 0.47880  0.14830  0.99860  Biso   1.000  H
  H29      1.0000 0.52540  0.10130  0.01820  Biso   1.000  H
  C35      1.0000 0.43210  0.05110  0.97270  Biso   1.000  C
  C36      1.0000 0.45480  0.06670  0.91900  Biso   1.000  C
  H30      1.0000 0.48430  0.09440  0.91690  Biso   1.000  H
  C37      1.0000 0.43410  0.04120  0.86890  Biso   1.000  C
  C38      1.0000 0.39070  0.99980  0.86870  Biso   1.000  C
  H31      1.0000 0.37710  0.98450  0.83340  Biso   1.000  H
  C39      1.0000 0.36730  0.98100  0.92200  Biso   1.000  C
  C40      1.0000 0.38930  0.00860  0.97440  Biso   1.000  C
  H32      1.0000 0.37420  0.99750  0.01060  Biso   1.000  H
  C41      1.0000 0.32460  0.93900  0.92490  Biso   1.000  C
  C42      1.0000 0.46210  0.05770  0.80930  Biso   1.000  C
  Co5      1.0000 0.01148  0.61571  0.61014  Biso   1.000  Co
  Co6      1.0000 0.02874  0.64602  0.74645  Biso   1.000  Co
  O23      1.0000 0.98650  0.61700  0.50670  Biso   1.000  O
  O24      1.0000 0.04910  0.55920  0.54900  Biso   1.000  O
  O25      1.0000 0.18940  0.45600  0.43980  Biso   1.000  O
  O26      1.0000 0.17460  0.42670  0.34780  Biso   1.000  O
  O27      1.0000 0.02220  0.57980  0.28730  Biso   1.000  O
  O28      1.0000 0.95090  0.57630  0.02330  Biso   1.000  O
  O29      1.0000 0.80310  0.42210  0.97410  Biso   1.000  O
  O30      1.0000 0.80510  0.41770  0.87640  Biso   1.000  O
  O31      1.0000 0.99980  0.59680  0.81180  Biso   1.000  O
  O32      1.0000 0.94570  0.53270  0.76410  Biso   1.000  O
  O33      1.0000 0.04220  0.57730  0.68560  Biso   1.000  O
  C43      1.0000 0.02300  0.58060  0.50400  Biso   1.000  C
  C44      1.0000 0.04660  0.55940  0.44400  Biso   1.000  C
  C45      1.0000 0.02550  0.57420  0.39570  Biso   1.000  C
  H33      1.0000 0.99240  0.59720  0.39640  Biso   1.000  H
  C46      1.0000 0.04770  0.55880  0.34070  Biso   1.000  C
  C47      1.0000 0.08800  0.52010  0.33810  Biso   1.000  C
  H34      1.0000 0.09950  0.50430  0.30220  Biso   1.000  H
  C48      1.0000 0.11360  0.50250  0.38930  Biso   1.000  C
  C49      1.0000 0.09170  0.52090  0.44400  Biso   1.000  C
  H35      1.0000 0.10750  0.50730  0.47900  Biso   1.000  H
  C50      1.0000 0.16360  0.45710  0.39310  Biso   1.000  C
  C51      1.0000 0.05370  0.58500  0.23500  Biso   1.000  C
  H36      1.0000 0.05990  0.54630  0.21730  Biso   1.000  H
  H37      1.0000 0.09050  0.60360  0.24230  Biso   1.000  H
  C52      1.0000 0.01580  0.62500  0.19460  Biso   1.000  C
  H38      1.0000 0.97590  0.62190  0.20610  Biso   1.000  H
  H39      1.0000 0.02740  0.66630  0.19800  Biso   1.000  H
  C53      1.0000 0.02370  0.60310  0.13020  Biso   1.000  C
  H40      1.0000 0.06280  0.61000  0.11750  Biso   1.000  H
  H41      1.0000 0.01600  0.56080  0.12780  Biso   1.000  H
  C54      1.0000 0.98170  0.63780  0.09010  Biso   1.000  C
  H42      1.0000 0.94270  0.63150  0.10370  Biso   1.000  H
  H43      1.0000 0.98990  0.68000  0.09230  Biso   1.000  H
  C55      1.0000 0.98730  0.61650  0.02610  Biso   1.000  C
  H44      1.0000 0.97880  0.64830  0.99860  Biso   1.000  H
  H45      1.0000 0.02540  0.60130  0.01820  Biso   1.000  H
  C56      1.0000 0.93210  0.55110  0.97270  Biso   1.000  C
  C57      1.0000 0.95480  0.56670  0.91900  Biso   1.000  C
  H46      1.0000 0.98430  0.59440  0.91690  Biso   1.000  H
  C58      1.0000 0.93410  0.54120  0.86890  Biso   1.000  C
  C59      1.0000 0.89070  0.49980  0.86870  Biso   1.000  C
  H47      1.0000 0.87710  0.48450  0.83340  Biso   1.000  H
  C60      1.0000 0.86730  0.48100  0.92200  Biso   1.000  C
  C61      1.0000 0.88930  0.50860  0.97440  Biso   1.000  C
  H48      1.0000 0.87420  0.49750  0.01060  Biso   1.000  H
  C62      1.0000 0.82460  0.43900  0.92490  Biso   1.000  C
  C63      1.0000 0.96210  0.55770  0.80930  Biso   1.000  C
  Co7      1.0000 0.01148  0.11571  0.11014  Biso   1.000  Co
  Co8      1.0000 0.02874  0.14602  0.24645  Biso   1.000  Co
  O34      1.0000 0.98650  0.11700  0.00670  Biso   1.000  O
  O35      1.0000 0.04910  0.05920  0.04900  Biso   1.000  O
  O36      1.0000 0.18940  0.95600  0.93980  Biso   1.000  O
  O37      1.0000 0.17460  0.92670  0.84780  Biso   1.000  O
  O38      1.0000 0.02220  0.07980  0.78730  Biso   1.000  O
  O39      1.0000 0.95090  0.07630  0.52330  Biso   1.000  O
  O40      1.0000 0.80310  0.92210  0.47410  Biso   1.000  O
  O41      1.0000 0.80510  0.91770  0.37640  Biso   1.000  O
  O42      1.0000 0.99980  0.09680  0.31180  Biso   1.000  O
  O43      1.0000 0.94570  0.03270  0.26410  Biso   1.000  O
  O44      1.0000 0.04220  0.07730  0.18560  Biso   1.000  O
  C64      1.0000 0.02300  0.08060  0.00400  Biso   1.000  C
  C65      1.0000 0.04660  0.05940  0.94400  Biso   1.000  C
  C66      1.0000 0.02550  0.07420  0.89570  Biso   1.000  C
  H49      1.0000 0.99240  0.09720  0.89640  Biso   1.000  H
  C67      1.0000 0.04770  0.05880  0.84070  Biso   1.000  C
  C68      1.0000 0.08800  0.02010  0.83810  Biso   1.000  C
  H50      1.0000 0.09950  0.00430  0.80220  Biso   1.000  H
  C69      1.0000 0.11360  0.00250  0.88930  Biso   1.000  C
  C70      1.0000 0.09170  0.02090  0.94400  Biso   1.000  C
  H51      1.0000 0.10750  0.00730  0.97900  Biso   1.000  H
  C71      1.0000 0.16360  0.95710  0.89310  Biso   1.000  C
  C72      1.0000 0.05370  0.08500  0.73500  Biso   1.000  C
  H52      1.0000 0.05990  0.04630  0.71730  Biso   1.000  H
  H53      1.0000 0.09050  0.10360  0.74230  Biso   1.000  H
  C73      1.0000 0.01580  0.12500  0.69460  Biso   1.000  C
  H54      1.0000 0.97590  0.12190  0.70610  Biso   1.000  H
  H55      1.0000 0.02740  0.16630  0.69800  Biso   1.000  H
  C74      1.0000 0.02370  0.10310  0.63020  Biso   1.000  C
  H56      1.0000 0.06280  0.11000  0.61750  Biso   1.000  H
  H57      1.0000 0.01600  0.06080  0.62780  Biso   1.000  H
  C75      1.0000 0.98170  0.13780  0.59010  Biso   1.000  C
  H58      1.0000 0.94270  0.13150  0.60370  Biso   1.000  H
  H59      1.0000 0.98990  0.18000  0.59230  Biso   1.000  H
  C76      1.0000 0.98730  0.11650  0.52610  Biso   1.000  C
  H60      1.0000 0.97880  0.14830  0.49860  Biso   1.000  H
  H61      1.0000 0.02540  0.10130  0.51820  Biso   1.000  H
  C77      1.0000 0.93210  0.05110  0.47270  Biso   1.000  C
  C78      1.0000 0.95480  0.06670  0.41900  Biso   1.000  C
  H62      1.0000 0.98430  0.09440  0.41690  Biso   1.000  H
  C79      1.0000 0.93410  0.04120  0.36890  Biso   1.000  C
  C80      1.0000 0.89070  0.99980  0.36870  Biso   1.000  C
  H63      1.0000 0.87710  0.98450  0.33340  Biso   1.000  H
  C81      1.0000 0.86730  0.98100  0.42200  Biso   1.000  C
  C82      1.0000 0.88930  0.00860  0.47440  Biso   1.000  C
  H64      1.0000 0.87420  0.99750  0.51060  Biso   1.000  H
  C83      1.0000 0.82460  0.93900  0.42490  Biso   1.000  C
  C84      1.0000 0.96210  0.05770  0.30930  Biso   1.000  C
  Co9      1.0000 0.48852  0.38429  0.11014  Biso   1.000  Co
  Co10     1.0000 0.47126  0.35398  0.24645  Biso   1.000  Co
  O45      1.0000 0.51350  0.38300  0.00670  Biso   1.000  O
  O46      1.0000 0.45090  0.44080  0.04900  Biso   1.000  O
  O47      1.0000 0.31060  0.54400  0.93980  Biso   1.000  O
  O48      1.0000 0.32540  0.57330  0.84780  Biso   1.000  O
  O49      1.0000 0.47780  0.42020  0.78730  Biso   1.000  O
  O50      1.0000 0.54910  0.42370  0.52330  Biso   1.000  O
  O51      1.0000 0.69690  0.57790  0.47410  Biso   1.000  O
  O52      1.0000 0.69490  0.58230  0.37640  Biso   1.000  O
  O53      1.0000 0.50020  0.40320  0.31180  Biso   1.000  O
  O54      1.0000 0.55430  0.46730  0.26410  Biso   1.000  O
  O55      1.0000 0.45780  0.42270  0.18560  Biso   1.000  O
  C85      1.0000 0.47700  0.41940  0.00400  Biso   1.000  C
  C86      1.0000 0.45340  0.44060  0.94400  Biso   1.000  C
  C87      1.0000 0.47450  0.42580  0.89570  Biso   1.000  C
  H65      1.0000 0.50760  0.40280  0.89640  Biso   1.000  H
  C88      1.0000 0.45230  0.44120  0.84070  Biso   1.000  C
  C89      1.0000 0.41200  0.47990  0.83810  Biso   1.000  C
  H66      1.0000 0.40050  0.49570  0.80220  Biso   1.000  H
  C90      1.0000 0.38640  0.49750  0.88930  Biso   1.000  C
  C91      1.0000 0.40830  0.47910  0.94400  Biso   1.000  C
  H67      1.0000 0.39250  0.49270  0.97900  Biso   1.000  H
  C92      1.0000 0.33640  0.54290  0.89310  Biso   1.000  C
  C93      1.0000 0.44630  0.41500  0.73500  Biso   1.000  C
  H68      1.0000 0.44010  0.45370  0.71730  Biso   1.000  H
  H69      1.0000 0.40950  0.39640  0.74230  Biso   1.000  H
  C94      1.0000 0.48420  0.37500  0.69460  Biso   1.000  C
  H70      1.0000 0.52410  0.37810  0.70610  Biso   1.000  H
  H71      1.0000 0.47260  0.33370  0.69800  Biso   1.000  H
  C95      1.0000 0.47630  0.39690  0.63020  Biso   1.000  C
  H72      1.0000 0.43720  0.39000  0.61750  Biso   1.000  H
  H73      1.0000 0.48400  0.43920  0.62780  Biso   1.000  H
  C96      1.0000 0.51830  0.36220  0.59010  Biso   1.000  C
  H74      1.0000 0.55730  0.36850  0.60370  Biso   1.000  H
  H75      1.0000 0.51010  0.32000  0.59230  Biso   1.000  H
  C97      1.0000 0.51270  0.38350  0.52610  Biso   1.000  C
  H76      1.0000 0.52120  0.35170  0.49860  Biso   1.000  H
  H77      1.0000 0.47460  0.39870  0.51820  Biso   1.000  H
  C98      1.0000 0.56790  0.44890  0.47270  Biso   1.000  C
  C99      1.0000 0.54520  0.43330  0.41900  Biso   1.000  C
  H78      1.0000 0.51570  0.40560  0.41690  Biso   1.000  H
  C100     1.0000 0.56590  0.45880  0.36890  Biso   1.000  C
  C101     1.0000 0.60930  0.50020  0.36870  Biso   1.000  C
  H79      1.0000 0.62290  0.51550  0.33340  Biso   1.000  H
  C102     1.0000 0.63270  0.51900  0.42200  Biso   1.000  C
  C103     1.0000 0.61070  0.49140  0.47440  Biso   1.000  C
  H80      1.0000 0.62580  0.50250  0.51060  Biso   1.000  H
  C104     1.0000 0.67540  0.56100  0.42490  Biso   1.000  C
  C105     1.0000 0.53790  0.44230  0.30930  Biso   1.000  C
  Co11     1.0000 0.48852  0.88429  0.61014  Biso   1.000  Co
  Co12     1.0000 0.47126  0.85398  0.74645  Biso   1.000  Co
  O56      1.0000 0.51350  0.88300  0.50670  Biso   1.000  O
  O57      1.0000 0.45090  0.94080  0.54900  Biso   1.000  O
  O58      1.0000 0.31060  0.04400  0.43980  Biso   1.000  O
  O59      1.0000 0.32540  0.07330  0.34780  Biso   1.000  O
  O60      1.0000 0.47780  0.92020  0.28730  Biso   1.000  O
  O61      1.0000 0.54910  0.92370  0.02330  Biso   1.000  O
  O62      1.0000 0.69690  0.07790  0.97410  Biso   1.000  O
  O63      1.0000 0.69490  0.08230  0.87640  Biso   1.000  O
  O64      1.0000 0.50020  0.90320  0.81180  Biso   1.000  O
  O65      1.0000 0.55430  0.96730  0.76410  Biso   1.000  O
  O66      1.0000 0.45780  0.92270  0.68560  Biso   1.000  O
  C106     1.0000 0.47700  0.91940  0.50400  Biso   1.000  C
  C107     1.0000 0.45340  0.94060  0.44400  Biso   1.000  C
  C108     1.0000 0.47450  0.92580  0.39570  Biso   1.000  C
  H81      1.0000 0.50760  0.90280  0.39640  Biso   1.000  H
  C109     1.0000 0.45230  0.94120  0.34070  Biso   1.000  C
  C110     1.0000 0.41200  0.97990  0.33810  Biso   1.000  C
  H82      1.0000 0.40050  0.99570  0.30220  Biso   1.000  H
  C111     1.0000 0.38640  0.99750  0.38930  Biso   1.000  C
  C112     1.0000 0.40830  0.97910  0.44400  Biso   1.000  C
  H83      1.0000 0.39250  0.99270  0.47900  Biso   1.000  H
  C113     1.0000 0.33640  0.04290  0.39310  Biso   1.000  C
  C114     1.0000 0.44630  0.91500  0.23500  Biso   1.000  C
  H84      1.0000 0.44010  0.95370  0.21730  Biso   1.000  H
  H85      1.0000 0.40950  0.89640  0.24230  Biso   1.000  H
  C115     1.0000 0.48420  0.87500  0.19460  Biso   1.000  C
  H86      1.0000 0.52410  0.87810  0.20610  Biso   1.000  H
  H87      1.0000 0.47260  0.83370  0.19800  Biso   1.000  H
  C116     1.0000 0.47630  0.89690  0.13020  Biso   1.000  C
  H88      1.0000 0.43720  0.89000  0.11750  Biso   1.000  H
  H89      1.0000 0.48400  0.93920  0.12780  Biso   1.000  H
  C117     1.0000 0.51830  0.86220  0.09010  Biso   1.000  C
  H90      1.0000 0.55730  0.86850  0.10370  Biso   1.000  H
  H91      1.0000 0.51010  0.82000  0.09230  Biso   1.000  H
  C118     1.0000 0.51270  0.88350  0.02610  Biso   1.000  C
  H92      1.0000 0.52120  0.85170  0.99860  Biso   1.000  H
  H93      1.0000 0.47460  0.89870  0.01820  Biso   1.000  H
  C119     1.0000 0.56790  0.94890  0.97270  Biso   1.000  C
  C120     1.0000 0.54520  0.93330  0.91900  Biso   1.000  C
  H94      1.0000 0.51570  0.90560  0.91690  Biso   1.000  H
  C121     1.0000 0.56590  0.95880  0.86890  Biso   1.000  C
  C122     1.0000 0.60930  0.00020  0.86870  Biso   1.000  C
  H95      1.0000 0.62290  0.01550  0.83340  Biso   1.000  H
  C123     1.0000 0.63270  0.01900  0.92200  Biso   1.000  C
  C124     1.0000 0.61070  0.99140  0.97440  Biso   1.000  C
  H96      1.0000 0.62580  0.00250  0.01060  Biso   1.000  H
  C125     1.0000 0.67540  0.06100  0.92490  Biso   1.000  C
  C126     1.0000 0.53790  0.94230  0.80930  Biso   1.000  C
  Co13     1.0000 0.98852  0.38429  0.61014  Biso   1.000  Co
  Co14     1.0000 0.97126  0.35398  0.74645  Biso   1.000  Co
  O67      1.0000 0.01350  0.38300  0.50670  Biso   1.000  O
  O68      1.0000 0.95090  0.44080  0.54900  Biso   1.000  O
  O69      1.0000 0.81060  0.54400  0.43980  Biso   1.000  O
  O70      1.0000 0.82540  0.57330  0.34780  Biso   1.000  O
  O71      1.0000 0.97780  0.42020  0.28730  Biso   1.000  O
  O72      1.0000 0.04910  0.42370  0.02330  Biso   1.000  O
  O73      1.0000 0.19690  0.57790  0.97410  Biso   1.000  O
  O74      1.0000 0.19490  0.58230  0.87640  Biso   1.000  O
  O75      1.0000 0.00020  0.40320  0.81180  Biso   1.000  O
  O76      1.0000 0.05430  0.46730  0.76410  Biso   1.000  O
  O77      1.0000 0.95780  0.42270  0.68560  Biso   1.000  O
  C127     1.0000 0.97700  0.41940  0.50400  Biso   1.000  C
  C128     1.0000 0.95340  0.44060  0.44400  Biso   1.000  C
  C129     1.0000 0.97450  0.42580  0.39570  Biso   1.000  C
  H97      1.0000 0.00760  0.40280  0.39640  Biso   1.000  H
  C130     1.0000 0.95230  0.44120  0.34070  Biso   1.000  C
  C131     1.0000 0.91200  0.47990  0.33810  Biso   1.000  C
  H98      1.0000 0.90050  0.49570  0.30220  Biso   1.000  H
  C132     1.0000 0.88640  0.49750  0.38930  Biso   1.000  C
  C133     1.0000 0.90830  0.47910  0.44400  Biso   1.000  C
  H99      1.0000 0.89250  0.49270  0.47900  Biso   1.000  H
  C134     1.0000 0.83640  0.54290  0.39310  Biso   1.000  C
  C135     1.0000 0.94630  0.41500  0.23500  Biso   1.000  C
  H100     1.0000 0.94010  0.45370  0.21730  Biso   1.000  H
  H101     1.0000 0.90950  0.39640  0.24230  Biso   1.000  H
  C136     1.0000 0.98420  0.37500  0.19460  Biso   1.000  C
  H102     1.0000 0.02410  0.37810  0.20610  Biso   1.000  H
  H103     1.0000 0.97260  0.33370  0.19800  Biso   1.000  H
  C137     1.0000 0.97630  0.39690  0.13020  Biso   1.000  C
  H104     1.0000 0.93720  0.39000  0.11750  Biso   1.000  H
  H105     1.0000 0.98400  0.43920  0.12780  Biso   1.000  H
  C138     1.0000 0.01830  0.36220  0.09010  Biso   1.000  C
  H106     1.0000 0.05730  0.36850  0.10370  Biso   1.000  H
  H107     1.0000 0.01010  0.32000  0.09230  Biso   1.000  H
  C139     1.0000 0.01270  0.38350  0.02610  Biso   1.000  C
  H108     1.0000 0.02120  0.35170  0.99860  Biso   1.000  H
  H109     1.0000 0.97460  0.39870  0.01820  Biso   1.000  H
  C140     1.0000 0.06790  0.44890  0.97270  Biso   1.000  C
  C141     1.0000 0.04520  0.43330  0.91900  Biso   1.000  C
  H110     1.0000 0.01570  0.40560  0.91690  Biso   1.000  H
  C142     1.0000 0.06590  0.45880  0.86890  Biso   1.000  C
  C143     1.0000 0.10930  0.50020  0.86870  Biso   1.000  C
  H111     1.0000 0.12290  0.51550  0.83340  Biso   1.000  H
  C144     1.0000 0.13270  0.51900  0.92200  Biso   1.000  C
  C145     1.0000 0.11070  0.49140  0.97440  Biso   1.000  C
  H112     1.0000 0.12580  0.50250  0.01060  Biso   1.000  H
  C146     1.0000 0.17540  0.56100  0.92490  Biso   1.000  C
  C147     1.0000 0.03790  0.44230  0.80930  Biso   1.000  C
  Co15     1.0000 0.98852  0.88429  0.11014  Biso   1.000  Co
  Co16     1.0000 0.97126  0.85398  0.24645  Biso   1.000  Co
  O78      1.0000 0.01350  0.88300  0.00670  Biso   1.000  O
  O79      1.0000 0.95090  0.94080  0.04900  Biso   1.000  O
  O80      1.0000 0.81060  0.04400  0.93980  Biso   1.000  O
  O81      1.0000 0.82540  0.07330  0.84780  Biso   1.000  O
  O82      1.0000 0.97780  0.92020  0.78730  Biso   1.000  O
  O83      1.0000 0.04910  0.92370  0.52330  Biso   1.000  O
  O84      1.0000 0.19690  0.07790  0.47410  Biso   1.000  O
  O85      1.0000 0.19490  0.08230  0.37640  Biso   1.000  O
  O86      1.0000 0.00020  0.90320  0.31180  Biso   1.000  O
  O87      1.0000 0.05430  0.96730  0.26410  Biso   1.000  O
  O88      1.0000 0.95780  0.92270  0.18560  Biso   1.000  O
  C148     1.0000 0.97700  0.91940  0.00400  Biso   1.000  C
  C149     1.0000 0.95340  0.94060  0.94400  Biso   1.000  C
  C150     1.0000 0.97450  0.92580  0.89570  Biso   1.000  C
  H113     1.0000 0.00760  0.90280  0.89640  Biso   1.000  H
  C151     1.0000 0.95230  0.94120  0.84070  Biso   1.000  C
  C152     1.0000 0.91200  0.97990  0.83810  Biso   1.000  C
  H114     1.0000 0.90050  0.99570  0.80220  Biso   1.000  H
  C153     1.0000 0.88640  0.99750  0.88930  Biso   1.000  C
  C154     1.0000 0.90830  0.97910  0.94400  Biso   1.000  C
  H115     1.0000 0.89250  0.99270  0.97900  Biso   1.000  H
  C155     1.0000 0.83640  0.04290  0.89310  Biso   1.000  C
  C156     1.0000 0.94630  0.91500  0.73500  Biso   1.000  C
  H116     1.0000 0.94010  0.95370  0.71730  Biso   1.000  H
  H117     1.0000 0.90950  0.89640  0.74230  Biso   1.000  H
  C157     1.0000 0.98420  0.87500  0.69460  Biso   1.000  C
  H118     1.0000 0.02410  0.87810  0.70610  Biso   1.000  H
  H119     1.0000 0.97260  0.83370  0.69800  Biso   1.000  H
  C158     1.0000 0.97630  0.89690  0.63020  Biso   1.000  C
  H120     1.0000 0.93720  0.89000  0.61750  Biso   1.000  H
  H121     1.0000 0.98400  0.93920  0.62780  Biso   1.000  H
  C159     1.0000 0.01830  0.86220  0.59010  Biso   1.000  C
  H122     1.0000 0.05730  0.86850  0.60370  Biso   1.000  H
  H123     1.0000 0.01010  0.82000  0.59230  Biso   1.000  H
  C160     1.0000 0.01270  0.88350  0.52610  Biso   1.000  C
  H124     1.0000 0.02120  0.85170  0.49860  Biso   1.000  H
  H125     1.0000 0.97460  0.89870  0.51820  Biso   1.000  H
  C161     1.0000 0.06790  0.94890  0.47270  Biso   1.000  C
  C162     1.0000 0.04520  0.93330  0.41900  Biso   1.000  C
  H126     1.0000 0.01570  0.90560  0.41690  Biso   1.000  H
  C163     1.0000 0.06590  0.95880  0.36890  Biso   1.000  C
  C164     1.0000 0.10930  0.00020  0.36870  Biso   1.000  C
  H127     1.0000 0.12290  0.01550  0.33340  Biso   1.000  H
  C165     1.0000 0.13270  0.01900  0.42200  Biso   1.000  C
  C166     1.0000 0.11070  0.99140  0.47440  Biso   1.000  C
  H128     1.0000 0.12580  0.00250  0.51060  Biso   1.000  H
  C167     1.0000 0.17540  0.06100  0.42490  Biso   1.000  C
  C168     1.0000 0.03790  0.94230  0.30930  Biso   1.000  C
  Co17     1.0000 0.76148  0.63429  0.36014  Biso   1.000  Co
  Co18     1.0000 0.77874  0.60398  0.49645  Biso   1.000  Co
  O89      1.0000 0.73650  0.63300  0.25670  Biso   1.000  O
  O90      1.0000 0.79910  0.69080  0.29900  Biso   1.000  O
  O91      1.0000 0.93940  0.79400  0.18980  Biso   1.000  O
  O92      1.0000 0.92460  0.82330  0.09780  Biso   1.000  O
  O93      1.0000 0.77220  0.67020  0.03730  Biso   1.000  O
  O94      1.0000 0.70090  0.67370  0.77330  Biso   1.000  O
  O95      1.0000 0.55310  0.82790  0.72410  Biso   1.000  O
  O96      1.0000 0.55510  0.83230  0.62640  Biso   1.000  O
  O97      1.0000 0.74980  0.65320  0.56180  Biso   1.000  O
  O98      1.0000 0.69570  0.71730  0.51410  Biso   1.000  O
  O99      1.0000 0.79220  0.67270  0.43560  Biso   1.000  O
  C169     1.0000 0.77300  0.66940  0.25400  Biso   1.000  C
  C170     1.0000 0.79660  0.69060  0.19400  Biso   1.000  C
  C171     1.0000 0.77550  0.67580  0.14570  Biso   1.000  C
  H129     1.0000 0.74240  0.65280  0.14640  Biso   1.000  H
  C172     1.0000 0.79770  0.69120  0.09070  Biso   1.000  C
  C173     1.0000 0.83800  0.72990  0.08810  Biso   1.000  C
  H130     1.0000 0.84950  0.74570  0.05220  Biso   1.000  H
  C174     1.0000 0.86360  0.74750  0.13930  Biso   1.000  C
  C175     1.0000 0.84170  0.72910  0.19400  Biso   1.000  C
  H131     1.0000 0.85750  0.74270  0.22900  Biso   1.000  H
  C176     1.0000 0.91360  0.79290  0.14310  Biso   1.000  C
  C177     1.0000 0.80370  0.66500  0.98500  Biso   1.000  C
  H132     1.0000 0.80990  0.70370  0.96730  Biso   1.000  H
  H133     1.0000 0.84050  0.64640  0.99230  Biso   1.000  H
  C178     1.0000 0.76580  0.62500  0.94460  Biso   1.000  C
  H134     1.0000 0.72590  0.62810  0.95610  Biso   1.000  H
  H135     1.0000 0.77740  0.58370  0.94800  Biso   1.000  H
  C179     1.0000 0.77370  0.64690  0.88020  Biso   1.000  C
  H136     1.0000 0.81280  0.64000  0.86750  Biso   1.000  H
  H137     1.0000 0.76600  0.68920  0.87780  Biso   1.000  H
  C180     1.0000 0.73170  0.61220  0.84010  Biso   1.000  C
  H138     1.0000 0.69270  0.61850  0.85370  Biso   1.000  H
  H139     1.0000 0.73990  0.57000  0.84230  Biso   1.000  H
  C181     1.0000 0.73730  0.63350  0.77610  Biso   1.000  C
  H140     1.0000 0.72880  0.60170  0.74860  Biso   1.000  H
  H141     1.0000 0.77540  0.64870  0.76820  Biso   1.000  H
  C182     1.0000 0.68210  0.69890  0.72270  Biso   1.000  C
  C183     1.0000 0.70480  0.68330  0.66900  Biso   1.000  C
  H142     1.0000 0.73430  0.65560  0.66690  Biso   1.000  H
  C184     1.0000 0.68410  0.70880  0.61890  Biso   1.000  C
  C185     1.0000 0.64070  0.75020  0.61870  Biso   1.000  C
  H143     1.0000 0.62710  0.76550  0.58340  Biso   1.000  H
  C186     1.0000 0.61730  0.76900  0.67200  Biso   1.000  C
  C187     1.0000 0.63930  0.74140  0.72440  Biso   1.000  C
  H144     1.0000 0.62420  0.75250  0.76060  Biso   1.000  H
  C188     1.0000 0.57460  0.81100  0.67490  Biso   1.000  C
  C189     1.0000 0.71210  0.69230  0.55930  Biso   1.000  C
  Co19     1.0000 0.76148  0.13429  0.86014  Biso   1.000  Co
  Co20     1.0000 0.77874  0.10398  0.99645  Biso   1.000  Co
  O100     1.0000 0.73650  0.13300  0.75670  Biso   1.000  O
  O101     1.0000 0.79910  0.19080  0.79900  Biso   1.000  O
  O102     1.0000 0.93940  0.29400  0.68980  Biso   1.000  O
  O103     1.0000 0.92460  0.32330  0.59780  Biso   1.000  O
  O104     1.0000 0.77220  0.17020  0.53730  Biso   1.000  O
  O105     1.0000 0.70090  0.17370  0.27330  Biso   1.000  O
  O106     1.0000 0.55310  0.32790  0.22410  Biso   1.000  O
  O107     1.0000 0.55510  0.33230  0.12640  Biso   1.000  O
  O108     1.0000 0.74980  0.15320  0.06180  Biso   1.000  O
  O109     1.0000 0.69570  0.21730  0.01410  Biso   1.000  O
  O110     1.0000 0.79220  0.17270  0.93560  Biso   1.000  O
  C190     1.0000 0.77300  0.16940  0.75400  Biso   1.000  C
  C191     1.0000 0.79660  0.19060  0.69400  Biso   1.000  C
  C192     1.0000 0.77550  0.17580  0.64570  Biso   1.000  C
  H145     1.0000 0.74240  0.15280  0.64640  Biso   1.000  H
  C193     1.0000 0.79770  0.19120  0.59070  Biso   1.000  C
  C194     1.0000 0.83800  0.22990  0.58810  Biso   1.000  C
  H146     1.0000 0.84950  0.24570  0.55220  Biso   1.000  H
  C195     1.0000 0.86360  0.24750  0.63930  Biso   1.000  C
  C196     1.0000 0.84170  0.22910  0.69400  Biso   1.000  C
  H147     1.0000 0.85750  0.24270  0.72900  Biso   1.000  H
  C197     1.0000 0.91360  0.29290  0.64310  Biso   1.000  C
  C198     1.0000 0.80370  0.16500  0.48500  Biso   1.000  C
  H148     1.0000 0.80990  0.20370  0.46730  Biso   1.000  H
  H149     1.0000 0.84050  0.14640  0.49230  Biso   1.000  H
  C199     1.0000 0.76580  0.12500  0.44460  Biso   1.000  C
  H150     1.0000 0.72590  0.12810  0.45610  Biso   1.000  H
  H151     1.0000 0.77740  0.08370  0.44800  Biso   1.000  H
  C200     1.0000 0.77370  0.14690  0.38020  Biso   1.000  C
  H152     1.0000 0.81280  0.14000  0.36750  Biso   1.000  H
  H153     1.0000 0.76600  0.18920  0.37780  Biso   1.000  H
  C201     1.0000 0.73170  0.11220  0.34010  Biso   1.000  C
  H154     1.0000 0.69270  0.11850  0.35370  Biso   1.000  H
  H155     1.0000 0.73990  0.07000  0.34230  Biso   1.000  H
  C202     1.0000 0.73730  0.13350  0.27610  Biso   1.000  C
  H156     1.0000 0.72880  0.10170  0.24860  Biso   1.000  H
  H157     1.0000 0.77540  0.14870  0.26820  Biso   1.000  H
  C203     1.0000 0.68210  0.19890  0.22270  Biso   1.000  C
  C204     1.0000 0.70480  0.18330  0.16900  Biso   1.000  C
  H158     1.0000 0.73430  0.15560  0.16690  Biso   1.000  H
  C205     1.0000 0.68410  0.20880  0.11890  Biso   1.000  C
  C206     1.0000 0.64070  0.25020  0.11870  Biso   1.000  C
  H159     1.0000 0.62710  0.26550  0.08340  Biso   1.000  H
  C207     1.0000 0.61730  0.26900  0.17200  Biso   1.000  C
  C208     1.0000 0.63930  0.24140  0.22440  Biso   1.000  C
  H160     1.0000 0.62420  0.25250  0.26060  Biso   1.000  H
  C209     1.0000 0.57460  0.31100  0.17490  Biso   1.000  C
  C210     1.0000 0.71210  0.19230  0.05930  Biso   1.000  C
  Co21     1.0000 0.26148  0.63429  0.86014  Biso   1.000  Co
  Co22     1.0000 0.27874  0.60398  0.99645  Biso   1.000  Co
  O111     1.0000 0.23650  0.63300  0.75670  Biso   1.000  O
  O112     1.0000 0.29910  0.69080  0.79900  Biso   1.000  O
  O113     1.0000 0.43940  0.79400  0.68980  Biso   1.000  O
  O114     1.0000 0.42460  0.82330  0.59780  Biso   1.000  O
  O115     1.0000 0.27220  0.67020  0.53730  Biso   1.000  O
  O116     1.0000 0.20090  0.67370  0.27330  Biso   1.000  O
  O117     1.0000 0.05310  0.82790  0.22410  Biso   1.000  O
  O118     1.0000 0.05510  0.83230  0.12640  Biso   1.000  O
  O119     1.0000 0.24980  0.65320  0.06180  Biso   1.000  O
  O120     1.0000 0.19570  0.71730  0.01410  Biso   1.000  O
  O121     1.0000 0.29220  0.67270  0.93560  Biso   1.000  O
  C211     1.0000 0.27300  0.66940  0.75400  Biso   1.000  C
  C212     1.0000 0.29660  0.69060  0.69400  Biso   1.000  C
  C213     1.0000 0.27550  0.67580  0.64570  Biso   1.000  C
  H161     1.0000 0.24240  0.65280  0.64640  Biso   1.000  H
  C214     1.0000 0.29770  0.69120  0.59070  Biso   1.000  C
  C215     1.0000 0.33800  0.72990  0.58810  Biso   1.000  C
  H162     1.0000 0.34950  0.74570  0.55220  Biso   1.000  H
  C216     1.0000 0.36360  0.74750  0.63930  Biso   1.000  C
  C217     1.0000 0.34170  0.72910  0.69400  Biso   1.000  C
  H163     1.0000 0.35750  0.74270  0.72900  Biso   1.000  H
  C218     1.0000 0.41360  0.79290  0.64310  Biso   1.000  C
  C219     1.0000 0.30370  0.66500  0.48500  Biso   1.000  C
  H164     1.0000 0.30990  0.70370  0.46730  Biso   1.000  H
  H165     1.0000 0.34050  0.64640  0.49230  Biso   1.000  H
  C220     1.0000 0.26580  0.62500  0.44460  Biso   1.000  C
  H166     1.0000 0.22590  0.62810  0.45610  Biso   1.000  H
  H167     1.0000 0.27740  0.58370  0.44800  Biso   1.000  H
  C221     1.0000 0.27370  0.64690  0.38020  Biso   1.000  C
  H168     1.0000 0.31280  0.64000  0.36750  Biso   1.000  H
  H169     1.0000 0.26600  0.68920  0.37780  Biso   1.000  H
  C222     1.0000 0.23170  0.61220  0.34010  Biso   1.000  C
  H170     1.0000 0.19270  0.61850  0.35370  Biso   1.000  H
  H171     1.0000 0.23990  0.57000  0.34230  Biso   1.000  H
  C223     1.0000 0.23730  0.63350  0.27610  Biso   1.000  C
  H172     1.0000 0.22880  0.60170  0.24860  Biso   1.000  H
  H173     1.0000 0.27540  0.64870  0.26820  Biso   1.000  H
  C224     1.0000 0.18210  0.69890  0.22270  Biso   1.000  C
  C225     1.0000 0.20480  0.68330  0.16900  Biso   1.000  C
  H174     1.0000 0.23430  0.65560  0.16690  Biso   1.000  H
  C226     1.0000 0.18410  0.70880  0.11890  Biso   1.000  C
  C227     1.0000 0.14070  0.75020  0.11870  Biso   1.000  C
  H175     1.0000 0.12710  0.76550  0.08340  Biso   1.000  H
  C228     1.0000 0.11730  0.76900  0.17200  Biso   1.000  C
  C229     1.0000 0.13930  0.74140  0.22440  Biso   1.000  C
  H176     1.0000 0.12420  0.75250  0.26060  Biso   1.000  H
  C230     1.0000 0.07460  0.81100  0.17490  Biso   1.000  C
  C231     1.0000 0.21210  0.69230  0.05930  Biso   1.000  C
  Co23     1.0000 0.26148  0.13429  0.36014  Biso   1.000  Co
  Co24     1.0000 0.27874  0.10398  0.49645  Biso   1.000  Co
  O122     1.0000 0.23650  0.13300  0.25670  Biso   1.000  O
  O123     1.0000 0.29910  0.19080  0.29900  Biso   1.000  O
  O124     1.0000 0.43940  0.29400  0.18980  Biso   1.000  O
  O125     1.0000 0.42460  0.32330  0.09780  Biso   1.000  O
  O126     1.0000 0.27220  0.17020  0.03730  Biso   1.000  O
  O127     1.0000 0.20090  0.17370  0.77330  Biso   1.000  O
  O128     1.0000 0.05310  0.32790  0.72410  Biso   1.000  O
  O129     1.0000 0.05510  0.33230  0.62640  Biso   1.000  O
  O130     1.0000 0.24980  0.15320  0.56180  Biso   1.000  O
  O131     1.0000 0.19570  0.21730  0.51410  Biso   1.000  O
  O132     1.0000 0.29220  0.17270  0.43560  Biso   1.000  O
  C232     1.0000 0.27300  0.16940  0.25400  Biso   1.000  C
  C233     1.0000 0.29660  0.19060  0.19400  Biso   1.000  C
  C234     1.0000 0.27550  0.17580  0.14570  Biso   1.000  C
  H177     1.0000 0.24240  0.15280  0.14640  Biso   1.000  H
  C235     1.0000 0.29770  0.19120  0.09070  Biso   1.000  C
  C236     1.0000 0.33800  0.22990  0.08810  Biso   1.000  C
  H178     1.0000 0.34950  0.24570  0.05220  Biso   1.000  H
  C237     1.0000 0.36360  0.24750  0.13930  Biso   1.000  C
  C238     1.0000 0.34170  0.22910  0.19400  Biso   1.000  C
  H179     1.0000 0.35750  0.24270  0.22900  Biso   1.000  H
  C239     1.0000 0.41360  0.29290  0.14310  Biso   1.000  C
  C240     1.0000 0.30370  0.16500  0.98500  Biso   1.000  C
  H180     1.0000 0.30990  0.20370  0.96730  Biso   1.000  H
  H181     1.0000 0.34050  0.14640  0.99230  Biso   1.000  H
  C241     1.0000 0.26580  0.12500  0.94460  Biso   1.000  C
  H182     1.0000 0.22590  0.12810  0.95610  Biso   1.000  H
  H183     1.0000 0.27740  0.08370  0.94800  Biso   1.000  H
  C242     1.0000 0.27370  0.14690  0.88020  Biso   1.000  C
  H184     1.0000 0.31280  0.14000  0.86750  Biso   1.000  H
  H185     1.0000 0.26600  0.18920  0.87780  Biso   1.000  H
  C243     1.0000 0.23170  0.11220  0.84010  Biso   1.000  C
  H186     1.0000 0.19270  0.11850  0.85370  Biso   1.000  H
  H187     1.0000 0.23990  0.07000  0.84230  Biso   1.000  H
  C244     1.0000 0.23730  0.13350  0.77610  Biso   1.000  C
  H188     1.0000 0.22880  0.10170  0.74860  Biso   1.000  H
  H189     1.0000 0.27540  0.14870  0.76820  Biso   1.000  H
  C245     1.0000 0.18210  0.19890  0.72270  Biso   1.000  C
  C246     1.0000 0.20480  0.18330  0.66900  Biso   1.000  C
  H190     1.0000 0.23430  0.15560  0.66690  Biso   1.000  H
  C247     1.0000 0.18410  0.20880  0.61890  Biso   1.000  C
  C248     1.0000 0.14070  0.25020  0.61870  Biso   1.000  C
  H191     1.0000 0.12710  0.26550  0.58340  Biso   1.000  H
  C249     1.0000 0.11730  0.26900  0.67200  Biso   1.000  C
  C250     1.0000 0.13930  0.24140  0.72440  Biso   1.000  C
  H192     1.0000 0.12420  0.25250  0.76060  Biso   1.000  H
  C251     1.0000 0.07460  0.31100  0.67490  Biso   1.000  C
  C252     1.0000 0.21210  0.19230  0.55930  Biso   1.000  C
  Co25     1.0000 0.73852  0.86571  0.36014  Biso   1.000  Co
  Co26     1.0000 0.72126  0.89602  0.49645  Biso   1.000  Co
  O133     1.0000 0.76350  0.86700  0.25670  Biso   1.000  O
  O134     1.0000 0.70090  0.80920  0.29900  Biso   1.000  O
  O135     1.0000 0.56060  0.70600  0.18980  Biso   1.000  O
  O136     1.0000 0.57540  0.67670  0.09780  Biso   1.000  O
  O137     1.0000 0.72780  0.82980  0.03730  Biso   1.000  O
  O138     1.0000 0.79910  0.82630  0.77330  Biso   1.000  O
  O139     1.0000 0.94690  0.67210  0.72410  Biso   1.000  O
  O140     1.0000 0.94490  0.66770  0.62640  Biso   1.000  O
  O141     1.0000 0.75020  0.84680  0.56180  Biso   1.000  O
  O142     1.0000 0.80430  0.78270  0.51410  Biso   1.000  O
  O143     1.0000 0.70780  0.82730  0.43560  Biso   1.000  O
  C253     1.0000 0.72700  0.83060  0.25400  Biso   1.000  C
  C254     1.0000 0.70340  0.80940  0.19400  Biso   1.000  C
  C255     1.0000 0.72450  0.82420  0.14570  Biso   1.000  C
  H193     1.0000 0.75760  0.84720  0.14640  Biso   1.000  H
  C256     1.0000 0.70230  0.80880  0.09070  Biso   1.000  C
  C257     1.0000 0.66200  0.77010  0.08810  Biso   1.000  C
  H194     1.0000 0.65050  0.75430  0.05220  Biso   1.000  H
  C258     1.0000 0.63640  0.75250  0.13930  Biso   1.000  C
  C259     1.0000 0.65830  0.77090  0.19400  Biso   1.000  C
  H195     1.0000 0.64250  0.75730  0.22900  Biso   1.000  H
  C260     1.0000 0.58640  0.70710  0.14310  Biso   1.000  C
  C261     1.0000 0.69630  0.83500  0.98500  Biso   1.000  C
  H196     1.0000 0.69010  0.79630  0.96730  Biso   1.000  H
  H197     1.0000 0.65950  0.85360  0.99230  Biso   1.000  H
  C262     1.0000 0.73420  0.87500  0.94460  Biso   1.000  C
  H198     1.0000 0.77410  0.87190  0.95610  Biso   1.000  H
  H199     1.0000 0.72260  0.91630  0.94800  Biso   1.000  H
  C263     1.0000 0.72630  0.85310  0.88020  Biso   1.000  C
  H200     1.0000 0.68720  0.86000  0.86750  Biso   1.000  H
  H201     1.0000 0.73400  0.81080  0.87780  Biso   1.000  H
  C264     1.0000 0.76830  0.88780  0.84010  Biso   1.000  C
  H202     1.0000 0.80730  0.88150  0.85370  Biso   1.000  H
  H203     1.0000 0.76010  0.93000  0.84230  Biso   1.000  H
  C265     1.0000 0.76270  0.86650  0.77610  Biso   1.000  C
  H204     1.0000 0.77120  0.89830  0.74860  Biso   1.000  H
  H205     1.0000 0.72460  0.85130  0.76820  Biso   1.000  H
  C266     1.0000 0.81790  0.80110  0.72270  Biso   1.000  C
  C267     1.0000 0.79520  0.81670  0.66900  Biso   1.000  C
  H206     1.0000 0.76570  0.84440  0.66690  Biso   1.000  H
  C268     1.0000 0.81590  0.79120  0.61890  Biso   1.000  C
  C269     1.0000 0.85930  0.74980  0.61870  Biso   1.000  C
  H207     1.0000 0.87290  0.73450  0.58340  Biso   1.000  H
  C270     1.0000 0.88270  0.73100  0.67200  Biso   1.000  C
  C271     1.0000 0.86070  0.75860  0.72440  Biso   1.000  C
  H208     1.0000 0.87580  0.74750  0.76060  Biso   1.000  H
  C272     1.0000 0.92540  0.68900  0.67490  Biso   1.000  C
  C273     1.0000 0.78790  0.80770  0.55930  Biso   1.000  C
  Co27     1.0000 0.73852  0.36571  0.86014  Biso   1.000  Co
  Co28     1.0000 0.72126  0.39602  0.99645  Biso   1.000  Co
  O144     1.0000 0.76350  0.36700  0.75670  Biso   1.000  O
  O145     1.0000 0.70090  0.30920  0.79900  Biso   1.000  O
  O146     1.0000 0.56060  0.20600  0.68980  Biso   1.000  O
  O147     1.0000 0.57540  0.17670  0.59780  Biso   1.000  O
  O148     1.0000 0.72780  0.32980  0.53730  Biso   1.000  O
  O149     1.0000 0.79910  0.32630  0.27330  Biso   1.000  O
  O150     1.0000 0.94690  0.17210  0.22410  Biso   1.000  O
  O151     1.0000 0.94490  0.16770  0.12640  Biso   1.000  O
  O152     1.0000 0.75020  0.34680  0.06180  Biso   1.000  O
  O153     1.0000 0.80430  0.28270  0.01410  Biso   1.000  O
  O154     1.0000 0.70780  0.32730  0.93560  Biso   1.000  O
  C274     1.0000 0.72700  0.33060  0.75400  Biso   1.000  C
  C275     1.0000 0.70340  0.30940  0.69400  Biso   1.000  C
  C276     1.0000 0.72450  0.32420  0.64570  Biso   1.000  C
  H209     1.0000 0.75760  0.34720  0.64640  Biso   1.000  H
  C277     1.0000 0.70230  0.30880  0.59070  Biso   1.000  C
  C278     1.0000 0.66200  0.27010  0.58810  Biso   1.000  C
  H210     1.0000 0.65050  0.25430  0.55220  Biso   1.000  H
  C279     1.0000 0.63640  0.25250  0.63930  Biso   1.000  C
  C280     1.0000 0.65830  0.27090  0.69400  Biso   1.000  C
  H211     1.0000 0.64250  0.25730  0.72900  Biso   1.000  H
  C281     1.0000 0.58640  0.20710  0.64310  Biso   1.000  C
  C282     1.0000 0.69630  0.33500  0.48500  Biso   1.000  C
  H212     1.0000 0.69010  0.29630  0.46730  Biso   1.000  H
  H213     1.0000 0.65950  0.35360  0.49230  Biso   1.000  H
  C283     1.0000 0.73420  0.37500  0.44460  Biso   1.000  C
  H214     1.0000 0.77410  0.37190  0.45610  Biso   1.000  H
  H215     1.0000 0.72260  0.41630  0.44800  Biso   1.000  H
  C284     1.0000 0.72630  0.35310  0.38020  Biso   1.000  C
  H216     1.0000 0.68720  0.36000  0.36750  Biso   1.000  H
  H217     1.0000 0.73400  0.31080  0.37780  Biso   1.000  H
  C285     1.0000 0.76830  0.38780  0.34010  Biso   1.000  C
  H218     1.0000 0.80730  0.38150  0.35370  Biso   1.000  H
  H219     1.0000 0.76010  0.43000  0.34230  Biso   1.000  H
  C286     1.0000 0.76270  0.36650  0.27610  Biso   1.000  C
  H220     1.0000 0.77120  0.39830  0.24860  Biso   1.000  H
  H221     1.0000 0.72460  0.35130  0.26820  Biso   1.000  H
  C287     1.0000 0.81790  0.30110  0.22270  Biso   1.000  C
  C288     1.0000 0.79520  0.31670  0.16900  Biso   1.000  C
  H222     1.0000 0.76570  0.34440  0.16690  Biso   1.000  H
  C289     1.0000 0.81590  0.29120  0.11890  Biso   1.000  C
  C290     1.0000 0.85930  0.24980  0.11870  Biso   1.000  C
  H223     1.0000 0.87290  0.23450  0.08340  Biso   1.000  H
  C291     1.0000 0.88270  0.23100  0.17200  Biso   1.000  C
  C292     1.0000 0.86070  0.25860  0.22440  Biso   1.000  C
  H224     1.0000 0.87580  0.24750  0.26060  Biso   1.000  H
  C293     1.0000 0.92540  0.18900  0.17490  Biso   1.000  C
  C294     1.0000 0.78790  0.30770  0.05930  Biso   1.000  C
  Co29     1.0000 0.23852  0.86571  0.86014  Biso   1.000  Co
  Co30     1.0000 0.22126  0.89602  0.99645  Biso   1.000  Co
  O155     1.0000 0.26350  0.86700  0.75670  Biso   1.000  O
  O156     1.0000 0.20090  0.80920  0.79900  Biso   1.000  O
  O157     1.0000 0.06060  0.70600  0.68980  Biso   1.000  O
  O158     1.0000 0.07540  0.67670  0.59780  Biso   1.000  O
  O159     1.0000 0.22780  0.82980  0.53730  Biso   1.000  O
  O160     1.0000 0.29910  0.82630  0.27330  Biso   1.000  O
  O161     1.0000 0.44690  0.67210  0.22410  Biso   1.000  O
  O162     1.0000 0.44490  0.66770  0.12640  Biso   1.000  O
  O163     1.0000 0.25020  0.84680  0.06180  Biso   1.000  O
  O164     1.0000 0.30430  0.78270  0.01410  Biso   1.000  O
  O165     1.0000 0.20780  0.82730  0.93560  Biso   1.000  O
  C295     1.0000 0.22700  0.83060  0.75400  Biso   1.000  C
  C296     1.0000 0.20340  0.80940  0.69400  Biso   1.000  C
  C297     1.0000 0.22450  0.82420  0.64570  Biso   1.000  C
  H225     1.0000 0.25760  0.84720  0.64640  Biso   1.000  H
  C298     1.0000 0.20230  0.80880  0.59070  Biso   1.000  C
  C299     1.0000 0.16200  0.77010  0.58810  Biso   1.000  C
  H226     1.0000 0.15050  0.75430  0.55220  Biso   1.000  H
  C300     1.0000 0.13640  0.75250  0.63930  Biso   1.000  C
  C301     1.0000 0.15830  0.77090  0.69400  Biso   1.000  C
  H227     1.0000 0.14250  0.75730  0.72900  Biso   1.000  H
  C302     1.0000 0.08640  0.70710  0.64310  Biso   1.000  C
  C303     1.0000 0.19630  0.83500  0.48500  Biso   1.000  C
  H228     1.0000 0.19010  0.79630  0.46730  Biso   1.000  H
  H229     1.0000 0.15950  0.85360  0.49230  Biso   1.000  H
  C304     1.0000 0.23420  0.87500  0.44460  Biso   1.000  C
  H230     1.0000 0.27410  0.87190  0.45610  Biso   1.000  H
  H231     1.0000 0.22260  0.91630  0.44800  Biso   1.000  H
  C305     1.0000 0.22630  0.85310  0.38020  Biso   1.000  C
  H232     1.0000 0.18720  0.86000  0.36750  Biso   1.000  H
  H233     1.0000 0.23400  0.81080  0.37780  Biso   1.000  H
  C306     1.0000 0.26830  0.88780  0.34010  Biso   1.000  C
  H234     1.0000 0.30730  0.88150  0.35370  Biso   1.000  H
  H235     1.0000 0.26010  0.93000  0.34230  Biso   1.000  H
  C307     1.0000 0.26270  0.86650  0.27610  Biso   1.000  C
  H236     1.0000 0.27120  0.89830  0.24860  Biso   1.000  H
  H237     1.0000 0.22460  0.85130  0.26820  Biso   1.000  H
  C308     1.0000 0.31790  0.80110  0.22270  Biso   1.000  C
  C309     1.0000 0.29520  0.81670  0.16900  Biso   1.000  C
  H238     1.0000 0.26570  0.84440  0.16690  Biso   1.000  H
  C310     1.0000 0.31590  0.79120  0.11890  Biso   1.000  C
  C311     1.0000 0.35930  0.74980  0.11870  Biso   1.000  C
  H239     1.0000 0.37290  0.73450  0.08340  Biso   1.000  H
  C312     1.0000 0.38270  0.73100  0.17200  Biso   1.000  C
  C313     1.0000 0.36070  0.75860  0.22440  Biso   1.000  C
  H240     1.0000 0.37580  0.74750  0.26060  Biso   1.000  H
  C314     1.0000 0.42540  0.68900  0.17490  Biso   1.000  C
  C315     1.0000 0.28790  0.80770  0.05930  Biso   1.000  C
  Co31     1.0000 0.23852  0.36571  0.36014  Biso   1.000  Co
  Co32     1.0000 0.22126  0.39602  0.49645  Biso   1.000  Co
  O166     1.0000 0.26350  0.36700  0.25670  Biso   1.000  O
  O167     1.0000 0.20090  0.30920  0.29900  Biso   1.000  O
  O168     1.0000 0.06060  0.20600  0.18980  Biso   1.000  O
  O169     1.0000 0.07540  0.17670  0.09780  Biso   1.000  O
  O170     1.0000 0.22780  0.32980  0.03730  Biso   1.000  O
  O171     1.0000 0.29910  0.32630  0.77330  Biso   1.000  O
  O172     1.0000 0.44690  0.17210  0.72410  Biso   1.000  O
  O173     1.0000 0.44490  0.16770  0.62640  Biso   1.000  O
  O174     1.0000 0.25020  0.34680  0.56180  Biso   1.000  O
  O175     1.0000 0.30430  0.28270  0.51410  Biso   1.000  O
  O176     1.0000 0.20780  0.32730  0.43560  Biso   1.000  O
  C316     1.0000 0.22700  0.33060  0.25400  Biso   1.000  C
  C317     1.0000 0.20340  0.30940  0.19400  Biso   1.000  C
  C318     1.0000 0.22450  0.32420  0.14570  Biso   1.000  C
  H241     1.0000 0.25760  0.34720  0.14640  Biso   1.000  H
  C319     1.0000 0.20230  0.30880  0.09070  Biso   1.000  C
  C320     1.0000 0.16200  0.27010  0.08810  Biso   1.000  C
  H242     1.0000 0.15050  0.25430  0.05220  Biso   1.000  H
  C321     1.0000 0.13640  0.25250  0.13930  Biso   1.000  C
  C322     1.0000 0.15830  0.27090  0.19400  Biso   1.000  C
  H243     1.0000 0.14250  0.25730  0.22900  Biso   1.000  H
  C323     1.0000 0.08640  0.20710  0.14310  Biso   1.000  C
  C324     1.0000 0.19630  0.33500  0.98500  Biso   1.000  C
  H244     1.0000 0.19010  0.29630  0.96730  Biso   1.000  H
  H245     1.0000 0.15950  0.35360  0.99230  Biso   1.000  H
  C325     1.0000 0.23420  0.37500  0.94460  Biso   1.000  C
  H246     1.0000 0.27410  0.37190  0.95610  Biso   1.000  H
  H247     1.0000 0.22260  0.41630  0.94800  Biso   1.000  H
  C326     1.0000 0.22630  0.35310  0.88020  Biso   1.000  C
  H248     1.0000 0.18720  0.36000  0.86750  Biso   1.000  H
  H249     1.0000 0.23400  0.31080  0.87780  Biso   1.000  H
  C327     1.0000 0.26830  0.38780  0.84010  Biso   1.000  C
  H250     1.0000 0.30730  0.38150  0.85370  Biso   1.000  H
  H251     1.0000 0.26010  0.43000  0.84230  Biso   1.000  H
  C328     1.0000 0.26270  0.36650  0.77610  Biso   1.000  C
  H252     1.0000 0.27120  0.39830  0.74860  Biso   1.000  H
  H253     1.0000 0.22460  0.35130  0.76820  Biso   1.000  H
  C329     1.0000 0.31790  0.30110  0.72270  Biso   1.000  C
  C330     1.0000 0.29520  0.31670  0.66900  Biso   1.000  C
  H254     1.0000 0.26570  0.34440  0.66690  Biso   1.000  H
  C331     1.0000 0.31590  0.29120  0.61890  Biso   1.000  C
  C332     1.0000 0.35930  0.24980  0.61870  Biso   1.000  C
  H255     1.0000 0.37290  0.23450  0.58340  Biso   1.000  H
  C333     1.0000 0.38270  0.23100  0.67200  Biso   1.000  C
  C334     1.0000 0.36070  0.25860  0.72440  Biso   1.000  C
  H256     1.0000 0.37580  0.24750  0.76060  Biso   1.000  H
  C335     1.0000 0.42540  0.18900  0.67490  Biso   1.000  C
  C336     1.0000 0.28790  0.30770  0.55930  Biso   1.000  C
  Co33     1.0000 0.50000  0.50000  0.19978  Biso   1.000  Co
  Co34     1.0000 0.50000  0.00000  0.69978  Biso   1.000  Co
  Co35     1.0000 0.00000  0.50000  0.69978  Biso   1.000  Co
  Co36     1.0000 0.00000  0.00000  0.19978  Biso   1.000  Co
  Co37     1.0000 0.75000  0.75000  0.44978  Biso   1.000  Co
  Co38     1.0000 0.75000  0.25000  0.94978  Biso   1.000  Co
  Co39     1.0000 0.25000  0.75000  0.94978  Biso   1.000  Co
  Co40     1.0000 0.25000  0.25000  0.44978  Biso   1.000  Co
