data_image0
_cell_length_a       29.886
_cell_length_b       28.35
_cell_length_c       15.2719
_cell_angle_alpha    90
_cell_angle_beta     90
_cell_angle_gamma    90

_symmetry_space_group_name_H-M    "P 1"
_symmetry_int_tables_number       1

loop_
  _symmetry_equiv_pos_as_xyz
  'x, y, z'

loop_
  _atom_site_label
  _atom_site_occupancy
  _atom_site_fract_x
  _atom_site_fract_y
  _atom_site_fract_z
  _atom_site_thermal_displace_type
  _atom_site_B_iso_or_equiv
  _atom_site_type_symbol
  Cu1      1.0000 0.81631  0.19553  0.94296  Biso   1.000  Cu
  Cu2      1.0000 0.18427  0.16410  0.86157  Biso   1.000  Cu
  Cu3      1.0000 0.36538  0.47827  0.62619  Biso   1.000  Cu
  N1       1.0000 0.88330  0.19130  0.92480  Biso   1.000  N
  N2       1.0000 0.11760  0.16720  0.87920  Biso   1.000  N
  N3       1.0000 0.21000  0.10230  0.89660  Biso   1.000  N
  N4       1.0000 0.29040  0.86820  0.92740  Biso   1.000  N
  N5       1.0000 0.21850  0.21400  0.80040  Biso   1.000  N
  N6       1.0000 0.33130  0.41660  0.64270  Biso   1.000  N
  N7       1.0000 0.32850  0.53510  0.59140  Biso   1.000  N
  N8       1.0000 0.21800  0.74950  0.48190  Biso   1.000  N
  N9       1.0000 0.42220  0.47690  0.54530  Biso   1.000  N
  N10      1.0000 0.60110  0.50760  0.24270  Biso   1.000  N
  C1       1.0000 0.90230  0.17700  0.84950  Biso   1.000  C
  H1       1.0000 0.88340  0.16930  0.80320  Biso   1.000  H
  C2       1.0000 0.94770  0.17300  0.83640  Biso   1.000  C
  H2       1.0000 0.95890  0.16380  0.78220  Biso   1.000  H
  C3       1.0000 0.97550  0.18250  0.90360  Biso   1.000  C
  C4       1.0000 0.95650  0.19690  0.98380  Biso   1.000  C
  H3       1.0000 0.97460  0.20390  0.03160  Biso   1.000  H
  C5       1.0000 0.91060  0.20040  0.99010  Biso   1.000  C
  H4       1.0000 0.89830  0.20960  0.04340  Biso   1.000  H
  C6       1.0000 0.09130  0.17260  0.80910  Biso   1.000  C
  H5       1.0000 0.10420  0.17230  0.75370  Biso   1.000  H
  C7       1.0000 0.04580  0.17840  0.81640  Biso   1.000  C
  H6       1.0000 0.02860  0.18280  0.76620  Biso   1.000  H
  C8       1.0000 0.02540  0.17780  0.89780  Biso   1.000  C
  C9       1.0000 0.05140  0.17080  0.96840  Biso   1.000  C
  H7       1.0000 0.03870  0.16920  0.02400  Biso   1.000  H
  C10      1.0000 0.09660  0.16630  0.95770  Biso   1.000  C
  H8       1.0000 0.11410  0.16220  0.00760  Biso   1.000  H
  C11      1.0000 0.18320  0.06880  0.93010  Biso   1.000  C
  H9       1.0000 0.15400  0.07680  0.94510  Biso   1.000  H
  C12      1.0000 0.19800  0.02080  0.94380  Biso   1.000  C
  H10      1.0000 0.18000  0.99830  0.97070  Biso   1.000  H
  C13      1.0000 0.24120  0.01030  0.91380  Biso   1.000  C
  C14      1.0000 0.26810  0.04500  0.88290  Biso   1.000  C
  H11      1.0000 0.29760  0.03870  0.86780  Biso   1.000  H
  C15      1.0000 0.25090  0.08990  0.87410  Biso   1.000  C
  H12      1.0000 0.26940  0.11300  0.85080  Biso   1.000  H
  C16      1.0000 0.24710  0.87700  0.92790  Biso   1.000  C
  H13      1.0000 0.22720  0.85190  0.93160  Biso   1.000  H
  C17      1.0000 0.23040  0.92200  0.92330  Biso   1.000  C
  H14      1.0000 0.19960  0.92670  0.92340  Biso   1.000  H
  C18      1.0000 0.25820  0.95950  0.91850  Biso   1.000  C
  C19      1.0000 0.30310  0.95160  0.92160  Biso   1.000  C
  H15      1.0000 0.32310  0.97670  0.92050  Biso   1.000  H
  C20      1.0000 0.31820  0.90660  0.92630  Biso   1.000  C
  H16      1.0000 0.34890  0.90150  0.92890  Biso   1.000  H
  C21      1.0000 0.26220  0.21890  0.80540  Biso   1.000  C
  H17      1.0000 0.27820  0.19530  0.83390  Biso   1.000  H
  C22      1.0000 0.28580  0.25640  0.77140  Biso   1.000  C
  H18      1.0000 0.31690  0.25740  0.77560  Biso   1.000  H
  C23      1.0000 0.26290  0.29240  0.73130  Biso   1.000  C
  C24      1.0000 0.21610  0.28840  0.72950  Biso   1.000  C
  H19      1.0000 0.19880  0.31250  0.70620  Biso   1.000  H
  C25      1.0000 0.19640  0.24930  0.76180  Biso   1.000  C
  H20      1.0000 0.16550  0.24670  0.75690  Biso   1.000  H
  C26      1.0000 0.35210  0.37600  0.65200  Biso   1.000  C
  H21      1.0000 0.38250  0.37470  0.63940  Biso   1.000  H
  C27      1.0000 0.33130  0.33540  0.67940  Biso   1.000  C
  H22      1.0000 0.34770  0.30760  0.68470  Biso   1.000  H
  C28      1.0000 0.28620  0.33560  0.69910  Biso   1.000  C
  C29      1.0000 0.26410  0.37780  0.68640  Biso   1.000  C
  H23      1.0000 0.23360  0.37990  0.69750  Biso   1.000  H
  C30      1.0000 0.28670  0.41630  0.65780  Biso   1.000  C
  H24      1.0000 0.27070  0.44400  0.64810  Biso   1.000  H
  C31      1.0000 0.34500  0.56660  0.53570  Biso   1.000  C
  H25      1.0000 0.37200  0.55950  0.50820  Biso   1.000  H
  C32      1.0000 0.32460  0.60940  0.51570  Biso   1.000  C
  H26      1.0000 0.33930  0.63090  0.47980  Biso   1.000  H
  C33      1.0000 0.28360  0.62020  0.54790  Biso   1.000  C
  C34      1.0000 0.26710  0.58840  0.60480  Biso   1.000  C
  H27      1.0000 0.24020  0.59490  0.63300  Biso   1.000  H
  C35      1.0000 0.28920  0.54560  0.62300  Biso   1.000  C
  H28      1.0000 0.27510  0.52380  0.65920  Biso   1.000  H
  C36      1.0000 0.26110  0.74540  0.47350  Biso   1.000  C
  H29      1.0000 0.27760  0.77110  0.45370  Biso   1.000  H
  C37      1.0000 0.28350  0.70330  0.49350  Biso   1.000  C
  H30      1.0000 0.31420  0.70110  0.48420  Biso   1.000  H
  C38      1.0000 0.26080  0.66550  0.52640  Biso   1.000  C
  C39      1.0000 0.21700  0.67060  0.53630  Biso   1.000  C
  H31      1.0000 0.20010  0.64630  0.56040  Biso   1.000  H
  C40      1.0000 0.19630  0.71280  0.51010  Biso   1.000  C
  H32      1.0000 0.16520  0.71450  0.51310  Biso   1.000  H
  C41      1.0000 0.43240  0.44510  0.48700  Biso   1.000  C
  H33      1.0000 0.41520  0.41780  0.48610  Biso   1.000  H
  C42      1.0000 0.46630  0.44850  0.42690  Biso   1.000  C
  H34      1.0000 0.47010  0.42530  0.38460  Biso   1.000  H
  C43      1.0000 0.49460  0.48670  0.42990  Biso   1.000  C
  C44      1.0000 0.48630  0.51890  0.49400  Biso   1.000  C
  H35      1.0000 0.50570  0.54420  0.50140  Biso   1.000  H
  C45      1.0000 0.45010  0.51470  0.54700  Biso   1.000  C
  H36      1.0000 0.44420  0.53890  0.58650  Biso   1.000  H
  C46      1.0000 0.58640  0.46330  0.26250  Biso   1.000  C
  H37      1.0000 0.59980  0.43750  0.23530  Biso   1.000  H
  C47      1.0000 0.55210  0.45540  0.32230  Biso   1.000  C
  H38      1.0000 0.54240  0.42480  0.33330  Biso   1.000  H
  C48      1.0000 0.53220  0.49260  0.36540  Biso   1.000  C
  C49      1.0000 0.54890  0.53700  0.34630  Biso   1.000  C
  H39      1.0000 0.53700  0.56320  0.37430  Biso   1.000  H
  C50      1.0000 0.58250  0.54270  0.28740  Biso   1.000  C
  H40      1.0000 0.59310  0.57310  0.27770  Biso   1.000  H
  Cu4      1.0000 0.18369  0.80447  0.44296  Biso   1.000  Cu
  Cu5      1.0000 0.81573  0.83590  0.36157  Biso   1.000  Cu
  Cu6      1.0000 0.63462  0.52173  0.12619  Biso   1.000  Cu
  N11      1.0000 0.11670  0.80870  0.42480  Biso   1.000  N
  N12      1.0000 0.88240  0.83280  0.37920  Biso   1.000  N
  N13      1.0000 0.79000  0.89770  0.39660  Biso   1.000  N
  N14      1.0000 0.70960  0.13180  0.42740  Biso   1.000  N
  N15      1.0000 0.78150  0.78600  0.30040  Biso   1.000  N
  N16      1.0000 0.66870  0.58340  0.14270  Biso   1.000  N
  N17      1.0000 0.67150  0.46490  0.09140  Biso   1.000  N
  N18      1.0000 0.78200  0.25050  0.98190  Biso   1.000  N
  N19      1.0000 0.57780  0.52310  0.04530  Biso   1.000  N
  N20      1.0000 0.39890  0.49240  0.74270  Biso   1.000  N
  C51      1.0000 0.09770  0.82300  0.34950  Biso   1.000  C
  H41      1.0000 0.11660  0.83070  0.30320  Biso   1.000  H
  C52      1.0000 0.05230  0.82700  0.33640  Biso   1.000  C
  H42      1.0000 0.04110  0.83620  0.28220  Biso   1.000  H
  C53      1.0000 0.02450  0.81750  0.40360  Biso   1.000  C
  C54      1.0000 0.04350  0.80310  0.48380  Biso   1.000  C
  H43      1.0000 0.02540  0.79610  0.53160  Biso   1.000  H
  C55      1.0000 0.08940  0.79960  0.49010  Biso   1.000  C
  H44      1.0000 0.10170  0.79040  0.54340  Biso   1.000  H
  C56      1.0000 0.90870  0.82740  0.30910  Biso   1.000  C
  H45      1.0000 0.89580  0.82770  0.25370  Biso   1.000  H
  C57      1.0000 0.95420  0.82160  0.31640  Biso   1.000  C
  H46      1.0000 0.97140  0.81720  0.26620  Biso   1.000  H
  C58      1.0000 0.97460  0.82220  0.39780  Biso   1.000  C
  C59      1.0000 0.94860  0.82920  0.46840  Biso   1.000  C
  H47      1.0000 0.96130  0.83080  0.52400  Biso   1.000  H
  C60      1.0000 0.90340  0.83370  0.45770  Biso   1.000  C
  H48      1.0000 0.88590  0.83780  0.50760  Biso   1.000  H
  C61      1.0000 0.81680  0.93120  0.43010  Biso   1.000  C
  H49      1.0000 0.84600  0.92320  0.44510  Biso   1.000  H
  C62      1.0000 0.80200  0.97920  0.44380  Biso   1.000  C
  H50      1.0000 0.82000  0.00170  0.47070  Biso   1.000  H
  C63      1.0000 0.75880  0.98970  0.41380  Biso   1.000  C
  C64      1.0000 0.73190  0.95500  0.38290  Biso   1.000  C
  H51      1.0000 0.70240  0.96130  0.36780  Biso   1.000  H
  C65      1.0000 0.74910  0.91010  0.37410  Biso   1.000  C
  H52      1.0000 0.73060  0.88700  0.35080  Biso   1.000  H
  C66      1.0000 0.75290  0.12300  0.42790  Biso   1.000  C
  H53      1.0000 0.77280  0.14810  0.43160  Biso   1.000  H
  C67      1.0000 0.76960  0.07800  0.42330  Biso   1.000  C
  H54      1.0000 0.80040  0.07330  0.42340  Biso   1.000  H
  C68      1.0000 0.74180  0.04050  0.41850  Biso   1.000  C
  C69      1.0000 0.69690  0.04840  0.42160  Biso   1.000  C
  H55      1.0000 0.67690  0.02330  0.42050  Biso   1.000  H
  C70      1.0000 0.68180  0.09340  0.42630  Biso   1.000  C
  H56      1.0000 0.65110  0.09850  0.42890  Biso   1.000  H
  C71      1.0000 0.73780  0.78110  0.30540  Biso   1.000  C
  H57      1.0000 0.72180  0.80470  0.33390  Biso   1.000  H
  C72      1.0000 0.71420  0.74360  0.27140  Biso   1.000  C
  H58      1.0000 0.68310  0.74260  0.27560  Biso   1.000  H
  C73      1.0000 0.73710  0.70760  0.23130  Biso   1.000  C
  C74      1.0000 0.78390  0.71160  0.22950  Biso   1.000  C
  H59      1.0000 0.80120  0.68750  0.20620  Biso   1.000  H
  C75      1.0000 0.80360  0.75070  0.26180  Biso   1.000  C
  H60      1.0000 0.83450  0.75330  0.25690  Biso   1.000  H
  C76      1.0000 0.64790  0.62400  0.15200  Biso   1.000  C
  H61      1.0000 0.61750  0.62530  0.13940  Biso   1.000  H
  C77      1.0000 0.66870  0.66460  0.17940  Biso   1.000  C
  H62      1.0000 0.65230  0.69240  0.18470  Biso   1.000  H
  C78      1.0000 0.71380  0.66440  0.19910  Biso   1.000  C
  C79      1.0000 0.73590  0.62220  0.18640  Biso   1.000  C
  H63      1.0000 0.76640  0.62010  0.19750  Biso   1.000  H
  C80      1.0000 0.71330  0.58370  0.15780  Biso   1.000  C
  H64      1.0000 0.72930  0.55600  0.14810  Biso   1.000  H
  C81      1.0000 0.65500  0.43340  0.03570  Biso   1.000  C
  H65      1.0000 0.62800  0.44050  0.00820  Biso   1.000  H
  C82      1.0000 0.67540  0.39060  0.01570  Biso   1.000  C
  H66      1.0000 0.66070  0.36910  0.97980  Biso   1.000  H
  C83      1.0000 0.71640  0.37980  0.04790  Biso   1.000  C
  C84      1.0000 0.73290  0.41160  0.10480  Biso   1.000  C
  H67      1.0000 0.75980  0.40510  0.13300  Biso   1.000  H
  C85      1.0000 0.71080  0.45440  0.12300  Biso   1.000  C
  H68      1.0000 0.72490  0.47620  0.15920  Biso   1.000  H
  C86      1.0000 0.73890  0.25460  0.97350  Biso   1.000  C
  H69      1.0000 0.72240  0.22890  0.95370  Biso   1.000  H
  C87      1.0000 0.71650  0.29670  0.99350  Biso   1.000  C
  H70      1.0000 0.68580  0.29890  0.98420  Biso   1.000  H
  C88      1.0000 0.73920  0.33450  0.02640  Biso   1.000  C
  C89      1.0000 0.78300  0.32940  0.03630  Biso   1.000  C
  H71      1.0000 0.79990  0.35370  0.06040  Biso   1.000  H
  C90      1.0000 0.80370  0.28720  0.01010  Biso   1.000  C
  H72      1.0000 0.83480  0.28550  0.01310  Biso   1.000  H
  C91      1.0000 0.56760  0.55490  0.98700  Biso   1.000  C
  H73      1.0000 0.58480  0.58220  0.98610  Biso   1.000  H
  C92      1.0000 0.53370  0.55150  0.92690  Biso   1.000  C
  H74      1.0000 0.52990  0.57470  0.88460  Biso   1.000  H
  C93      1.0000 0.50540  0.51330  0.92990  Biso   1.000  C
  C94      1.0000 0.51370  0.48110  0.99400  Biso   1.000  C
  H75      1.0000 0.49430  0.45580  0.00140  Biso   1.000  H
  C95      1.0000 0.54990  0.48530  0.04700  Biso   1.000  C
  H76      1.0000 0.55580  0.46110  0.08650  Biso   1.000  H
  C96      1.0000 0.41360  0.53670  0.76250  Biso   1.000  C
  H77      1.0000 0.40020  0.56250  0.73530  Biso   1.000  H
  C97      1.0000 0.44790  0.54460  0.82230  Biso   1.000  C
  H78      1.0000 0.45760  0.57520  0.83330  Biso   1.000  H
  C98      1.0000 0.46780  0.50740  0.86540  Biso   1.000  C
  C99      1.0000 0.45110  0.46300  0.84630  Biso   1.000  C
  H79      1.0000 0.46300  0.43680  0.87430  Biso   1.000  H
  C100     1.0000 0.41750  0.45730  0.78740  Biso   1.000  C
  H80      1.0000 0.40690  0.42690  0.77770  Biso   1.000  H
  Cu7      1.0000 0.31631  0.80447  0.94296  Biso   1.000  Cu
  Cu8      1.0000 0.68427  0.83590  0.86157  Biso   1.000  Cu
  Cu9      1.0000 0.86538  0.52173  0.62619  Biso   1.000  Cu
  N21      1.0000 0.38330  0.80870  0.92480  Biso   1.000  N
  N22      1.0000 0.61760  0.83280  0.87920  Biso   1.000  N
  N23      1.0000 0.71000  0.89770  0.89660  Biso   1.000  N
  N24      1.0000 0.79040  0.13180  0.92740  Biso   1.000  N
  N25      1.0000 0.71850  0.78600  0.80040  Biso   1.000  N
  N26      1.0000 0.83130  0.58340  0.64270  Biso   1.000  N
  N27      1.0000 0.82850  0.46490  0.59140  Biso   1.000  N
  N28      1.0000 0.71800  0.25050  0.48190  Biso   1.000  N
  N29      1.0000 0.92220  0.52310  0.54530  Biso   1.000  N
  N30      1.0000 0.10110  0.49240  0.24270  Biso   1.000  N
  C101     1.0000 0.40230  0.82300  0.84950  Biso   1.000  C
  H81      1.0000 0.38340  0.83070  0.80320  Biso   1.000  H
  C102     1.0000 0.44770  0.82700  0.83640  Biso   1.000  C
  H82      1.0000 0.45890  0.83620  0.78220  Biso   1.000  H
  C103     1.0000 0.47550  0.81750  0.90360  Biso   1.000  C
  C104     1.0000 0.45650  0.80310  0.98380  Biso   1.000  C
  H83      1.0000 0.47460  0.79610  0.03160  Biso   1.000  H
  C105     1.0000 0.41060  0.79960  0.99010  Biso   1.000  C
  H84      1.0000 0.39830  0.79040  0.04340  Biso   1.000  H
  C106     1.0000 0.59130  0.82740  0.80910  Biso   1.000  C
  H85      1.0000 0.60420  0.82770  0.75370  Biso   1.000  H
  C107     1.0000 0.54580  0.82160  0.81640  Biso   1.000  C
  H86      1.0000 0.52860  0.81720  0.76620  Biso   1.000  H
  C108     1.0000 0.52540  0.82220  0.89780  Biso   1.000  C
  C109     1.0000 0.55140  0.82920  0.96840  Biso   1.000  C
  H87      1.0000 0.53870  0.83080  0.02400  Biso   1.000  H
  C110     1.0000 0.59660  0.83370  0.95770  Biso   1.000  C
  H88      1.0000 0.61410  0.83780  0.00760  Biso   1.000  H
  C111     1.0000 0.68320  0.93120  0.93010  Biso   1.000  C
  H89      1.0000 0.65400  0.92320  0.94510  Biso   1.000  H
  C112     1.0000 0.69800  0.97920  0.94380  Biso   1.000  C
  H90      1.0000 0.68000  0.00170  0.97070  Biso   1.000  H
  C113     1.0000 0.74120  0.98970  0.91380  Biso   1.000  C
  C114     1.0000 0.76810  0.95500  0.88290  Biso   1.000  C
  H91      1.0000 0.79760  0.96130  0.86780  Biso   1.000  H
  C115     1.0000 0.75090  0.91010  0.87410  Biso   1.000  C
  H92      1.0000 0.76940  0.88700  0.85080  Biso   1.000  H
  C116     1.0000 0.74710  0.12300  0.92790  Biso   1.000  C
  H93      1.0000 0.72720  0.14810  0.93160  Biso   1.000  H
  C117     1.0000 0.73040  0.07800  0.92330  Biso   1.000  C
  H94      1.0000 0.69960  0.07330  0.92340  Biso   1.000  H
  C118     1.0000 0.75820  0.04050  0.91850  Biso   1.000  C
  C119     1.0000 0.80310  0.04840  0.92160  Biso   1.000  C
  H95      1.0000 0.82310  0.02330  0.92050  Biso   1.000  H
  C120     1.0000 0.81820  0.09340  0.92630  Biso   1.000  C
  H96      1.0000 0.84890  0.09850  0.92890  Biso   1.000  H
  C121     1.0000 0.76220  0.78110  0.80540  Biso   1.000  C
  H97      1.0000 0.77820  0.80470  0.83390  Biso   1.000  H
  C122     1.0000 0.78580  0.74360  0.77140  Biso   1.000  C
  H98      1.0000 0.81690  0.74260  0.77560  Biso   1.000  H
  C123     1.0000 0.76290  0.70760  0.73130  Biso   1.000  C
  C124     1.0000 0.71610  0.71160  0.72950  Biso   1.000  C
  H99      1.0000 0.69880  0.68750  0.70620  Biso   1.000  H
  C125     1.0000 0.69640  0.75070  0.76180  Biso   1.000  C
  H100     1.0000 0.66550  0.75330  0.75690  Biso   1.000  H
  C126     1.0000 0.85210  0.62400  0.65200  Biso   1.000  C
  H101     1.0000 0.88250  0.62530  0.63940  Biso   1.000  H
  C127     1.0000 0.83130  0.66460  0.67940  Biso   1.000  C
  H102     1.0000 0.84770  0.69240  0.68470  Biso   1.000  H
  C128     1.0000 0.78620  0.66440  0.69910  Biso   1.000  C
  C129     1.0000 0.76410  0.62220  0.68640  Biso   1.000  C
  H103     1.0000 0.73360  0.62010  0.69750  Biso   1.000  H
  C130     1.0000 0.78670  0.58370  0.65780  Biso   1.000  C
  H104     1.0000 0.77070  0.55600  0.64810  Biso   1.000  H
  C131     1.0000 0.84500  0.43340  0.53570  Biso   1.000  C
  H105     1.0000 0.87200  0.44050  0.50820  Biso   1.000  H
  C132     1.0000 0.82460  0.39060  0.51570  Biso   1.000  C
  H106     1.0000 0.83930  0.36910  0.47980  Biso   1.000  H
  C133     1.0000 0.78360  0.37980  0.54790  Biso   1.000  C
  C134     1.0000 0.76710  0.41160  0.60480  Biso   1.000  C
  H107     1.0000 0.74020  0.40510  0.63300  Biso   1.000  H
  C135     1.0000 0.78920  0.45440  0.62300  Biso   1.000  C
  H108     1.0000 0.77510  0.47620  0.65920  Biso   1.000  H
  C136     1.0000 0.76110  0.25460  0.47350  Biso   1.000  C
  H109     1.0000 0.77760  0.22890  0.45370  Biso   1.000  H
  C137     1.0000 0.78350  0.29670  0.49350  Biso   1.000  C
  H110     1.0000 0.81420  0.29890  0.48420  Biso   1.000  H
  C138     1.0000 0.76080  0.33450  0.52640  Biso   1.000  C
  C139     1.0000 0.71700  0.32940  0.53630  Biso   1.000  C
  H111     1.0000 0.70010  0.35370  0.56040  Biso   1.000  H
  C140     1.0000 0.69630  0.28720  0.51010  Biso   1.000  C
  H112     1.0000 0.66520  0.28550  0.51310  Biso   1.000  H
  C141     1.0000 0.93240  0.55490  0.48700  Biso   1.000  C
  H113     1.0000 0.91520  0.58220  0.48610  Biso   1.000  H
  C142     1.0000 0.96630  0.55150  0.42690  Biso   1.000  C
  H114     1.0000 0.97010  0.57470  0.38460  Biso   1.000  H
  C143     1.0000 0.99460  0.51330  0.42990  Biso   1.000  C
  C144     1.0000 0.98630  0.48110  0.49400  Biso   1.000  C
  H115     1.0000 0.00570  0.45580  0.50140  Biso   1.000  H
  C145     1.0000 0.95010  0.48530  0.54700  Biso   1.000  C
  H116     1.0000 0.94420  0.46110  0.58650  Biso   1.000  H
  C146     1.0000 0.08640  0.53670  0.26250  Biso   1.000  C
  H117     1.0000 0.09980  0.56250  0.23530  Biso   1.000  H
  C147     1.0000 0.05210  0.54460  0.32230  Biso   1.000  C
  H118     1.0000 0.04240  0.57520  0.33330  Biso   1.000  H
  C148     1.0000 0.03220  0.50740  0.36540  Biso   1.000  C
  C149     1.0000 0.04890  0.46300  0.34630  Biso   1.000  C
  H119     1.0000 0.03700  0.43680  0.37430  Biso   1.000  H
  C150     1.0000 0.08250  0.45730  0.28740  Biso   1.000  C
  H120     1.0000 0.09310  0.42690  0.27770  Biso   1.000  H
  Cu10     1.0000 0.68369  0.19553  0.44296  Biso   1.000  Cu
  Cu11     1.0000 0.31573  0.16410  0.36157  Biso   1.000  Cu
  Cu12     1.0000 0.13462  0.47827  0.12619  Biso   1.000  Cu
  N31      1.0000 0.61670  0.19130  0.42480  Biso   1.000  N
  N32      1.0000 0.38240  0.16720  0.37920  Biso   1.000  N
  N33      1.0000 0.29000  0.10230  0.39660  Biso   1.000  N
  N34      1.0000 0.20960  0.86820  0.42740  Biso   1.000  N
  N35      1.0000 0.28150  0.21400  0.30040  Biso   1.000  N
  N36      1.0000 0.16870  0.41660  0.14270  Biso   1.000  N
  N37      1.0000 0.17150  0.53510  0.09140  Biso   1.000  N
  N38      1.0000 0.28200  0.74950  0.98190  Biso   1.000  N
  N39      1.0000 0.07780  0.47690  0.04530  Biso   1.000  N
  N40      1.0000 0.89890  0.50760  0.74270  Biso   1.000  N
  C151     1.0000 0.59770  0.17700  0.34950  Biso   1.000  C
  H121     1.0000 0.61660  0.16930  0.30320  Biso   1.000  H
  C152     1.0000 0.55230  0.17300  0.33640  Biso   1.000  C
  H122     1.0000 0.54110  0.16380  0.28220  Biso   1.000  H
  C153     1.0000 0.52450  0.18250  0.40360  Biso   1.000  C
  C154     1.0000 0.54350  0.19690  0.48380  Biso   1.000  C
  H123     1.0000 0.52540  0.20390  0.53160  Biso   1.000  H
  C155     1.0000 0.58940  0.20040  0.49010  Biso   1.000  C
  H124     1.0000 0.60170  0.20960  0.54340  Biso   1.000  H
  C156     1.0000 0.40870  0.17260  0.30910  Biso   1.000  C
  H125     1.0000 0.39580  0.17230  0.25370  Biso   1.000  H
  C157     1.0000 0.45420  0.17840  0.31640  Biso   1.000  C
  H126     1.0000 0.47140  0.18280  0.26620  Biso   1.000  H
  C158     1.0000 0.47460  0.17780  0.39780  Biso   1.000  C
  C159     1.0000 0.44860  0.17080  0.46840  Biso   1.000  C
  H127     1.0000 0.46130  0.16920  0.52400  Biso   1.000  H
  C160     1.0000 0.40340  0.16630  0.45770  Biso   1.000  C
  H128     1.0000 0.38590  0.16220  0.50760  Biso   1.000  H
  C161     1.0000 0.31680  0.06880  0.43010  Biso   1.000  C
  H129     1.0000 0.34600  0.07680  0.44510  Biso   1.000  H
  C162     1.0000 0.30200  0.02080  0.44380  Biso   1.000  C
  H130     1.0000 0.32000  0.99830  0.47070  Biso   1.000  H
  C163     1.0000 0.25880  0.01030  0.41380  Biso   1.000  C
  C164     1.0000 0.23190  0.04500  0.38290  Biso   1.000  C
  H131     1.0000 0.20240  0.03870  0.36780  Biso   1.000  H
  C165     1.0000 0.24910  0.08990  0.37410  Biso   1.000  C
  H132     1.0000 0.23060  0.11300  0.35080  Biso   1.000  H
  C166     1.0000 0.25290  0.87700  0.42790  Biso   1.000  C
  H133     1.0000 0.27280  0.85190  0.43160  Biso   1.000  H
  C167     1.0000 0.26960  0.92200  0.42330  Biso   1.000  C
  H134     1.0000 0.30040  0.92670  0.42340  Biso   1.000  H
  C168     1.0000 0.24180  0.95950  0.41850  Biso   1.000  C
  C169     1.0000 0.19690  0.95160  0.42160  Biso   1.000  C
  H135     1.0000 0.17690  0.97670  0.42050  Biso   1.000  H
  C170     1.0000 0.18180  0.90660  0.42630  Biso   1.000  C
  H136     1.0000 0.15110  0.90150  0.42890  Biso   1.000  H
  C171     1.0000 0.23780  0.21890  0.30540  Biso   1.000  C
  H137     1.0000 0.22180  0.19530  0.33390  Biso   1.000  H
  C172     1.0000 0.21420  0.25640  0.27140  Biso   1.000  C
  H138     1.0000 0.18310  0.25740  0.27560  Biso   1.000  H
  C173     1.0000 0.23710  0.29240  0.23130  Biso   1.000  C
  C174     1.0000 0.28390  0.28840  0.22950  Biso   1.000  C
  H139     1.0000 0.30120  0.31250  0.20620  Biso   1.000  H
  C175     1.0000 0.30360  0.24930  0.26180  Biso   1.000  C
  H140     1.0000 0.33450  0.24670  0.25690  Biso   1.000  H
  C176     1.0000 0.14790  0.37600  0.15200  Biso   1.000  C
  H141     1.0000 0.11750  0.37470  0.13940  Biso   1.000  H
  C177     1.0000 0.16870  0.33540  0.17940  Biso   1.000  C
  H142     1.0000 0.15230  0.30760  0.18470  Biso   1.000  H
  C178     1.0000 0.21380  0.33560  0.19910  Biso   1.000  C
  C179     1.0000 0.23590  0.37780  0.18640  Biso   1.000  C
  H143     1.0000 0.26640  0.37990  0.19750  Biso   1.000  H
  C180     1.0000 0.21330  0.41630  0.15780  Biso   1.000  C
  H144     1.0000 0.22930  0.44400  0.14810  Biso   1.000  H
  C181     1.0000 0.15500  0.56660  0.03570  Biso   1.000  C
  H145     1.0000 0.12800  0.55950  0.00820  Biso   1.000  H
  C182     1.0000 0.17540  0.60940  0.01570  Biso   1.000  C
  H146     1.0000 0.16070  0.63090  0.97980  Biso   1.000  H
  C183     1.0000 0.21640  0.62020  0.04790  Biso   1.000  C
  C184     1.0000 0.23290  0.58840  0.10480  Biso   1.000  C
  H147     1.0000 0.25980  0.59490  0.13300  Biso   1.000  H
  C185     1.0000 0.21080  0.54560  0.12300  Biso   1.000  C
  H148     1.0000 0.22490  0.52380  0.15920  Biso   1.000  H
  C186     1.0000 0.23890  0.74540  0.97350  Biso   1.000  C
  H149     1.0000 0.22240  0.77110  0.95370  Biso   1.000  H
  C187     1.0000 0.21650  0.70330  0.99350  Biso   1.000  C
  H150     1.0000 0.18580  0.70110  0.98420  Biso   1.000  H
  C188     1.0000 0.23920  0.66550  0.02640  Biso   1.000  C
  C189     1.0000 0.28300  0.67060  0.03630  Biso   1.000  C
  H151     1.0000 0.29990  0.64630  0.06040  Biso   1.000  H
  C190     1.0000 0.30370  0.71280  0.01010  Biso   1.000  C
  H152     1.0000 0.33480  0.71450  0.01310  Biso   1.000  H
  C191     1.0000 0.06760  0.44510  0.98700  Biso   1.000  C
  H153     1.0000 0.08480  0.41780  0.98610  Biso   1.000  H
  C192     1.0000 0.03370  0.44850  0.92690  Biso   1.000  C
  H154     1.0000 0.02990  0.42530  0.88460  Biso   1.000  H
  C193     1.0000 0.00540  0.48670  0.92990  Biso   1.000  C
  C194     1.0000 0.01370  0.51890  0.99400  Biso   1.000  C
  H155     1.0000 0.99430  0.54420  0.00140  Biso   1.000  H
  C195     1.0000 0.04990  0.51470  0.04700  Biso   1.000  C
  H156     1.0000 0.05580  0.53890  0.08650  Biso   1.000  H
  C196     1.0000 0.91360  0.46330  0.76250  Biso   1.000  C
  H157     1.0000 0.90020  0.43750  0.73530  Biso   1.000  H
  C197     1.0000 0.94790  0.45540  0.82230  Biso   1.000  C
  H158     1.0000 0.95760  0.42480  0.83330  Biso   1.000  H
  C198     1.0000 0.96780  0.49260  0.86540  Biso   1.000  C
  C199     1.0000 0.95110  0.53700  0.84630  Biso   1.000  C
  H159     1.0000 0.96300  0.56320  0.87430  Biso   1.000  H
  C200     1.0000 0.91750  0.54270  0.78740  Biso   1.000  C
  H160     1.0000 0.90690  0.57310  0.77770  Biso   1.000  H
  Cu13     1.0000 0.67043  0.33158  0.32050  Biso   1.000  Cu
  Cu14     1.0000 0.30652  0.31330  0.45730  Biso   1.000  Cu
  Cu15     1.0000 0.13396  0.98442  0.65799  Biso   1.000  Cu
  N41      1.0000 0.60560  0.32520  0.35150  Biso   1.000  N
  N42      1.0000 0.37200  0.31010  0.43090  Biso   1.000  N
  N43      1.0000 0.28120  0.37570  0.42990  Biso   1.000  N
  N44      1.0000 0.19590  0.60470  0.34920  Biso   1.000  N
  N45      1.0000 0.27410  0.25990  0.50690  Biso   1.000  N
  N46      1.0000 0.16810  0.04570  0.62880  Biso   1.000  N
  N47      1.0000 0.10490  0.99270  0.78090  Biso   1.000  N
  N48      1.0000 0.92330  0.01350  0.07980  Biso   1.000  N
  N49      1.0000 0.16890  0.92310  0.65460  Biso   1.000  N
  N50      1.0000 0.29370  0.71930  0.76460  Biso   1.000  N
  C201     1.0000 0.57680  0.31600  0.28580  Biso   1.000  C
  H161     1.0000 0.58790  0.31400  0.22890  Biso   1.000  H
  C202     1.0000 0.53070  0.30930  0.29970  Biso   1.000  C
  H162     1.0000 0.51240  0.30000  0.25360  Biso   1.000  H
  C203     1.0000 0.51260  0.31660  0.38250  Biso   1.000  C
  C204     1.0000 0.54220  0.32820  0.44860  Biso   1.000  C
  H163     1.0000 0.53180  0.33270  0.50530  Biso   1.000  H
  C205     1.0000 0.58680  0.33300  0.43090  Biso   1.000  C
  H164     1.0000 0.60550  0.34230  0.47640  Biso   1.000  H
  C206     1.0000 0.38880  0.32330  0.35140  Biso   1.000  C
  H165     1.0000 0.36890  0.33170  0.30740  Biso   1.000  H
  C207     1.0000 0.43410  0.32460  0.33320  Biso   1.000  C
  H166     1.0000 0.44390  0.33340  0.27780  Biso   1.000  H
  C208     1.0000 0.46460  0.31300  0.39710  Biso   1.000  C
  C209     1.0000 0.44770  0.29830  0.47820  Biso   1.000  C
  H167     1.0000 0.46720  0.28960  0.52290  Biso   1.000  H
  C210     1.0000 0.40260  0.29680  0.49150  Biso   1.000  C
  H168     1.0000 0.39220  0.28590  0.54530  Biso   1.000  H
  C211     1.0000 0.30710  0.41380  0.41870  Biso   1.000  C
  H169     1.0000 0.33780  0.40950  0.42450  Biso   1.000  H
  C212     1.0000 0.29320  0.45670  0.40030  Biso   1.000  C
  H170     1.0000 0.31350  0.48040  0.38670  Biso   1.000  H
  C213     1.0000 0.24630  0.46600  0.40170  Biso   1.000  C
  C214     1.0000 0.21920  0.43010  0.41990  Biso   1.000  C
  H171     1.0000 0.18840  0.43440  0.42230  Biso   1.000  H
  C215     1.0000 0.23780  0.38650  0.43510  Biso   1.000  C
  H172     1.0000 0.21830  0.36230  0.45040  Biso   1.000  H
  C216     1.0000 0.17090  0.57200  0.39280  Biso   1.000  C
  H173     1.0000 0.14190  0.58010  0.40930  Biso   1.000  H
  C217     1.0000 0.18600  0.52770  0.41360  Biso   1.000  C
  H174     1.0000 0.16850  0.50700  0.44600  Biso   1.000  H
  C218     1.0000 0.22890  0.51450  0.38450  Biso   1.000  C
  C219     1.0000 0.25380  0.54870  0.34600  Biso   1.000  C
  H175     1.0000 0.28360  0.54280  0.33240  Biso   1.000  H
  C220     1.0000 0.23560  0.59200  0.32660  Biso   1.000  C
  H176     1.0000 0.25310  0.61340  0.29540  Biso   1.000  H
  C221     1.0000 0.22880  0.25390  0.50110  Biso   1.000  C
  H177     1.0000 0.21180  0.27830  0.47740  Biso   1.000  H
  C222     1.0000 0.20750  0.21430  0.52800  Biso   1.000  C
  H178     1.0000 0.17640  0.21260  0.52470  Biso   1.000  H
  C223     1.0000 0.23130  0.17620  0.56030  Biso   1.000  C
  C224     1.0000 0.27650  0.18170  0.56880  Biso   1.000  C
  H179     1.0000 0.29370  0.15800  0.59430  Biso   1.000  H
  C225     1.0000 0.29720  0.22400  0.53800  Biso   1.000  C
  H180     1.0000 0.32830  0.22630  0.54000  Biso   1.000  H
  C226     1.0000 0.14990  0.07600  0.57140  Biso   1.000  C
  H181     1.0000 0.12300  0.06790  0.54480  Biso   1.000  H
  C227     1.0000 0.16910  0.11820  0.55040  Biso   1.000  C
  H182     1.0000 0.15470  0.13880  0.51230  Biso   1.000  H
  C228     1.0000 0.20970  0.13030  0.58550  Biso   1.000  C
  C229     1.0000 0.22810  0.10020  0.64280  Biso   1.000  C
  H183     1.0000 0.25540  0.10750  0.66870  Biso   1.000  H
  C230     1.0000 0.20700  0.05860  0.66360  Biso   1.000  C
  H184     1.0000 0.22060  0.03850  0.70370  Biso   1.000  H
  C231     1.0000 0.09050  0.03500  0.80470  Biso   1.000  C
  H185     1.0000 0.10360  0.06160  0.78030  Biso   1.000  H
  C232     1.0000 0.05640  0.04040  0.86490  Biso   1.000  C
  H186     1.0000 0.04640  0.07060  0.87840  Biso   1.000  H
  C233     1.0000 0.03650  0.00130  0.90630  Biso   1.000  C
  C234     1.0000 0.05350  0.95720  0.88280  Biso   1.000  C
  H187     1.0000 0.04270  0.92990  0.90930  Biso   1.000  H
  C235     1.0000 0.08620  0.95460  0.82050  Biso   1.000  C
  H188     1.0000 0.09640  0.92490  0.80420  Biso   1.000  H
  C236     1.0000 0.93230  0.04520  0.01860  Biso   1.000  C
  H189     1.0000 0.91360  0.07150  0.01660  Biso   1.000  H
  C237     1.0000 0.96580  0.04350  0.95840  Biso   1.000  C
  H190     1.0000 0.96790  0.06590  0.91400  Biso   1.000  H
  C238     1.0000 0.99810  0.00550  0.96590  Biso   1.000  C
  C239     1.0000 0.99100  0.97400  0.03190  Biso   1.000  C
  H191     1.0000 0.01130  0.94940  0.04010  Biso   1.000  H
  C240     1.0000 0.95430  0.97770  0.08710  Biso   1.000  C
  H192     1.0000 0.95040  0.95520  0.13070  Biso   1.000  H
  C241     1.0000 0.14910  0.88150  0.65850  Biso   1.000  C
  H193     1.0000 0.11830  0.87980  0.65060  Biso   1.000  H
  C242     1.0000 0.17290  0.83990  0.67400  Biso   1.000  C
  H194     1.0000 0.15760  0.81140  0.67680  Biso   1.000  H
  C243     1.0000 0.21950  0.84060  0.68550  Biso   1.000  C
  C244     1.0000 0.24000  0.88530  0.67870  Biso   1.000  C
  H195     1.0000 0.27070  0.88850  0.68560  Biso   1.000  H
  C245     1.0000 0.21370  0.92390  0.66170  Biso   1.000  C
  H196     1.0000 0.22800  0.95280  0.65450  Biso   1.000  H
  C246     1.0000 0.24940  0.72070  0.76600  Biso   1.000  C
  H197     1.0000 0.23440  0.69430  0.78700  Biso   1.000  H
  C247     1.0000 0.22440  0.75790  0.73890  Biso   1.000  C
  H198     1.0000 0.19330  0.75570  0.73950  Biso   1.000  H
  C248     1.0000 0.24370  0.79750  0.71150  Biso   1.000  C
  C249     1.0000 0.29020  0.79640  0.70940  Biso   1.000  C
  H199     1.0000 0.30610  0.82260  0.69020  Biso   1.000  H
  C250     1.0000 0.31270  0.75670  0.73560  Biso   1.000  C
  H200     1.0000 0.34380  0.75690  0.73210  Biso   1.000  H
  Cu16     1.0000 0.32957  0.66842  0.82050  Biso   1.000  Cu
  Cu17     1.0000 0.69348  0.68670  0.95730  Biso   1.000  Cu
  Cu18     1.0000 0.86604  0.01558  0.15799  Biso   1.000  Cu
  N51      1.0000 0.39440  0.67480  0.85150  Biso   1.000  N
  N52      1.0000 0.62800  0.68990  0.93090  Biso   1.000  N
  N53      1.0000 0.71880  0.62430  0.92990  Biso   1.000  N
  N54      1.0000 0.80410  0.39530  0.84920  Biso   1.000  N
  N55      1.0000 0.72590  0.74010  0.00690  Biso   1.000  N
  N56      1.0000 0.83190  0.95430  0.12880  Biso   1.000  N
  N57      1.0000 0.89510  0.00730  0.28090  Biso   1.000  N
  N58      1.0000 0.07670  0.98650  0.57980  Biso   1.000  N
  N59      1.0000 0.83110  0.07690  0.15460  Biso   1.000  N
  N60      1.0000 0.70630  0.28070  0.26460  Biso   1.000  N
  C251     1.0000 0.42320  0.68400  0.78580  Biso   1.000  C
  H201     1.0000 0.41210  0.68600  0.72890  Biso   1.000  H
  C252     1.0000 0.46930  0.69070  0.79970  Biso   1.000  C
  H202     1.0000 0.48760  0.70000  0.75360  Biso   1.000  H
  C253     1.0000 0.48740  0.68340  0.88250  Biso   1.000  C
  C254     1.0000 0.45780  0.67180  0.94860  Biso   1.000  C
  H203     1.0000 0.46820  0.66730  0.00530  Biso   1.000  H
  C255     1.0000 0.41320  0.66700  0.93090  Biso   1.000  C
  H204     1.0000 0.39450  0.65770  0.97640  Biso   1.000  H
  C256     1.0000 0.61120  0.67670  0.85140  Biso   1.000  C
  H205     1.0000 0.63110  0.66830  0.80740  Biso   1.000  H
  C257     1.0000 0.56590  0.67540  0.83320  Biso   1.000  C
  H206     1.0000 0.55610  0.66660  0.77780  Biso   1.000  H
  C258     1.0000 0.53540  0.68700  0.89710  Biso   1.000  C
  C259     1.0000 0.55230  0.70170  0.97820  Biso   1.000  C
  H207     1.0000 0.53280  0.71040  0.02290  Biso   1.000  H
  C260     1.0000 0.59740  0.70320  0.99150  Biso   1.000  C
  H208     1.0000 0.60780  0.71410  0.04530  Biso   1.000  H
  C261     1.0000 0.69290  0.58620  0.91870  Biso   1.000  C
  H209     1.0000 0.66220  0.59050  0.92450  Biso   1.000  H
  C262     1.0000 0.70680  0.54330  0.90030  Biso   1.000  C
  H210     1.0000 0.68650  0.51960  0.88670  Biso   1.000  H
  C263     1.0000 0.75370  0.53400  0.90170  Biso   1.000  C
  C264     1.0000 0.78080  0.56990  0.91990  Biso   1.000  C
  H211     1.0000 0.81160  0.56560  0.92230  Biso   1.000  H
  C265     1.0000 0.76220  0.61350  0.93510  Biso   1.000  C
  H212     1.0000 0.78170  0.63770  0.95040  Biso   1.000  H
  C266     1.0000 0.82910  0.42800  0.89280  Biso   1.000  C
  H213     1.0000 0.85810  0.41990  0.90930  Biso   1.000  H
  C267     1.0000 0.81400  0.47230  0.91360  Biso   1.000  C
  H214     1.0000 0.83150  0.49300  0.94600  Biso   1.000  H
  C268     1.0000 0.77110  0.48550  0.88450  Biso   1.000  C
  C269     1.0000 0.74620  0.45130  0.84600  Biso   1.000  C
  H215     1.0000 0.71640  0.45720  0.83240  Biso   1.000  H
  C270     1.0000 0.76440  0.40800  0.82660  Biso   1.000  C
  H216     1.0000 0.74690  0.38660  0.79540  Biso   1.000  H
  C271     1.0000 0.77120  0.74610  0.00110  Biso   1.000  C
  H217     1.0000 0.78820  0.72170  0.97740  Biso   1.000  H
  C272     1.0000 0.79250  0.78570  0.02800  Biso   1.000  C
  H218     1.0000 0.82360  0.78740  0.02470  Biso   1.000  H
  C273     1.0000 0.76870  0.82380  0.06030  Biso   1.000  C
  C274     1.0000 0.72350  0.81830  0.06880  Biso   1.000  C
  H219     1.0000 0.70630  0.84200  0.09430  Biso   1.000  H
  C275     1.0000 0.70280  0.77600  0.03800  Biso   1.000  C
  H220     1.0000 0.67170  0.77370  0.04000  Biso   1.000  H
  C276     1.0000 0.85010  0.92400  0.07140  Biso   1.000  C
  H221     1.0000 0.87700  0.93210  0.04480  Biso   1.000  H
  C277     1.0000 0.83090  0.88180  0.05040  Biso   1.000  C
  H222     1.0000 0.84530  0.86120  0.01230  Biso   1.000  H
  C278     1.0000 0.79030  0.86970  0.08550  Biso   1.000  C
  C279     1.0000 0.77190  0.89980  0.14280  Biso   1.000  C
  H223     1.0000 0.74460  0.89250  0.16870  Biso   1.000  H
  C280     1.0000 0.79300  0.94140  0.16360  Biso   1.000  C
  H224     1.0000 0.77940  0.96150  0.20370  Biso   1.000  H
  C281     1.0000 0.90950  0.96500  0.30470  Biso   1.000  C
  H225     1.0000 0.89640  0.93840  0.28030  Biso   1.000  H
  C282     1.0000 0.94360  0.95960  0.36490  Biso   1.000  C
  H226     1.0000 0.95360  0.92940  0.37840  Biso   1.000  H
  C283     1.0000 0.96350  0.99870  0.40630  Biso   1.000  C
  C284     1.0000 0.94650  0.04280  0.38280  Biso   1.000  C
  H227     1.0000 0.95730  0.07010  0.40930  Biso   1.000  H
  C285     1.0000 0.91380  0.04540  0.32050  Biso   1.000  C
  H228     1.0000 0.90360  0.07510  0.30420  Biso   1.000  H
  C286     1.0000 0.06770  0.95480  0.51860  Biso   1.000  C
  H229     1.0000 0.08640  0.92850  0.51660  Biso   1.000  H
  C287     1.0000 0.03420  0.95650  0.45840  Biso   1.000  C
  H230     1.0000 0.03210  0.93410  0.41400  Biso   1.000  H
  C288     1.0000 0.00190  0.99450  0.46590  Biso   1.000  C
  C289     1.0000 0.00900  0.02600  0.53190  Biso   1.000  C
  H231     1.0000 0.98870  0.05060  0.54010  Biso   1.000  H
  C290     1.0000 0.04570  0.02230  0.58710  Biso   1.000  C
  H232     1.0000 0.04960  0.04480  0.63070  Biso   1.000  H
  C291     1.0000 0.85090  0.11850  0.15850  Biso   1.000  C
  H233     1.0000 0.88170  0.12020  0.15060  Biso   1.000  H
  C292     1.0000 0.82710  0.16010  0.17400  Biso   1.000  C
  H234     1.0000 0.84240  0.18860  0.17680  Biso   1.000  H
  C293     1.0000 0.78050  0.15940  0.18550  Biso   1.000  C
  C294     1.0000 0.76000  0.11470  0.17870  Biso   1.000  C
  H235     1.0000 0.72930  0.11150  0.18560  Biso   1.000  H
  C295     1.0000 0.78630  0.07610  0.16170  Biso   1.000  C
  H236     1.0000 0.77200  0.04720  0.15450  Biso   1.000  H
  C296     1.0000 0.75060  0.27930  0.26600  Biso   1.000  C
  H237     1.0000 0.76560  0.30570  0.28700  Biso   1.000  H
  C297     1.0000 0.77560  0.24210  0.23890  Biso   1.000  C
  H238     1.0000 0.80670  0.24430  0.23950  Biso   1.000  H
  C298     1.0000 0.75630  0.20250  0.21150  Biso   1.000  C
  C299     1.0000 0.70980  0.20360  0.20940  Biso   1.000  C
  H239     1.0000 0.69390  0.17740  0.19020  Biso   1.000  H
  C300     1.0000 0.68730  0.24330  0.23560  Biso   1.000  C
  H240     1.0000 0.65620  0.24310  0.23210  Biso   1.000  H
  Cu19     1.0000 0.17043  0.66842  0.32050  Biso   1.000  Cu
  Cu20     1.0000 0.80652  0.68670  0.45730  Biso   1.000  Cu
  Cu21     1.0000 0.63396  0.01558  0.65799  Biso   1.000  Cu
  N61      1.0000 0.10560  0.67480  0.35150  Biso   1.000  N
  N62      1.0000 0.87200  0.68990  0.43090  Biso   1.000  N
  N63      1.0000 0.78120  0.62430  0.42990  Biso   1.000  N
  N64      1.0000 0.69590  0.39530  0.34920  Biso   1.000  N
  N65      1.0000 0.77410  0.74010  0.50690  Biso   1.000  N
  N66      1.0000 0.66810  0.95430  0.62880  Biso   1.000  N
  N67      1.0000 0.60490  0.00730  0.78090  Biso   1.000  N
  N68      1.0000 0.42330  0.98650  0.07980  Biso   1.000  N
  N69      1.0000 0.66890  0.07690  0.65460  Biso   1.000  N
  N70      1.0000 0.79370  0.28070  0.76460  Biso   1.000  N
  C301     1.0000 0.07680  0.68400  0.28580  Biso   1.000  C
  H241     1.0000 0.08790  0.68600  0.22890  Biso   1.000  H
  C302     1.0000 0.03070  0.69070  0.29970  Biso   1.000  C
  H242     1.0000 0.01240  0.70000  0.25360  Biso   1.000  H
  C303     1.0000 0.01260  0.68340  0.38250  Biso   1.000  C
  C304     1.0000 0.04220  0.67180  0.44860  Biso   1.000  C
  H243     1.0000 0.03180  0.66730  0.50530  Biso   1.000  H
  C305     1.0000 0.08680  0.66700  0.43090  Biso   1.000  C
  H244     1.0000 0.10550  0.65770  0.47640  Biso   1.000  H
  C306     1.0000 0.88880  0.67670  0.35140  Biso   1.000  C
  H245     1.0000 0.86890  0.66830  0.30740  Biso   1.000  H
  C307     1.0000 0.93410  0.67540  0.33320  Biso   1.000  C
  H246     1.0000 0.94390  0.66660  0.27780  Biso   1.000  H
  C308     1.0000 0.96460  0.68700  0.39710  Biso   1.000  C
  C309     1.0000 0.94770  0.70170  0.47820  Biso   1.000  C
  H247     1.0000 0.96720  0.71040  0.52290  Biso   1.000  H
  C310     1.0000 0.90260  0.70320  0.49150  Biso   1.000  C
  H248     1.0000 0.89220  0.71410  0.54530  Biso   1.000  H
  C311     1.0000 0.80710  0.58620  0.41870  Biso   1.000  C
  H249     1.0000 0.83780  0.59050  0.42450  Biso   1.000  H
  C312     1.0000 0.79320  0.54330  0.40030  Biso   1.000  C
  H250     1.0000 0.81350  0.51960  0.38670  Biso   1.000  H
  C313     1.0000 0.74630  0.53400  0.40170  Biso   1.000  C
  C314     1.0000 0.71920  0.56990  0.41990  Biso   1.000  C
  H251     1.0000 0.68840  0.56560  0.42230  Biso   1.000  H
  C315     1.0000 0.73780  0.61350  0.43510  Biso   1.000  C
  H252     1.0000 0.71830  0.63770  0.45040  Biso   1.000  H
  C316     1.0000 0.67090  0.42800  0.39280  Biso   1.000  C
  H253     1.0000 0.64190  0.41990  0.40930  Biso   1.000  H
  C317     1.0000 0.68600  0.47230  0.41360  Biso   1.000  C
  H254     1.0000 0.66850  0.49300  0.44600  Biso   1.000  H
  C318     1.0000 0.72890  0.48550  0.38450  Biso   1.000  C
  C319     1.0000 0.75380  0.45130  0.34600  Biso   1.000  C
  H255     1.0000 0.78360  0.45720  0.33240  Biso   1.000  H
  C320     1.0000 0.73560  0.40800  0.32660  Biso   1.000  C
  H256     1.0000 0.75310  0.38660  0.29540  Biso   1.000  H
  C321     1.0000 0.72880  0.74610  0.50110  Biso   1.000  C
  H257     1.0000 0.71180  0.72170  0.47740  Biso   1.000  H
  C322     1.0000 0.70750  0.78570  0.52800  Biso   1.000  C
  H258     1.0000 0.67640  0.78740  0.52470  Biso   1.000  H
  C323     1.0000 0.73130  0.82380  0.56030  Biso   1.000  C
  C324     1.0000 0.77650  0.81830  0.56880  Biso   1.000  C
  H259     1.0000 0.79370  0.84200  0.59430  Biso   1.000  H
  C325     1.0000 0.79720  0.77600  0.53800  Biso   1.000  C
  H260     1.0000 0.82830  0.77370  0.54000  Biso   1.000  H
  C326     1.0000 0.64990  0.92400  0.57140  Biso   1.000  C
  H261     1.0000 0.62300  0.93210  0.54480  Biso   1.000  H
  C327     1.0000 0.66910  0.88180  0.55040  Biso   1.000  C
  H262     1.0000 0.65470  0.86120  0.51230  Biso   1.000  H
  C328     1.0000 0.70970  0.86970  0.58550  Biso   1.000  C
  C329     1.0000 0.72810  0.89980  0.64280  Biso   1.000  C
  H263     1.0000 0.75540  0.89250  0.66870  Biso   1.000  H
  C330     1.0000 0.70700  0.94140  0.66360  Biso   1.000  C
  H264     1.0000 0.72060  0.96150  0.70370  Biso   1.000  H
  C331     1.0000 0.59050  0.96500  0.80470  Biso   1.000  C
  H265     1.0000 0.60360  0.93840  0.78030  Biso   1.000  H
  C332     1.0000 0.55640  0.95960  0.86490  Biso   1.000  C
  H266     1.0000 0.54640  0.92940  0.87840  Biso   1.000  H
  C333     1.0000 0.53650  0.99870  0.90630  Biso   1.000  C
  C334     1.0000 0.55350  0.04280  0.88280  Biso   1.000  C
  H267     1.0000 0.54270  0.07010  0.90930  Biso   1.000  H
  C335     1.0000 0.58620  0.04540  0.82050  Biso   1.000  C
  H268     1.0000 0.59640  0.07510  0.80420  Biso   1.000  H
  C336     1.0000 0.43230  0.95480  0.01860  Biso   1.000  C
  H269     1.0000 0.41360  0.92850  0.01660  Biso   1.000  H
  C337     1.0000 0.46580  0.95650  0.95840  Biso   1.000  C
  H270     1.0000 0.46790  0.93410  0.91400  Biso   1.000  H
  C338     1.0000 0.49810  0.99450  0.96590  Biso   1.000  C
  C339     1.0000 0.49100  0.02600  0.03190  Biso   1.000  C
  H271     1.0000 0.51130  0.05060  0.04010  Biso   1.000  H
  C340     1.0000 0.45430  0.02230  0.08710  Biso   1.000  C
  H272     1.0000 0.45040  0.04480  0.13070  Biso   1.000  H
  C341     1.0000 0.64910  0.11850  0.65850  Biso   1.000  C
  H273     1.0000 0.61830  0.12020  0.65060  Biso   1.000  H
  C342     1.0000 0.67290  0.16010  0.67400  Biso   1.000  C
  H274     1.0000 0.65760  0.18860  0.67680  Biso   1.000  H
  C343     1.0000 0.71950  0.15940  0.68550  Biso   1.000  C
  C344     1.0000 0.74000  0.11470  0.67870  Biso   1.000  C
  H275     1.0000 0.77070  0.11150  0.68560  Biso   1.000  H
  C345     1.0000 0.71370  0.07610  0.66170  Biso   1.000  C
  H276     1.0000 0.72800  0.04720  0.65450  Biso   1.000  H
  C346     1.0000 0.74940  0.27930  0.76600  Biso   1.000  C
  H277     1.0000 0.73440  0.30570  0.78700  Biso   1.000  H
  C347     1.0000 0.72440  0.24210  0.73890  Biso   1.000  C
  H278     1.0000 0.69330  0.24430  0.73950  Biso   1.000  H
  C348     1.0000 0.74370  0.20250  0.71150  Biso   1.000  C
  C349     1.0000 0.79020  0.20360  0.70940  Biso   1.000  C
  H279     1.0000 0.80610  0.17740  0.69020  Biso   1.000  H
  C350     1.0000 0.81270  0.24330  0.73560  Biso   1.000  C
  H280     1.0000 0.84380  0.24310  0.73210  Biso   1.000  H
  Cu22     1.0000 0.82957  0.33158  0.82050  Biso   1.000  Cu
  Cu23     1.0000 0.19348  0.31330  0.95730  Biso   1.000  Cu
  Cu24     1.0000 0.36604  0.98442  0.15799  Biso   1.000  Cu
  N71      1.0000 0.89440  0.32520  0.85150  Biso   1.000  N
  N72      1.0000 0.12800  0.31010  0.93090  Biso   1.000  N
  N73      1.0000 0.21880  0.37570  0.92990  Biso   1.000  N
  N74      1.0000 0.30410  0.60470  0.84920  Biso   1.000  N
  N75      1.0000 0.22590  0.25990  0.00690  Biso   1.000  N
  N76      1.0000 0.33190  0.04570  0.12880  Biso   1.000  N
  N77      1.0000 0.39510  0.99270  0.28090  Biso   1.000  N
  N78      1.0000 0.57670  0.01350  0.57980  Biso   1.000  N
  N79      1.0000 0.33110  0.92310  0.15460  Biso   1.000  N
  N80      1.0000 0.20630  0.71930  0.26460  Biso   1.000  N
  C351     1.0000 0.92320  0.31600  0.78580  Biso   1.000  C
  H281     1.0000 0.91210  0.31400  0.72890  Biso   1.000  H
  C352     1.0000 0.96930  0.30930  0.79970  Biso   1.000  C
  H282     1.0000 0.98760  0.30000  0.75360  Biso   1.000  H
  C353     1.0000 0.98740  0.31660  0.88250  Biso   1.000  C
  C354     1.0000 0.95780  0.32820  0.94860  Biso   1.000  C
  H283     1.0000 0.96820  0.33270  0.00530  Biso   1.000  H
  C355     1.0000 0.91320  0.33300  0.93090  Biso   1.000  C
  H284     1.0000 0.89450  0.34230  0.97640  Biso   1.000  H
  C356     1.0000 0.11120  0.32330  0.85140  Biso   1.000  C
  H285     1.0000 0.13110  0.33170  0.80740  Biso   1.000  H
  C357     1.0000 0.06590  0.32460  0.83320  Biso   1.000  C
  H286     1.0000 0.05610  0.33340  0.77780  Biso   1.000  H
  C358     1.0000 0.03540  0.31300  0.89710  Biso   1.000  C
  C359     1.0000 0.05230  0.29830  0.97820  Biso   1.000  C
  H287     1.0000 0.03280  0.28960  0.02290  Biso   1.000  H
  C360     1.0000 0.09740  0.29680  0.99150  Biso   1.000  C
  H288     1.0000 0.10780  0.28590  0.04530  Biso   1.000  H
  C361     1.0000 0.19290  0.41380  0.91870  Biso   1.000  C
  H289     1.0000 0.16220  0.40950  0.92450  Biso   1.000  H
  C362     1.0000 0.20680  0.45670  0.90030  Biso   1.000  C
  H290     1.0000 0.18650  0.48040  0.88670  Biso   1.000  H
  C363     1.0000 0.25370  0.46600  0.90170  Biso   1.000  C
  C364     1.0000 0.28080  0.43010  0.91990  Biso   1.000  C
  H291     1.0000 0.31160  0.43440  0.92230  Biso   1.000  H
  C365     1.0000 0.26220  0.38650  0.93510  Biso   1.000  C
  H292     1.0000 0.28170  0.36230  0.95040  Biso   1.000  H
  C366     1.0000 0.32910  0.57200  0.89280  Biso   1.000  C
  H293     1.0000 0.35810  0.58010  0.90930  Biso   1.000  H
  C367     1.0000 0.31400  0.52770  0.91360  Biso   1.000  C
  H294     1.0000 0.33150  0.50700  0.94600  Biso   1.000  H
  C368     1.0000 0.27110  0.51450  0.88450  Biso   1.000  C
  C369     1.0000 0.24620  0.54870  0.84600  Biso   1.000  C
  H295     1.0000 0.21640  0.54280  0.83240  Biso   1.000  H
  C370     1.0000 0.26440  0.59200  0.82660  Biso   1.000  C
  H296     1.0000 0.24690  0.61340  0.79540  Biso   1.000  H
  C371     1.0000 0.27120  0.25390  0.00110  Biso   1.000  C
  H297     1.0000 0.28820  0.27830  0.97740  Biso   1.000  H
  C372     1.0000 0.29250  0.21430  0.02800  Biso   1.000  C
  H298     1.0000 0.32360  0.21260  0.02470  Biso   1.000  H
  C373     1.0000 0.26870  0.17620  0.06030  Biso   1.000  C
  C374     1.0000 0.22350  0.18170  0.06880  Biso   1.000  C
  H299     1.0000 0.20630  0.15800  0.09430  Biso   1.000  H
  C375     1.0000 0.20280  0.22400  0.03800  Biso   1.000  C
  H300     1.0000 0.17170  0.22630  0.04000  Biso   1.000  H
  C376     1.0000 0.35010  0.07600  0.07140  Biso   1.000  C
  H301     1.0000 0.37700  0.06790  0.04480  Biso   1.000  H
  C377     1.0000 0.33090  0.11820  0.05040  Biso   1.000  C
  H302     1.0000 0.34530  0.13880  0.01230  Biso   1.000  H
  C378     1.0000 0.29030  0.13030  0.08550  Biso   1.000  C
  C379     1.0000 0.27190  0.10020  0.14280  Biso   1.000  C
  H303     1.0000 0.24460  0.10750  0.16870  Biso   1.000  H
  C380     1.0000 0.29300  0.05860  0.16360  Biso   1.000  C
  H304     1.0000 0.27940  0.03850  0.20370  Biso   1.000  H
  C381     1.0000 0.40950  0.03500  0.30470  Biso   1.000  C
  H305     1.0000 0.39640  0.06160  0.28030  Biso   1.000  H
  C382     1.0000 0.44360  0.04040  0.36490  Biso   1.000  C
  H306     1.0000 0.45360  0.07060  0.37840  Biso   1.000  H
  C383     1.0000 0.46350  0.00130  0.40630  Biso   1.000  C
  C384     1.0000 0.44650  0.95720  0.38280  Biso   1.000  C
  H307     1.0000 0.45730  0.92990  0.40930  Biso   1.000  H
  C385     1.0000 0.41380  0.95460  0.32050  Biso   1.000  C
  H308     1.0000 0.40360  0.92490  0.30420  Biso   1.000  H
  C386     1.0000 0.56770  0.04520  0.51860  Biso   1.000  C
  H309     1.0000 0.58640  0.07150  0.51660  Biso   1.000  H
  C387     1.0000 0.53420  0.04350  0.45840  Biso   1.000  C
  H310     1.0000 0.53210  0.06590  0.41400  Biso   1.000  H
  C388     1.0000 0.50190  0.00550  0.46590  Biso   1.000  C
  C389     1.0000 0.50900  0.97400  0.53190  Biso   1.000  C
  H311     1.0000 0.48870  0.94940  0.54010  Biso   1.000  H
  C390     1.0000 0.54570  0.97770  0.58710  Biso   1.000  C
  H312     1.0000 0.54960  0.95520  0.63070  Biso   1.000  H
  C391     1.0000 0.35090  0.88150  0.15850  Biso   1.000  C
  H313     1.0000 0.38170  0.87980  0.15060  Biso   1.000  H
  C392     1.0000 0.32710  0.83990  0.17400  Biso   1.000  C
  H314     1.0000 0.34240  0.81140  0.17680  Biso   1.000  H
  C393     1.0000 0.28050  0.84060  0.18550  Biso   1.000  C
  C394     1.0000 0.26000  0.88530  0.17870  Biso   1.000  C
  H315     1.0000 0.22930  0.88850  0.18560  Biso   1.000  H
  C395     1.0000 0.28630  0.92390  0.16170  Biso   1.000  C
  H316     1.0000 0.27200  0.95280  0.15450  Biso   1.000  H
  C396     1.0000 0.25060  0.72070  0.26600  Biso   1.000  C
  H317     1.0000 0.26560  0.69430  0.28700  Biso   1.000  H
  C397     1.0000 0.27560  0.75790  0.23890  Biso   1.000  C
  H318     1.0000 0.30670  0.75570  0.23950  Biso   1.000  H
  C398     1.0000 0.25630  0.79750  0.21150  Biso   1.000  C
  C399     1.0000 0.20980  0.79640  0.20940  Biso   1.000  C
  H319     1.0000 0.19390  0.82260  0.19020  Biso   1.000  H
  C400     1.0000 0.18730  0.75670  0.23560  Biso   1.000  C
  H320     1.0000 0.15620  0.75690  0.23210  Biso   1.000  H
