data_YAPMAF_clean
_audit_creation_date              2014-07-02
_audit_creation_method            'Materials Studio'
_symmetry_space_group_name_H-M    'P1'
_symmetry_Int_Tables_number       1
_symmetry_cell_setting            triclinic
loop_
_symmetry_equiv_pos_as_xyz
  x,y,z
_cell_length_a                    29.3162
_cell_length_b                    29.3162
_cell_length_c                    29.3162
_cell_angle_alpha                 109.4710
_cell_angle_beta                  109.4710
_cell_angle_gamma                 109.4710
loop_
_atom_site_label
_atom_site_type_symbol
_atom_site_fract_x
_atom_site_fract_y
_atom_site_fract_z
_atom_site_U_iso_or_equiv
_atom_site_adp_type
_atom_site_occupancy
Ni1    Ni    0.56127   0.14088   0.71807   0.01267  Uiso   1.00
Ni2    Ni    0.92281   0.84320   0.78193   0.01267  Uiso   1.00
Ni3    Ni    0.57719   0.35912   0.92039   0.01267  Uiso   1.00
Ni4    Ni    0.93873   0.65680   0.57961   0.01267  Uiso   1.00
Ni5    Ni    0.42039   0.57719   0.85912   0.01267  Uiso   1.00
Ni6    Ni    0.07961   0.93873   0.15680   0.01267  Uiso   1.00
Ni7    Ni    0.21807   0.56127   0.64088   0.01267  Uiso   1.00
Ni8    Ni    0.28193   0.92281   0.34320   0.01267  Uiso   1.00
Ni9    Ni    0.84320   0.28193   0.42281   0.01267  Uiso   1.00
Ni10   Ni    0.14088   0.21807   0.06127   0.01267  Uiso   1.00
Ni11   Ni    0.65680   0.07961   0.43873   0.01267  Uiso   1.00
Ni12   Ni    0.35912   0.42039   0.07719   0.01267  Uiso   1.00
Ni13   Ni    0.35912   0.93873   0.78193   0.01267  Uiso   1.00
Ni14   Ni    0.65680   0.57719   0.71807   0.01267  Uiso   1.00
Ni15   Ni    0.14088   0.92281   0.57961   0.01267  Uiso   1.00
Ni16   Ni    0.84320   0.56127   0.92039   0.01267  Uiso   1.00
Ni17   Ni    0.92281   0.07961   0.64088   0.01267  Uiso   1.00
Ni18   Ni    0.56127   0.42039   0.34320   0.01267  Uiso   1.00
Ni19   Ni    0.93873   0.28193   0.85912   0.01267  Uiso   1.00
Ni20   Ni    0.57719   0.21807   0.15680   0.01267  Uiso   1.00
Ni21   Ni    0.21807   0.65680   0.07719   0.01267  Uiso   1.00
Ni22   Ni    0.28193   0.35912   0.43873   0.01267  Uiso   1.00
Ni23   Ni    0.42039   0.84320   0.06127   0.01267  Uiso   1.00
Ni24   Ni    0.07961   0.14088   0.42281   0.01267  Uiso   1.00
Ni25   Ni    0.43873   0.85912   0.28193   0.01267  Uiso   1.00
Ni26   Ni    0.07719   0.15680   0.21807   0.01267  Uiso   1.00
Ni27   Ni    0.42281   0.64088   0.07961   0.01267  Uiso   1.00
Ni28   Ni    0.06127   0.34320   0.42039   0.01267  Uiso   1.00
Ni29   Ni    0.57961   0.42281   0.14088   0.01267  Uiso   1.00
Ni30   Ni    0.92039   0.06127   0.84320   0.01267  Uiso   1.00
Ni31   Ni    0.78193   0.43873   0.35912   0.01267  Uiso   1.00
Ni32   Ni    0.71807   0.07719   0.65680   0.01267  Uiso   1.00
Ni33   Ni    0.15680   0.71807   0.57719   0.01267  Uiso   1.00
Ni34   Ni    0.85912   0.78193   0.93873   0.01267  Uiso   1.00
Ni35   Ni    0.34320   0.92039   0.56127   0.01267  Uiso   1.00
Ni36   Ni    0.64088   0.57961   0.92281   0.01267  Uiso   1.00
Ni37   Ni    0.64088   0.06127   0.21807   0.01267  Uiso   1.00
Ni38   Ni    0.34320   0.42281   0.28193   0.01267  Uiso   1.00
Ni39   Ni    0.85912   0.07719   0.42039   0.01267  Uiso   1.00
Ni40   Ni    0.15680   0.43873   0.07961   0.01267  Uiso   1.00
Ni41   Ni    0.07719   0.92039   0.35912   0.01267  Uiso   1.00
Ni42   Ni    0.43873   0.57961   0.65680   0.01267  Uiso   1.00
Ni43   Ni    0.06127   0.71807   0.14088   0.01267  Uiso   1.00
Ni44   Ni    0.42281   0.78193   0.84320   0.01267  Uiso   1.00
Ni45   Ni    0.78193   0.34320   0.92281   0.01267  Uiso   1.00
Ni46   Ni    0.71807   0.64088   0.56127   0.01267  Uiso   1.00
Ni47   Ni    0.57961   0.15680   0.93873   0.01267  Uiso   1.00
Ni48   Ni    0.92039   0.85912   0.57719   0.01267  Uiso   1.00
H1     H     0.66890   0.22460   0.84950   0.01267  Uiso   1.00
H2     H     0.44410   0.03040   0.67730   0.01267  Uiso   1.00
H3     H     0.39960   0.01400   0.52580   0.01267  Uiso   1.00
H4     H     0.73930   0.31440   0.79350   0.01267  Uiso   1.00
H5     H     0.46760   0.11120   0.55300   0.01267  Uiso   1.00
H6     H     0.63930   0.23420   0.66970   0.01267  Uiso   1.00
H7     H     0.87510   0.81940   0.65050   0.01267  Uiso   1.00
H8     H     0.85310   0.76680   0.82270   0.01267  Uiso   1.00
H9     H     0.98820   0.87380   0.97420   0.01267  Uiso   1.00
H10    H     0.02090   0.94580   0.70650   0.01267  Uiso   1.00
H11    H     0.05820   0.91460   0.94700   0.01267  Uiso   1.00
H12    H     0.06450   0.96960   0.83030   0.01267  Uiso   1.00
H13    H     0.62490   0.27540   0.94430   0.01267  Uiso   1.00
H14    H     0.64690   0.46960   0.91370   0.01267  Uiso   1.00
H15    H     0.51180   0.48600   0.88560   0.01267  Uiso   1.00
H16    H     0.47910   0.18560   0.92490   0.01267  Uiso   1.00
H17    H     0.44180   0.38880   0.85640   0.01267  Uiso   1.00
H18    H     0.43550   0.26580   0.90510   0.01267  Uiso   1.00
H19    H     0.83110   0.68060   0.55570   0.01267  Uiso   1.00
H20    H     0.05590   0.73320   0.58630   0.01267  Uiso   1.00
H21    H     0.10040   0.62620   0.61440   0.01267  Uiso   1.00
H22    H     0.76070   0.55420   0.57510   0.01267  Uiso   1.00
H23    H     0.03240   0.58540   0.64360   0.01267  Uiso   1.00
H24    H     0.86070   0.53040   0.59490   0.01267  Uiso   1.00
H25    H     0.44430   0.62490   0.77540   0.01267  Uiso   1.00
H26    H     0.41370   0.64690   0.96960   0.01267  Uiso   1.00
H27    H     0.38560   0.51180   0.98600   0.01267  Uiso   1.00
H28    H     0.42490   0.47910   0.68560   0.01267  Uiso   1.00
H29    H     0.35640   0.44180   0.88880   0.01267  Uiso   1.00
H30    H     0.40510   0.43550   0.76580   0.01267  Uiso   1.00
H31    H     0.05570   0.83110   0.18060   0.01267  Uiso   1.00
H32    H     0.08630   0.05590   0.23320   0.01267  Uiso   1.00
H33    H     0.11440   0.10040   0.12620   0.01267  Uiso   1.00
H34    H     0.07510   0.76070   0.05420   0.01267  Uiso   1.00
H35    H     0.14360   0.03240   0.08540   0.01267  Uiso   1.00
H36    H     0.09490   0.86070   0.03040   0.01267  Uiso   1.00
H37    H     0.34950   0.66890   0.72460   0.01267  Uiso   1.00
H38    H     0.17730   0.44410   0.53040   0.01267  Uiso   1.00
H39    H     0.02580   0.39960   0.51400   0.01267  Uiso   1.00
H40    H     0.29350   0.73930   0.81440   0.01267  Uiso   1.00
H41    H     0.05300   0.46760   0.61120   0.01267  Uiso   1.00
H42    H     0.16970   0.63930   0.73420   0.01267  Uiso   1.00
H43    H     0.15050   0.87510   0.31940   0.01267  Uiso   1.00
H44    H     0.32270   0.85310   0.26680   0.01267  Uiso   1.00
H45    H     0.47420   0.98820   0.37380   0.01267  Uiso   1.00
H46    H     0.20650   0.02090   0.44580   0.01267  Uiso   1.00
H47    H     0.44700   0.05820   0.41460   0.01267  Uiso   1.00
H48    H     0.33030   0.06450   0.46960   0.01267  Uiso   1.00
H49    H     0.81940   0.15050   0.37510   0.01267  Uiso   1.00
H50    H     0.76680   0.32270   0.35310   0.01267  Uiso   1.00
H51    H     0.87380   0.47420   0.48820   0.01267  Uiso   1.00
H52    H     0.94580   0.20650   0.52090   0.01267  Uiso   1.00
H53    H     0.91460   0.44700   0.55820   0.01267  Uiso   1.00
H54    H     0.96960   0.33030   0.56450   0.01267  Uiso   1.00
H55    H     0.22460   0.34950   0.16890   0.01267  Uiso   1.00
H56    H     0.03040   0.17730   0.94410   0.01267  Uiso   1.00
H57    H     0.01400   0.02580   0.89960   0.01267  Uiso   1.00
H58    H     0.31440   0.29350   0.23930   0.01267  Uiso   1.00
H59    H     0.11120   0.05300   0.96760   0.01267  Uiso   1.00
H60    H     0.23420   0.16970   0.13930   0.01267  Uiso   1.00
H61    H     0.68060   0.05570   0.33110   0.01267  Uiso   1.00
H62    H     0.73320   0.08630   0.55590   0.01267  Uiso   1.00
H63    H     0.62620   0.11440   0.60040   0.01267  Uiso   1.00
H64    H     0.55420   0.07510   0.26070   0.01267  Uiso   1.00
H65    H     0.58540   0.14360   0.53240   0.01267  Uiso   1.00
H66    H     0.53040   0.09490   0.36070   0.01267  Uiso   1.00
H67    H     0.27540   0.44430   0.12490   0.01267  Uiso   1.00
H68    H     0.46960   0.41370   0.14690   0.01267  Uiso   1.00
H69    H     0.48600   0.38560   0.01180   0.01267  Uiso   1.00
H70    H     0.18560   0.42490   0.97910   0.01267  Uiso   1.00
H71    H     0.38880   0.35640   0.94180   0.01267  Uiso   1.00
H72    H     0.26580   0.40510   0.93550   0.01267  Uiso   1.00
H73    H     0.27540   0.83110   0.65050   0.01267  Uiso   1.00
H74    H     0.46960   0.05590   0.82270   0.01267  Uiso   1.00
H75    H     0.48600   0.10040   0.97420   0.01267  Uiso   1.00
H76    H     0.18560   0.76070   0.70650   0.01267  Uiso   1.00
H77    H     0.38880   0.03240   0.94700   0.01267  Uiso   1.00
H78    H     0.26580   0.86070   0.83030   0.01267  Uiso   1.00
H79    H     0.68060   0.62490   0.84950   0.01267  Uiso   1.00
H80    H     0.73320   0.64690   0.67730   0.01267  Uiso   1.00
H81    H     0.62620   0.51180   0.52580   0.01267  Uiso   1.00
H82    H     0.55420   0.47910   0.79350   0.01267  Uiso   1.00
H83    H     0.58540   0.44180   0.55300   0.01267  Uiso   1.00
H84    H     0.53040   0.43550   0.66970   0.01267  Uiso   1.00
H85    H     0.22460   0.87510   0.55570   0.01267  Uiso   1.00
H86    H     0.03040   0.85310   0.58630   0.01267  Uiso   1.00
H87    H     0.01400   0.98820   0.61440   0.01267  Uiso   1.00
H88    H     0.31440   0.02090   0.57510   0.01267  Uiso   1.00
H89    H     0.11120   0.05820   0.64360   0.01267  Uiso   1.00
H90    H     0.23420   0.06450   0.59490   0.01267  Uiso   1.00
H91    H     0.81940   0.66890   0.94430   0.01267  Uiso   1.00
H92    H     0.76680   0.44410   0.91370   0.01267  Uiso   1.00
H93    H     0.87380   0.39960   0.88560   0.01267  Uiso   1.00
H94    H     0.94580   0.73930   0.92490   0.01267  Uiso   1.00
H95    H     0.91460   0.46760   0.85640   0.01267  Uiso   1.00
H96    H     0.96960   0.63930   0.90510   0.01267  Uiso   1.00
H97    H     0.87510   0.05570   0.72460   0.01267  Uiso   1.00
H98    H     0.85310   0.08630   0.53040   0.01267  Uiso   1.00
H99    H     0.98820   0.11440   0.51400   0.01267  Uiso   1.00
H100   H     0.02090   0.07510   0.81440   0.01267  Uiso   1.00
H101   H     0.05820   0.14360   0.61120   0.01267  Uiso   1.00
H102   H     0.06450   0.09490   0.73420   0.01267  Uiso   1.00
H103   H     0.66890   0.44430   0.31940   0.01267  Uiso   1.00
H104   H     0.44410   0.41370   0.26680   0.01267  Uiso   1.00
H105   H     0.39960   0.38560   0.37380   0.01267  Uiso   1.00
H106   H     0.73930   0.42490   0.44580   0.01267  Uiso   1.00
H107   H     0.46760   0.35640   0.41460   0.01267  Uiso   1.00
H108   H     0.63930   0.40510   0.46960   0.01267  Uiso   1.00
H109   H     0.83110   0.15050   0.77540   0.01267  Uiso   1.00
H110   H     0.05590   0.32270   0.96960   0.01267  Uiso   1.00
H111   H     0.10040   0.47420   0.98600   0.01267  Uiso   1.00
H112   H     0.76070   0.20650   0.68560   0.01267  Uiso   1.00
H113   H     0.03240   0.44700   0.88880   0.01267  Uiso   1.00
H114   H     0.86070   0.33030   0.76580   0.01267  Uiso   1.00
H115   H     0.62490   0.34950   0.18060   0.01267  Uiso   1.00
H116   H     0.64690   0.17730   0.23320   0.01267  Uiso   1.00
H117   H     0.51180   0.02580   0.12620   0.01267  Uiso   1.00
H118   H     0.47910   0.29350   0.05420   0.01267  Uiso   1.00
H119   H     0.44180   0.05300   0.08540   0.01267  Uiso   1.00
H120   H     0.43550   0.16970   0.03040   0.01267  Uiso   1.00
H121   H     0.34950   0.68060   0.12490   0.01267  Uiso   1.00
H122   H     0.17730   0.73320   0.14690   0.01267  Uiso   1.00
H123   H     0.02580   0.62620   0.01180   0.01267  Uiso   1.00
H124   H     0.29350   0.55420   0.97910   0.01267  Uiso   1.00
H125   H     0.05300   0.58540   0.94180   0.01267  Uiso   1.00
H126   H     0.16970   0.53040   0.93550   0.01267  Uiso   1.00
H127   H     0.15050   0.27540   0.33110   0.01267  Uiso   1.00
H128   H     0.32270   0.46960   0.55590   0.01267  Uiso   1.00
H129   H     0.47420   0.48600   0.60040   0.01267  Uiso   1.00
H130   H     0.20650   0.18560   0.26070   0.01267  Uiso   1.00
H131   H     0.44700   0.38880   0.53240   0.01267  Uiso   1.00
H132   H     0.33030   0.26580   0.36070   0.01267  Uiso   1.00
H133   H     0.44430   0.81940   0.16890   0.01267  Uiso   1.00
H134   H     0.41370   0.76680   0.94410   0.01267  Uiso   1.00
H135   H     0.38560   0.87380   0.89960   0.01267  Uiso   1.00
H136   H     0.42490   0.94580   0.23930   0.01267  Uiso   1.00
H137   H     0.35640   0.91460   0.96760   0.01267  Uiso   1.00
H138   H     0.40510   0.96960   0.13930   0.01267  Uiso   1.00
H139   H     0.05570   0.22460   0.37510   0.01267  Uiso   1.00
H140   H     0.08630   0.03040   0.35310   0.01267  Uiso   1.00
H141   H     0.11440   0.01400   0.48820   0.01267  Uiso   1.00
H142   H     0.07510   0.31440   0.52090   0.01267  Uiso   1.00
H143   H     0.14360   0.11120   0.55820   0.01267  Uiso   1.00
H144   H     0.09490   0.23420   0.56450   0.01267  Uiso   1.00
H145   H     0.33110   0.77540   0.15050   0.01267  Uiso   1.00
H146   H     0.55590   0.96960   0.32270   0.01267  Uiso   1.00
H147   H     0.60040   0.98600   0.47420   0.01267  Uiso   1.00
H148   H     0.26070   0.68560   0.20650   0.01267  Uiso   1.00
H149   H     0.53240   0.88880   0.44700   0.01267  Uiso   1.00
H150   H     0.36070   0.76580   0.33030   0.01267  Uiso   1.00
H151   H     0.12490   0.18060   0.34950   0.01267  Uiso   1.00
H152   H     0.14690   0.23320   0.17730   0.01267  Uiso   1.00
H153   H     0.01180   0.12620   0.02580   0.01267  Uiso   1.00
H154   H     0.97910   0.05420   0.29350   0.01267  Uiso   1.00
H155   H     0.94180   0.08540   0.05300   0.01267  Uiso   1.00
H156   H     0.93550   0.03040   0.16970   0.01267  Uiso   1.00
H157   H     0.37510   0.72460   0.05570   0.01267  Uiso   1.00
H158   H     0.35310   0.53040   0.08630   0.01267  Uiso   1.00
H159   H     0.48820   0.51400   0.11440   0.01267  Uiso   1.00
H160   H     0.52090   0.81440   0.07510   0.01267  Uiso   1.00
H161   H     0.55820   0.61120   0.14360   0.01267  Uiso   1.00
H162   H     0.56450   0.73420   0.09490   0.01267  Uiso   1.00
H163   H     0.16890   0.31940   0.44430   0.01267  Uiso   1.00
H164   H     0.94410   0.26680   0.41370   0.01267  Uiso   1.00
H165   H     0.89960   0.37380   0.38560   0.01267  Uiso   1.00
H166   H     0.23930   0.44580   0.42490   0.01267  Uiso   1.00
H167   H     0.96760   0.41460   0.35640   0.01267  Uiso   1.00
H168   H     0.13930   0.46960   0.40510   0.01267  Uiso   1.00
H169   H     0.55570   0.37510   0.22460   0.01267  Uiso   1.00
H170   H     0.58630   0.35310   0.03040   0.01267  Uiso   1.00
H171   H     0.61440   0.48820   0.01400   0.01267  Uiso   1.00
H172   H     0.57510   0.52090   0.31440   0.01267  Uiso   1.00
H173   H     0.64360   0.55820   0.11120   0.01267  Uiso   1.00
H174   H     0.59490   0.56450   0.23420   0.01267  Uiso   1.00
H175   H     0.94430   0.16890   0.81940   0.01267  Uiso   1.00
H176   H     0.91370   0.94410   0.76680   0.01267  Uiso   1.00
H177   H     0.88560   0.89960   0.87380   0.01267  Uiso   1.00
H178   H     0.92490   0.23930   0.94580   0.01267  Uiso   1.00
H179   H     0.85640   0.96760   0.91460   0.01267  Uiso   1.00
H180   H     0.90510   0.13930   0.96960   0.01267  Uiso   1.00
H181   H     0.65050   0.33110   0.27540   0.01267  Uiso   1.00
H182   H     0.82270   0.55590   0.46960   0.01267  Uiso   1.00
H183   H     0.97420   0.60040   0.48600   0.01267  Uiso   1.00
H184   H     0.70650   0.26070   0.18560   0.01267  Uiso   1.00
H185   H     0.94700   0.53240   0.38880   0.01267  Uiso   1.00
H186   H     0.83030   0.36070   0.26580   0.01267  Uiso   1.00
H187   H     0.84950   0.12490   0.68060   0.01267  Uiso   1.00
H188   H     0.67730   0.14690   0.73320   0.01267  Uiso   1.00
H189   H     0.52580   0.01180   0.62620   0.01267  Uiso   1.00
H190   H     0.79350   0.97910   0.55420   0.01267  Uiso   1.00
H191   H     0.55300   0.94180   0.58540   0.01267  Uiso   1.00
H192   H     0.66970   0.93550   0.53040   0.01267  Uiso   1.00
H193   H     0.18060   0.84950   0.62490   0.01267  Uiso   1.00
H194   H     0.23320   0.67730   0.64690   0.01267  Uiso   1.00
H195   H     0.12620   0.52580   0.51180   0.01267  Uiso   1.00
H196   H     0.05420   0.79350   0.47910   0.01267  Uiso   1.00
H197   H     0.08540   0.55300   0.44180   0.01267  Uiso   1.00
H198   H     0.03040   0.66970   0.43550   0.01267  Uiso   1.00
H199   H     0.77540   0.65050   0.83110   0.01267  Uiso   1.00
H200   H     0.96960   0.82270   0.05590   0.01267  Uiso   1.00
H201   H     0.98600   0.97420   0.10040   0.01267  Uiso   1.00
H202   H     0.68560   0.70650   0.76070   0.01267  Uiso   1.00
H203   H     0.88880   0.94700   0.03240   0.01267  Uiso   1.00
H204   H     0.76580   0.83030   0.86070   0.01267  Uiso   1.00
H205   H     0.31940   0.94430   0.66890   0.01267  Uiso   1.00
H206   H     0.26680   0.91370   0.44410   0.01267  Uiso   1.00
H207   H     0.37380   0.88560   0.39960   0.01267  Uiso   1.00
H208   H     0.44580   0.92490   0.73930   0.01267  Uiso   1.00
H209   H     0.41460   0.85640   0.46760   0.01267  Uiso   1.00
H210   H     0.46960   0.90510   0.63930   0.01267  Uiso   1.00
H211   H     0.72460   0.55570   0.87510   0.01267  Uiso   1.00
H212   H     0.53040   0.58630   0.85310   0.01267  Uiso   1.00
H213   H     0.51400   0.61440   0.98820   0.01267  Uiso   1.00
H214   H     0.81440   0.57510   0.02090   0.01267  Uiso   1.00
H215   H     0.61120   0.64360   0.05820   0.01267  Uiso   1.00
H216   H     0.73420   0.59490   0.06450   0.01267  Uiso   1.00
H217   H     0.72460   0.16890   0.34950   0.01267  Uiso   1.00
H218   H     0.53040   0.94410   0.17730   0.01267  Uiso   1.00
H219   H     0.51400   0.89960   0.02580   0.01267  Uiso   1.00
H220   H     0.81440   0.23930   0.29350   0.01267  Uiso   1.00
H221   H     0.61120   0.96760   0.05300   0.01267  Uiso   1.00
H222   H     0.73420   0.13930   0.16970   0.01267  Uiso   1.00
H223   H     0.31940   0.37510   0.15050   0.01267  Uiso   1.00
H224   H     0.26680   0.35310   0.32270   0.01267  Uiso   1.00
H225   H     0.37380   0.48820   0.47420   0.01267  Uiso   1.00
H226   H     0.44580   0.52090   0.20650   0.01267  Uiso   1.00
H227   H     0.41460   0.55820   0.44700   0.01267  Uiso   1.00
H228   H     0.46960   0.56450   0.33030   0.01267  Uiso   1.00
H229   H     0.77540   0.12490   0.44430   0.01267  Uiso   1.00
H230   H     0.96960   0.14690   0.41370   0.01267  Uiso   1.00
H231   H     0.98600   0.01180   0.38560   0.01267  Uiso   1.00
H232   H     0.68560   0.97910   0.42490   0.01267  Uiso   1.00
H233   H     0.88880   0.94180   0.35640   0.01267  Uiso   1.00
H234   H     0.76580   0.93550   0.40510   0.01267  Uiso   1.00
H235   H     0.18060   0.33110   0.05570   0.01267  Uiso   1.00
H236   H     0.23320   0.55590   0.08630   0.01267  Uiso   1.00
H237   H     0.12620   0.60040   0.11440   0.01267  Uiso   1.00
H238   H     0.05420   0.26070   0.07510   0.01267  Uiso   1.00
H239   H     0.08540   0.53240   0.14360   0.01267  Uiso   1.00
H240   H     0.03040   0.36070   0.09490   0.01267  Uiso   1.00
H241   H     0.12490   0.94430   0.27540   0.01267  Uiso   1.00
H242   H     0.14690   0.91370   0.46960   0.01267  Uiso   1.00
H243   H     0.01180   0.88560   0.48600   0.01267  Uiso   1.00
H244   H     0.97910   0.92490   0.18560   0.01267  Uiso   1.00
H245   H     0.94180   0.85640   0.38880   0.01267  Uiso   1.00
H246   H     0.93550   0.90510   0.26580   0.01267  Uiso   1.00
H247   H     0.33110   0.55570   0.68060   0.01267  Uiso   1.00
H248   H     0.55590   0.58630   0.73320   0.01267  Uiso   1.00
H249   H     0.60040   0.61440   0.62620   0.01267  Uiso   1.00
H250   H     0.26070   0.57510   0.55420   0.01267  Uiso   1.00
H251   H     0.53240   0.64360   0.58540   0.01267  Uiso   1.00
H252   H     0.36070   0.59490   0.53040   0.01267  Uiso   1.00
H253   H     0.16890   0.84950   0.22460   0.01267  Uiso   1.00
H254   H     0.94410   0.67730   0.03040   0.01267  Uiso   1.00
H255   H     0.89960   0.52580   0.01400   0.01267  Uiso   1.00
H256   H     0.23930   0.79350   0.31440   0.01267  Uiso   1.00
H257   H     0.96760   0.55300   0.11120   0.01267  Uiso   1.00
H258   H     0.13930   0.66970   0.23420   0.01267  Uiso   1.00
H259   H     0.37510   0.65050   0.81940   0.01267  Uiso   1.00
H260   H     0.35310   0.82270   0.76680   0.01267  Uiso   1.00
H261   H     0.48820   0.97420   0.87380   0.01267  Uiso   1.00
H262   H     0.52090   0.70650   0.94580   0.01267  Uiso   1.00
H263   H     0.55820   0.94700   0.91460   0.01267  Uiso   1.00
H264   H     0.56450   0.83030   0.96960   0.01267  Uiso   1.00
H265   H     0.65050   0.31940   0.87510   0.01267  Uiso   1.00
H266   H     0.82270   0.26680   0.85310   0.01267  Uiso   1.00
H267   H     0.97420   0.37380   0.98820   0.01267  Uiso   1.00
H268   H     0.70650   0.44580   0.02090   0.01267  Uiso   1.00
H269   H     0.94700   0.41460   0.05820   0.01267  Uiso   1.00
H270   H     0.83030   0.46960   0.06450   0.01267  Uiso   1.00
H271   H     0.84950   0.72460   0.66890   0.01267  Uiso   1.00
H272   H     0.67730   0.53040   0.44410   0.01267  Uiso   1.00
H273   H     0.52580   0.51400   0.39960   0.01267  Uiso   1.00
H274   H     0.79350   0.81440   0.73930   0.01267  Uiso   1.00
H275   H     0.55300   0.61120   0.46760   0.01267  Uiso   1.00
H276   H     0.66970   0.73420   0.63930   0.01267  Uiso   1.00
H277   H     0.55570   0.18060   0.83110   0.01267  Uiso   1.00
H278   H     0.58630   0.23320   0.05590   0.01267  Uiso   1.00
H279   H     0.61440   0.12620   0.10040   0.01267  Uiso   1.00
H280   H     0.57510   0.05420   0.76070   0.01267  Uiso   1.00
H281   H     0.64360   0.08540   0.03240   0.01267  Uiso   1.00
H282   H     0.59490   0.03040   0.86070   0.01267  Uiso   1.00
H283   H     0.94430   0.77540   0.62490   0.01267  Uiso   1.00
H284   H     0.91370   0.96960   0.64690   0.01267  Uiso   1.00
H285   H     0.88560   0.98600   0.51180   0.01267  Uiso   1.00
H286   H     0.92490   0.68560   0.47910   0.01267  Uiso   1.00
H287   H     0.85640   0.88880   0.44180   0.01267  Uiso   1.00
H288   H     0.90510   0.76580   0.43550   0.01267  Uiso   1.00
C1     C     0.67490   0.23730   0.82500   0.01267  Uiso   1.00
C2     C     0.44410   0.03740   0.64790   0.01267  Uiso   1.00
C3     C     0.66000   0.24200   0.74920   0.01267  Uiso   1.00
C4     C     0.41880   0.02800   0.56500   0.01267  Uiso   1.00
C5     C     0.71350   0.28620   0.79550   0.01267  Uiso   1.00
C6     C     0.46820   0.07950   0.60370   0.01267  Uiso   1.00
C7     C     0.49200   0.11730   0.58810   0.01267  Uiso   1.00
C8     C     0.62800   0.22200   0.69200   0.01267  Uiso   1.00
C9     C     0.91230   0.84990   0.67500   0.01267  Uiso   1.00
C10    C     0.88950   0.79620   0.85210   0.01267  Uiso   1.00
C11    C     0.99280   0.91080   0.75080   0.01267  Uiso   1.00
C12    C     0.96300   0.85380   0.93500   0.01267  Uiso   1.00
C13    C     0.99070   0.91800   0.70450   0.01267  Uiso   1.00
C14    C     0.97580   0.86450   0.89630   0.01267  Uiso   1.00
C15    C     0.02920   0.90390   0.91190   0.01267  Uiso   1.00
C16    C     0.03000   0.93600   0.80800   0.01267  Uiso   1.00
C17    C     0.58770   0.26270   0.93760   0.01267  Uiso   1.00
C18    C     0.61050   0.46260   0.90670   0.01267  Uiso   1.00
C19    C     0.50720   0.25800   0.91800   0.01267  Uiso   1.00
C20    C     0.53700   0.47200   0.89080   0.01267  Uiso   1.00
C21    C     0.50930   0.21380   0.92730   0.01267  Uiso   1.00
C22    C     0.52420   0.42050   0.88870   0.01267  Uiso   1.00
C23    C     0.47080   0.38270   0.87470   0.01267  Uiso   1.00
C24    C     0.47000   0.27800   0.90600   0.01267  Uiso   1.00
C25    C     0.82510   0.65010   0.56240   0.01267  Uiso   1.00
C26    C     0.05590   0.70380   0.59330   0.01267  Uiso   1.00
C27    C     0.84000   0.58920   0.58200   0.01267  Uiso   1.00
C28    C     0.08120   0.64620   0.60920   0.01267  Uiso   1.00
C29    C     0.78650   0.58200   0.57270   0.01267  Uiso   1.00
C30    C     0.03180   0.63550   0.61130   0.01267  Uiso   1.00
C31    C     0.00800   0.59610   0.62530   0.01267  Uiso   1.00
C32    C     0.87200   0.56400   0.59400   0.01267  Uiso   1.00
C33    C     0.43760   0.58770   0.76270   0.01267  Uiso   1.00
C34    C     0.40670   0.61050   0.96260   0.01267  Uiso   1.00
C35    C     0.41800   0.50720   0.75800   0.01267  Uiso   1.00
C36    C     0.39080   0.53700   0.97200   0.01267  Uiso   1.00
C37    C     0.42730   0.50930   0.71380   0.01267  Uiso   1.00
C38    C     0.38870   0.52420   0.92050   0.01267  Uiso   1.00
C39    C     0.37470   0.47080   0.88270   0.01267  Uiso   1.00
C40    C     0.40600   0.47000   0.77800   0.01267  Uiso   1.00
C41    C     0.06240   0.82510   0.15010   0.01267  Uiso   1.00
C42    C     0.09330   0.05590   0.20380   0.01267  Uiso   1.00
C43    C     0.08200   0.84000   0.08920   0.01267  Uiso   1.00
C44    C     0.10920   0.08120   0.14620   0.01267  Uiso   1.00
C45    C     0.07270   0.78650   0.08200   0.01267  Uiso   1.00
C46    C     0.11130   0.03180   0.13550   0.01267  Uiso   1.00
C47    C     0.12530   0.00800   0.09610   0.01267  Uiso   1.00
C48    C     0.09400   0.87200   0.06400   0.01267  Uiso   1.00
C49    C     0.32500   0.67490   0.73730   0.01267  Uiso   1.00
C50    C     0.14790   0.44410   0.53740   0.01267  Uiso   1.00
C51    C     0.24920   0.66000   0.74200   0.01267  Uiso   1.00
C52    C     0.06500   0.41880   0.52800   0.01267  Uiso   1.00
C53    C     0.29550   0.71350   0.78620   0.01267  Uiso   1.00
C54    C     0.10370   0.46820   0.57950   0.01267  Uiso   1.00
C55    C     0.08810   0.49200   0.61730   0.01267  Uiso   1.00
C56    C     0.19200   0.62800   0.72200   0.01267  Uiso   1.00
C57    C     0.17500   0.91230   0.34990   0.01267  Uiso   1.00
C58    C     0.35210   0.88950   0.29620   0.01267  Uiso   1.00
C59    C     0.25080   0.99280   0.41080   0.01267  Uiso   1.00
C60    C     0.43500   0.96300   0.35380   0.01267  Uiso   1.00
C61    C     0.20450   0.99070   0.41800   0.01267  Uiso   1.00
C62    C     0.39630   0.97580   0.36450   0.01267  Uiso   1.00
C63    C     0.41190   0.02920   0.40390   0.01267  Uiso   1.00
C64    C     0.30800   0.03000   0.43600   0.01267  Uiso   1.00
C65    C     0.84990   0.17500   0.41230   0.01267  Uiso   1.00
C66    C     0.79620   0.35210   0.38950   0.01267  Uiso   1.00
C67    C     0.91080   0.25080   0.49280   0.01267  Uiso   1.00
C68    C     0.85380   0.43500   0.46300   0.01267  Uiso   1.00
C69    C     0.91800   0.20450   0.49070   0.01267  Uiso   1.00
C70    C     0.86450   0.39630   0.47580   0.01267  Uiso   1.00
C71    C     0.90390   0.41190   0.52920   0.01267  Uiso   1.00
C72    C     0.93600   0.30800   0.53000   0.01267  Uiso   1.00
C73    C     0.23730   0.32500   0.17490   0.01267  Uiso   1.00
C74    C     0.03740   0.14790   0.94410   0.01267  Uiso   1.00
C75    C     0.24200   0.24920   0.16000   0.01267  Uiso   1.00
C76    C     0.02800   0.06500   0.91880   0.01267  Uiso   1.00
C77    C     0.28620   0.29550   0.21350   0.01267  Uiso   1.00
C78    C     0.07950   0.10370   0.96820   0.01267  Uiso   1.00
C79    C     0.11730   0.08810   0.99200   0.01267  Uiso   1.00
C80    C     0.22200   0.19200   0.12800   0.01267  Uiso   1.00
C81    C     0.65010   0.06240   0.32510   0.01267  Uiso   1.00
C82    C     0.70380   0.09330   0.55590   0.01267  Uiso   1.00
C83    C     0.58920   0.08200   0.34000   0.01267  Uiso   1.00
C84    C     0.64620   0.10920   0.58120   0.01267  Uiso   1.00
C85    C     0.58200   0.07270   0.28650   0.01267  Uiso   1.00
C86    C     0.63550   0.11130   0.53180   0.01267  Uiso   1.00
C87    C     0.59610   0.12530   0.50800   0.01267  Uiso   1.00
C88    C     0.56400   0.09400   0.37200   0.01267  Uiso   1.00
C89    C     0.26270   0.43760   0.08770   0.01267  Uiso   1.00
C90    C     0.46260   0.40670   0.11050   0.01267  Uiso   1.00
C91    C     0.25800   0.41800   0.00720   0.01267  Uiso   1.00
C92    C     0.47200   0.39080   0.03700   0.01267  Uiso   1.00
C93    C     0.21380   0.42730   0.00930   0.01267  Uiso   1.00
C94    C     0.42050   0.38870   0.02420   0.01267  Uiso   1.00
C95    C     0.38270   0.37470   0.97080   0.01267  Uiso   1.00
C96    C     0.27800   0.40600   0.97000   0.01267  Uiso   1.00
C97    C     0.26270   0.82510   0.67500   0.01267  Uiso   1.00
C98    C     0.46260   0.05590   0.85210   0.01267  Uiso   1.00
C99    C     0.25800   0.84000   0.75080   0.01267  Uiso   1.00
C100   C     0.47200   0.08120   0.93500   0.01267  Uiso   1.00
C101   C     0.21380   0.78650   0.70450   0.01267  Uiso   1.00
C102   C     0.42050   0.03180   0.89630   0.01267  Uiso   1.00
C103   C     0.38270   0.00800   0.91190   0.01267  Uiso   1.00
C104   C     0.27800   0.87200   0.80800   0.01267  Uiso   1.00
C105   C     0.65010   0.58770   0.82500   0.01267  Uiso   1.00
C106   C     0.70380   0.61050   0.64790   0.01267  Uiso   1.00
C107   C     0.58920   0.50720   0.74920   0.01267  Uiso   1.00
C108   C     0.64620   0.53700   0.56500   0.01267  Uiso   1.00
C109   C     0.58200   0.50930   0.79550   0.01267  Uiso   1.00
C110   C     0.63550   0.52420   0.60370   0.01267  Uiso   1.00
C111   C     0.59610   0.47080   0.58810   0.01267  Uiso   1.00
C112   C     0.56400   0.47000   0.69200   0.01267  Uiso   1.00
C113   C     0.23730   0.91230   0.56240   0.01267  Uiso   1.00
C114   C     0.03740   0.88950   0.59330   0.01267  Uiso   1.00
C115   C     0.24200   0.99280   0.58200   0.01267  Uiso   1.00
C116   C     0.02800   0.96300   0.60920   0.01267  Uiso   1.00
C117   C     0.28620   0.99070   0.57270   0.01267  Uiso   1.00
C118   C     0.07950   0.97580   0.61130   0.01267  Uiso   1.00
C119   C     0.11730   0.02920   0.62530   0.01267  Uiso   1.00
C120   C     0.22200   0.03000   0.59400   0.01267  Uiso   1.00
C121   C     0.84990   0.67490   0.93760   0.01267  Uiso   1.00
C122   C     0.79620   0.44410   0.90670   0.01267  Uiso   1.00
C123   C     0.91080   0.66000   0.91800   0.01267  Uiso   1.00
C124   C     0.85380   0.41880   0.89080   0.01267  Uiso   1.00
C125   C     0.91800   0.71350   0.92730   0.01267  Uiso   1.00
C126   C     0.86450   0.46820   0.88870   0.01267  Uiso   1.00
C127   C     0.90390   0.49200   0.87470   0.01267  Uiso   1.00
C128   C     0.93600   0.62800   0.90600   0.01267  Uiso   1.00
C129   C     0.91230   0.06240   0.73730   0.01267  Uiso   1.00
C130   C     0.88950   0.09330   0.53740   0.01267  Uiso   1.00
C131   C     0.99280   0.08200   0.74200   0.01267  Uiso   1.00
C132   C     0.96300   0.10920   0.52800   0.01267  Uiso   1.00
C133   C     0.99070   0.07270   0.78620   0.01267  Uiso   1.00
C134   C     0.97580   0.11130   0.57950   0.01267  Uiso   1.00
C135   C     0.02920   0.12530   0.61730   0.01267  Uiso   1.00
C136   C     0.03000   0.09400   0.72200   0.01267  Uiso   1.00
C137   C     0.67490   0.43760   0.34990   0.01267  Uiso   1.00
C138   C     0.44410   0.40670   0.29620   0.01267  Uiso   1.00
C139   C     0.66000   0.41800   0.41080   0.01267  Uiso   1.00
C140   C     0.41880   0.39080   0.35380   0.01267  Uiso   1.00
C141   C     0.71350   0.42730   0.41800   0.01267  Uiso   1.00
C142   C     0.46820   0.38870   0.36450   0.01267  Uiso   1.00
C143   C     0.49200   0.37470   0.40390   0.01267  Uiso   1.00
C144   C     0.62800   0.40600   0.43600   0.01267  Uiso   1.00
C145   C     0.82510   0.17500   0.76270   0.01267  Uiso   1.00
C146   C     0.05590   0.35210   0.96260   0.01267  Uiso   1.00
C147   C     0.84000   0.25080   0.75800   0.01267  Uiso   1.00
C148   C     0.08120   0.43500   0.97200   0.01267  Uiso   1.00
C149   C     0.78650   0.20450   0.71380   0.01267  Uiso   1.00
C150   C     0.03180   0.39630   0.92050   0.01267  Uiso   1.00
C151   C     0.00800   0.41190   0.88270   0.01267  Uiso   1.00
C152   C     0.87200   0.30800   0.77800   0.01267  Uiso   1.00
C153   C     0.58770   0.32500   0.15010   0.01267  Uiso   1.00
C154   C     0.61050   0.14790   0.20380   0.01267  Uiso   1.00
C155   C     0.50720   0.24920   0.08920   0.01267  Uiso   1.00
C156   C     0.53700   0.06500   0.14620   0.01267  Uiso   1.00
C157   C     0.50930   0.29550   0.08200   0.01267  Uiso   1.00
C158   C     0.52420   0.10370   0.13550   0.01267  Uiso   1.00
C159   C     0.47080   0.08810   0.09610   0.01267  Uiso   1.00
C160   C     0.47000   0.19200   0.06400   0.01267  Uiso   1.00
C161   C     0.32500   0.65010   0.08770   0.01267  Uiso   1.00
C162   C     0.14790   0.70380   0.11050   0.01267  Uiso   1.00
C163   C     0.24920   0.58920   0.00720   0.01267  Uiso   1.00
C164   C     0.06500   0.64620   0.03700   0.01267  Uiso   1.00
C165   C     0.29550   0.58200   0.00930   0.01267  Uiso   1.00
C166   C     0.10370   0.63550   0.02420   0.01267  Uiso   1.00
C167   C     0.08810   0.59610   0.97080   0.01267  Uiso   1.00
C168   C     0.19200   0.56400   0.97000   0.01267  Uiso   1.00
C169   C     0.17500   0.26270   0.32510   0.01267  Uiso   1.00
C170   C     0.35210   0.46260   0.55590   0.01267  Uiso   1.00
C171   C     0.25080   0.25800   0.34000   0.01267  Uiso   1.00
C172   C     0.43500   0.47200   0.58120   0.01267  Uiso   1.00
C173   C     0.20450   0.21380   0.28650   0.01267  Uiso   1.00
C174   C     0.39630   0.42050   0.53180   0.01267  Uiso   1.00
C175   C     0.41190   0.38270   0.50800   0.01267  Uiso   1.00
C176   C     0.30800   0.27800   0.37200   0.01267  Uiso   1.00
C177   C     0.43760   0.84990   0.17490   0.01267  Uiso   1.00
C178   C     0.40670   0.79620   0.94410   0.01267  Uiso   1.00
C179   C     0.41800   0.91080   0.16000   0.01267  Uiso   1.00
C180   C     0.39080   0.85380   0.91880   0.01267  Uiso   1.00
C181   C     0.42730   0.91800   0.21350   0.01267  Uiso   1.00
C182   C     0.38870   0.86450   0.96820   0.01267  Uiso   1.00
C183   C     0.37470   0.90390   0.99200   0.01267  Uiso   1.00
C184   C     0.40600   0.93600   0.12800   0.01267  Uiso   1.00
C185   C     0.06240   0.23730   0.41230   0.01267  Uiso   1.00
C186   C     0.09330   0.03740   0.38950   0.01267  Uiso   1.00
C187   C     0.08200   0.24200   0.49280   0.01267  Uiso   1.00
C188   C     0.10920   0.02800   0.46300   0.01267  Uiso   1.00
C189   C     0.07270   0.28620   0.49070   0.01267  Uiso   1.00
C190   C     0.11130   0.07950   0.47580   0.01267  Uiso   1.00
C191   C     0.12530   0.11730   0.52920   0.01267  Uiso   1.00
C192   C     0.09400   0.22200   0.53000   0.01267  Uiso   1.00
C193   C     0.32510   0.76270   0.17500   0.01267  Uiso   1.00
C194   C     0.55590   0.96260   0.35210   0.01267  Uiso   1.00
C195   C     0.34000   0.75800   0.25080   0.01267  Uiso   1.00
C196   C     0.58120   0.97200   0.43500   0.01267  Uiso   1.00
C197   C     0.28650   0.71380   0.20450   0.01267  Uiso   1.00
C198   C     0.53180   0.92050   0.39630   0.01267  Uiso   1.00
C199   C     0.50800   0.88270   0.41190   0.01267  Uiso   1.00
C200   C     0.37200   0.77800   0.30800   0.01267  Uiso   1.00
C201   C     0.08770   0.15010   0.32500   0.01267  Uiso   1.00
C202   C     0.11050   0.20380   0.14790   0.01267  Uiso   1.00
C203   C     0.00720   0.08920   0.24920   0.01267  Uiso   1.00
C204   C     0.03700   0.14620   0.06500   0.01267  Uiso   1.00
C205   C     0.00930   0.08200   0.29550   0.01267  Uiso   1.00
C206   C     0.02420   0.13550   0.10370   0.01267  Uiso   1.00
C207   C     0.97080   0.09610   0.08810   0.01267  Uiso   1.00
C208   C     0.97000   0.06400   0.19200   0.01267  Uiso   1.00
C209   C     0.41230   0.73730   0.06240   0.01267  Uiso   1.00
C210   C     0.38950   0.53740   0.09330   0.01267  Uiso   1.00
C211   C     0.49280   0.74200   0.08200   0.01267  Uiso   1.00
C212   C     0.46300   0.52800   0.10920   0.01267  Uiso   1.00
C213   C     0.49070   0.78620   0.07270   0.01267  Uiso   1.00
C214   C     0.47580   0.57950   0.11130   0.01267  Uiso   1.00
C215   C     0.52920   0.61730   0.12530   0.01267  Uiso   1.00
C216   C     0.53000   0.72200   0.09400   0.01267  Uiso   1.00
C217   C     0.17490   0.34990   0.43760   0.01267  Uiso   1.00
C218   C     0.94410   0.29620   0.40670   0.01267  Uiso   1.00
C219   C     0.16000   0.41080   0.41800   0.01267  Uiso   1.00
C220   C     0.91880   0.35380   0.39080   0.01267  Uiso   1.00
C221   C     0.21350   0.41800   0.42730   0.01267  Uiso   1.00
C222   C     0.96820   0.36450   0.38870   0.01267  Uiso   1.00
C223   C     0.99200   0.40390   0.37470   0.01267  Uiso   1.00
C224   C     0.12800   0.43600   0.40600   0.01267  Uiso   1.00
C225   C     0.56240   0.41230   0.23730   0.01267  Uiso   1.00
C226   C     0.59330   0.38950   0.03740   0.01267  Uiso   1.00
C227   C     0.58200   0.49280   0.24200   0.01267  Uiso   1.00
C228   C     0.60920   0.46300   0.02800   0.01267  Uiso   1.00
C229   C     0.57270   0.49070   0.28620   0.01267  Uiso   1.00
C230   C     0.61130   0.47580   0.07950   0.01267  Uiso   1.00
C231   C     0.62530   0.52920   0.11730   0.01267  Uiso   1.00
C232   C     0.59400   0.53000   0.22200   0.01267  Uiso   1.00
C233   C     0.93760   0.17490   0.84990   0.01267  Uiso   1.00
C234   C     0.90670   0.94410   0.79620   0.01267  Uiso   1.00
C235   C     0.91800   0.16000   0.91080   0.01267  Uiso   1.00
C236   C     0.89080   0.91880   0.85380   0.01267  Uiso   1.00
C237   C     0.92730   0.21350   0.91800   0.01267  Uiso   1.00
C238   C     0.88870   0.96820   0.86450   0.01267  Uiso   1.00
C239   C     0.87470   0.99200   0.90390   0.01267  Uiso   1.00
C240   C     0.90600   0.12800   0.93600   0.01267  Uiso   1.00
C241   C     0.67500   0.32510   0.26270   0.01267  Uiso   1.00
C242   C     0.85210   0.55590   0.46260   0.01267  Uiso   1.00
C243   C     0.75080   0.34000   0.25800   0.01267  Uiso   1.00
C244   C     0.93500   0.58120   0.47200   0.01267  Uiso   1.00
C245   C     0.70450   0.28650   0.21380   0.01267  Uiso   1.00
C246   C     0.89630   0.53180   0.42050   0.01267  Uiso   1.00
C247   C     0.91190   0.50800   0.38270   0.01267  Uiso   1.00
C248   C     0.80800   0.37200   0.27800   0.01267  Uiso   1.00
C249   C     0.82500   0.08770   0.65010   0.01267  Uiso   1.00
C250   C     0.64790   0.11050   0.70380   0.01267  Uiso   1.00
C251   C     0.74920   0.00720   0.58920   0.01267  Uiso   1.00
C252   C     0.56500   0.03700   0.64620   0.01267  Uiso   1.00
C253   C     0.79550   0.00930   0.58200   0.01267  Uiso   1.00
C254   C     0.60370   0.02420   0.63550   0.01267  Uiso   1.00
C255   C     0.58810   0.97080   0.59610   0.01267  Uiso   1.00
C256   C     0.69200   0.97000   0.56400   0.01267  Uiso   1.00
C257   C     0.15010   0.82500   0.58770   0.01267  Uiso   1.00
C258   C     0.20380   0.64790   0.61050   0.01267  Uiso   1.00
C259   C     0.08920   0.74920   0.50720   0.01267  Uiso   1.00
C260   C     0.14620   0.56500   0.53700   0.01267  Uiso   1.00
C261   C     0.08200   0.79550   0.50930   0.01267  Uiso   1.00
C262   C     0.13550   0.60370   0.52420   0.01267  Uiso   1.00
C263   C     0.09610   0.58810   0.47080   0.01267  Uiso   1.00
C264   C     0.06400   0.69200   0.47000   0.01267  Uiso   1.00
C265   C     0.76270   0.67500   0.82510   0.01267  Uiso   1.00
C266   C     0.96260   0.85210   0.05590   0.01267  Uiso   1.00
C267   C     0.75800   0.75080   0.84000   0.01267  Uiso   1.00
C268   C     0.97200   0.93500   0.08120   0.01267  Uiso   1.00
C269   C     0.71380   0.70450   0.78650   0.01267  Uiso   1.00
C270   C     0.92050   0.89630   0.03180   0.01267  Uiso   1.00
C271   C     0.88270   0.91190   0.00800   0.01267  Uiso   1.00
C272   C     0.77800   0.80800   0.87200   0.01267  Uiso   1.00
C273   C     0.34990   0.93760   0.67490   0.01267  Uiso   1.00
C274   C     0.29620   0.90670   0.44410   0.01267  Uiso   1.00
C275   C     0.41080   0.91800   0.66000   0.01267  Uiso   1.00
C276   C     0.35380   0.89080   0.41880   0.01267  Uiso   1.00
C277   C     0.41800   0.92730   0.71350   0.01267  Uiso   1.00
C278   C     0.36450   0.88870   0.46820   0.01267  Uiso   1.00
C279   C     0.40390   0.87470   0.49200   0.01267  Uiso   1.00
C280   C     0.43600   0.90600   0.62800   0.01267  Uiso   1.00
C281   C     0.73730   0.56240   0.91230   0.01267  Uiso   1.00
C282   C     0.53740   0.59330   0.88950   0.01267  Uiso   1.00
C283   C     0.74200   0.58200   0.99280   0.01267  Uiso   1.00
C284   C     0.52800   0.60920   0.96300   0.01267  Uiso   1.00
C285   C     0.78620   0.57270   0.99070   0.01267  Uiso   1.00
C286   C     0.57950   0.61130   0.97580   0.01267  Uiso   1.00
C287   C     0.61730   0.62530   0.02920   0.01267  Uiso   1.00
C288   C     0.72200   0.59400   0.03000   0.01267  Uiso   1.00
C289   C     0.73730   0.17490   0.32500   0.01267  Uiso   1.00
C290   C     0.53740   0.94410   0.14790   0.01267  Uiso   1.00
C291   C     0.74200   0.16000   0.24920   0.01267  Uiso   1.00
C292   C     0.52800   0.91880   0.06500   0.01267  Uiso   1.00
C293   C     0.78620   0.21350   0.29550   0.01267  Uiso   1.00
C294   C     0.57950   0.96820   0.10370   0.01267  Uiso   1.00
C295   C     0.61730   0.99200   0.08810   0.01267  Uiso   1.00
C296   C     0.72200   0.12800   0.19200   0.01267  Uiso   1.00
C297   C     0.34990   0.41230   0.17500   0.01267  Uiso   1.00
C298   C     0.29620   0.38950   0.35210   0.01267  Uiso   1.00
C299   C     0.41080   0.49280   0.25080   0.01267  Uiso   1.00
C300   C     0.35380   0.46300   0.43500   0.01267  Uiso   1.00
C301   C     0.41800   0.49070   0.20450   0.01267  Uiso   1.00
C302   C     0.36450   0.47580   0.39630   0.01267  Uiso   1.00
C303   C     0.40390   0.52920   0.41190   0.01267  Uiso   1.00
C304   C     0.43600   0.53000   0.30800   0.01267  Uiso   1.00
C305   C     0.76270   0.08770   0.43760   0.01267  Uiso   1.00
C306   C     0.96260   0.11050   0.40670   0.01267  Uiso   1.00
C307   C     0.75800   0.00720   0.41800   0.01267  Uiso   1.00
C308   C     0.97200   0.03700   0.39080   0.01267  Uiso   1.00
C309   C     0.71380   0.00930   0.42730   0.01267  Uiso   1.00
C310   C     0.92050   0.02420   0.38870   0.01267  Uiso   1.00
C311   C     0.88270   0.97080   0.37470   0.01267  Uiso   1.00
C312   C     0.77800   0.97000   0.40600   0.01267  Uiso   1.00
C313   C     0.15010   0.32510   0.06240   0.01267  Uiso   1.00
C314   C     0.20380   0.55590   0.09330   0.01267  Uiso   1.00
C315   C     0.08920   0.34000   0.08200   0.01267  Uiso   1.00
C316   C     0.14620   0.58120   0.10920   0.01267  Uiso   1.00
C317   C     0.08200   0.28650   0.07270   0.01267  Uiso   1.00
C318   C     0.13550   0.53180   0.11130   0.01267  Uiso   1.00
C319   C     0.09610   0.50800   0.12530   0.01267  Uiso   1.00
C320   C     0.06400   0.37200   0.09400   0.01267  Uiso   1.00
C321   C     0.08770   0.93760   0.26270   0.01267  Uiso   1.00
C322   C     0.11050   0.90670   0.46260   0.01267  Uiso   1.00
C323   C     0.00720   0.91800   0.25800   0.01267  Uiso   1.00
C324   C     0.03700   0.89080   0.47200   0.01267  Uiso   1.00
C325   C     0.00930   0.92730   0.21380   0.01267  Uiso   1.00
C326   C     0.02420   0.88870   0.42050   0.01267  Uiso   1.00
C327   C     0.97080   0.87470   0.38270   0.01267  Uiso   1.00
C328   C     0.97000   0.90600   0.27800   0.01267  Uiso   1.00
C329   C     0.32510   0.56240   0.65010   0.01267  Uiso   1.00
C330   C     0.55590   0.59330   0.70380   0.01267  Uiso   1.00
C331   C     0.34000   0.58200   0.58920   0.01267  Uiso   1.00
C332   C     0.58120   0.60920   0.64620   0.01267  Uiso   1.00
C333   C     0.28650   0.57270   0.58200   0.01267  Uiso   1.00
C334   C     0.53180   0.61130   0.63550   0.01267  Uiso   1.00
C335   C     0.50800   0.62530   0.59610   0.01267  Uiso   1.00
C336   C     0.37200   0.59400   0.56400   0.01267  Uiso   1.00
C337   C     0.17490   0.82500   0.23730   0.01267  Uiso   1.00
C338   C     0.94410   0.64790   0.03740   0.01267  Uiso   1.00
C339   C     0.16000   0.74920   0.24200   0.01267  Uiso   1.00
C340   C     0.91880   0.56500   0.02800   0.01267  Uiso   1.00
C341   C     0.21350   0.79550   0.28620   0.01267  Uiso   1.00
C342   C     0.96820   0.60370   0.07950   0.01267  Uiso   1.00
C343   C     0.99200   0.58810   0.11730   0.01267  Uiso   1.00
C344   C     0.12800   0.69200   0.22200   0.01267  Uiso   1.00
C345   C     0.41230   0.67500   0.84990   0.01267  Uiso   1.00
C346   C     0.38950   0.85210   0.79620   0.01267  Uiso   1.00
C347   C     0.49280   0.75080   0.91080   0.01267  Uiso   1.00
C348   C     0.46300   0.93500   0.85380   0.01267  Uiso   1.00
C349   C     0.49070   0.70450   0.91800   0.01267  Uiso   1.00
C350   C     0.47580   0.89630   0.86450   0.01267  Uiso   1.00
C351   C     0.52920   0.91190   0.90390   0.01267  Uiso   1.00
C352   C     0.53000   0.80800   0.93600   0.01267  Uiso   1.00
C353   C     0.67500   0.34990   0.91230   0.01267  Uiso   1.00
C354   C     0.85210   0.29620   0.88950   0.01267  Uiso   1.00
C355   C     0.75080   0.41080   0.99280   0.01267  Uiso   1.00
C356   C     0.93500   0.35380   0.96300   0.01267  Uiso   1.00
C357   C     0.70450   0.41800   0.99070   0.01267  Uiso   1.00
C358   C     0.89630   0.36450   0.97580   0.01267  Uiso   1.00
C359   C     0.91190   0.40390   0.02920   0.01267  Uiso   1.00
C360   C     0.80800   0.43600   0.03000   0.01267  Uiso   1.00
C361   C     0.82500   0.73730   0.67490   0.01267  Uiso   1.00
C362   C     0.64790   0.53740   0.44410   0.01267  Uiso   1.00
C363   C     0.74920   0.74200   0.66000   0.01267  Uiso   1.00
C364   C     0.56500   0.52800   0.41880   0.01267  Uiso   1.00
C365   C     0.79550   0.78620   0.71350   0.01267  Uiso   1.00
C366   C     0.60370   0.57950   0.46820   0.01267  Uiso   1.00
C367   C     0.58810   0.61730   0.49200   0.01267  Uiso   1.00
C368   C     0.69200   0.72200   0.62800   0.01267  Uiso   1.00
C369   C     0.56240   0.15010   0.82510   0.01267  Uiso   1.00
C370   C     0.59330   0.20380   0.05590   0.01267  Uiso   1.00
C371   C     0.58200   0.08920   0.84000   0.01267  Uiso   1.00
C372   C     0.60920   0.14620   0.08120   0.01267  Uiso   1.00
C373   C     0.57270   0.08200   0.78650   0.01267  Uiso   1.00
C374   C     0.61130   0.13550   0.03180   0.01267  Uiso   1.00
C375   C     0.62530   0.09610   0.00800   0.01267  Uiso   1.00
C376   C     0.59400   0.06400   0.87200   0.01267  Uiso   1.00
C377   C     0.93760   0.76270   0.58770   0.01267  Uiso   1.00
C378   C     0.90670   0.96260   0.61050   0.01267  Uiso   1.00
C379   C     0.91800   0.75800   0.50720   0.01267  Uiso   1.00
C380   C     0.89080   0.97200   0.53700   0.01267  Uiso   1.00
C381   C     0.92730   0.71380   0.50930   0.01267  Uiso   1.00
C382   C     0.88870   0.92050   0.52420   0.01267  Uiso   1.00
C383   C     0.87470   0.88270   0.47080   0.01267  Uiso   1.00
C384   C     0.90600   0.77800   0.47000   0.01267  Uiso   1.00
N1     N     0.63610   0.21080   0.77110   0.01267  Uiso   1.00
N2     N     0.72340   0.28330   0.84310   0.01267  Uiso   1.00
N3     N     0.40188   0.00030   0.59178   0.01267  Uiso   1.00
N4     N     0.48370   0.08290   0.65620   0.01267  Uiso   1.00
N5     N     0.57500   0.18070   0.67350   0.01267  Uiso   1.00
N6     N     0.54510   0.16160   0.61550   0.01267  Uiso   1.00
N7     N     0.93970   0.86500   0.72890   0.01267  Uiso   1.00
N8     N     0.94020   0.88030   0.65690   0.01267  Uiso   1.00
N9     N     0.90852   0.81010   0.90822   0.01267  Uiso   1.00
N10    N     0.92670   0.82750   0.84380   0.01267  Uiso   1.00
N11    N     0.00720   0.90150   0.82650   0.01267  Uiso   1.00
N12    N     0.04610   0.92960   0.88450   0.01267  Uiso   1.00
N13    N     0.56030   0.28920   0.92530   0.01267  Uiso   1.00
N14    N     0.55980   0.21670   0.94010   0.01267  Uiso   1.00
N15    N     0.59148   0.49970   0.90158   0.01267  Uiso   1.00
N16    N     0.57330   0.41710   0.90080   0.01267  Uiso   1.00
N17    N     0.49280   0.31930   0.89430   0.01267  Uiso   1.00
N18    N     0.45390   0.33840   0.88350   0.01267  Uiso   1.00
N19    N     0.86390   0.63500   0.57470   0.01267  Uiso   1.00
N20    N     0.77660   0.61970   0.55990   0.01267  Uiso   1.00
N21    N     0.09812   0.68990   0.59842   0.01267  Uiso   1.00
N22    N     0.01630   0.67250   0.59920   0.01267  Uiso   1.00
N23    N     0.92500   0.59850   0.60570   0.01267  Uiso   1.00
N24    N     0.95490   0.57040   0.61650   0.01267  Uiso   1.00
N25    N     0.42530   0.56030   0.78920   0.01267  Uiso   1.00
N26    N     0.44010   0.55980   0.71670   0.01267  Uiso   1.00
N27    N     0.40158   0.59148   0.99970   0.01267  Uiso   1.00
N28    N     0.40080   0.57330   0.91710   0.01267  Uiso   1.00
N29    N     0.39430   0.49280   0.81930   0.01267  Uiso   1.00
N30    N     0.38350   0.45390   0.83840   0.01267  Uiso   1.00
N31    N     0.07470   0.86390   0.13500   0.01267  Uiso   1.00
N32    N     0.05990   0.77660   0.11970   0.01267  Uiso   1.00
N33    N     0.09842   0.09812   0.18990   0.01267  Uiso   1.00
N34    N     0.09920   0.01630   0.17250   0.01267  Uiso   1.00
N35    N     0.10570   0.92500   0.09850   0.01267  Uiso   1.00
N36    N     0.11650   0.95490   0.07040   0.01267  Uiso   1.00
N37    N     0.27110   0.63610   0.71080   0.01267  Uiso   1.00
N38    N     0.34310   0.72340   0.78330   0.01267  Uiso   1.00
N39    N     0.09178   0.40188   0.50030   0.01267  Uiso   1.00
N40    N     0.15620   0.48370   0.58290   0.01267  Uiso   1.00
N41    N     0.17350   0.57500   0.68070   0.01267  Uiso   1.00
N42    N     0.11550   0.54510   0.66160   0.01267  Uiso   1.00
N43    N     0.22890   0.93970   0.36500   0.01267  Uiso   1.00
N44    N     0.15690   0.94020   0.38030   0.01267  Uiso   1.00
N45    N     0.40822   0.90852   0.31010   0.01267  Uiso   1.00
N46    N     0.34380   0.92670   0.32750   0.01267  Uiso   1.00
N47    N     0.32650   0.00720   0.40150   0.01267  Uiso   1.00
N48    N     0.38450   0.04610   0.42960   0.01267  Uiso   1.00
N49    N     0.86500   0.22890   0.43970   0.01267  Uiso   1.00
N50    N     0.88030   0.15690   0.44020   0.01267  Uiso   1.00
N51    N     0.81010   0.40822   0.40852   0.01267  Uiso   1.00
N52    N     0.82750   0.34380   0.42670   0.01267  Uiso   1.00
N53    N     0.90150   0.32650   0.50720   0.01267  Uiso   1.00
N54    N     0.92960   0.38450   0.54610   0.01267  Uiso   1.00
N55    N     0.21080   0.27110   0.13610   0.01267  Uiso   1.00
N56    N     0.28330   0.34310   0.22340   0.01267  Uiso   1.00
N57    N     0.00030   0.09178   0.90188   0.01267  Uiso   1.00
N58    N     0.08290   0.15620   0.98370   0.01267  Uiso   1.00
N59    N     0.18070   0.17350   0.07500   0.01267  Uiso   1.00
N60    N     0.16160   0.11550   0.04510   0.01267  Uiso   1.00
N61    N     0.63500   0.07470   0.36390   0.01267  Uiso   1.00
N62    N     0.61970   0.05990   0.27660   0.01267  Uiso   1.00
N63    N     0.68990   0.09842   0.59812   0.01267  Uiso   1.00
N64    N     0.67250   0.09920   0.51630   0.01267  Uiso   1.00
N65    N     0.59850   0.10570   0.42500   0.01267  Uiso   1.00
N66    N     0.57040   0.11650   0.45490   0.01267  Uiso   1.00
N67    N     0.28920   0.42530   0.06030   0.01267  Uiso   1.00
N68    N     0.21670   0.44010   0.05980   0.01267  Uiso   1.00
N69    N     0.49970   0.40158   0.09148   0.01267  Uiso   1.00
N70    N     0.41710   0.40080   0.07330   0.01267  Uiso   1.00
N71    N     0.31930   0.39430   0.99280   0.01267  Uiso   1.00
N72    N     0.33840   0.38350   0.95390   0.01267  Uiso   1.00
N73    N     0.28920   0.86390   0.72890   0.01267  Uiso   1.00
N74    N     0.21670   0.77660   0.65690   0.01267  Uiso   1.00
N75    N     0.49970   0.09812   0.90822   0.01267  Uiso   1.00
N76    N     0.41710   0.01630   0.84380   0.01267  Uiso   1.00
N77    N     0.31930   0.92500   0.82650   0.01267  Uiso   1.00
N78    N     0.33840   0.95490   0.88450   0.01267  Uiso   1.00
N79    N     0.63500   0.56030   0.77110   0.01267  Uiso   1.00
N80    N     0.61970   0.55980   0.84310   0.01267  Uiso   1.00
N81    N     0.68990   0.59148   0.59178   0.01267  Uiso   1.00
N82    N     0.67250   0.57330   0.65620   0.01267  Uiso   1.00
N83    N     0.59850   0.49280   0.67350   0.01267  Uiso   1.00
N84    N     0.57040   0.45390   0.61550   0.01267  Uiso   1.00
N85    N     0.21080   0.93970   0.57470   0.01267  Uiso   1.00
N86    N     0.28330   0.94020   0.55990   0.01267  Uiso   1.00
N87    N     0.00030   0.90852   0.59842   0.01267  Uiso   1.00
N88    N     0.08290   0.92670   0.59920   0.01267  Uiso   1.00
N89    N     0.18070   0.00720   0.60570   0.01267  Uiso   1.00
N90    N     0.16160   0.04610   0.61650   0.01267  Uiso   1.00
N91    N     0.86500   0.63610   0.92530   0.01267  Uiso   1.00
N92    N     0.88030   0.72340   0.94010   0.01267  Uiso   1.00
N93    N     0.81010   0.40188   0.90158   0.01267  Uiso   1.00
N94    N     0.82750   0.48370   0.90080   0.01267  Uiso   1.00
N95    N     0.90150   0.57500   0.89430   0.01267  Uiso   1.00
N96    N     0.92960   0.54510   0.88350   0.01267  Uiso   1.00
N97    N     0.93970   0.07470   0.71080   0.01267  Uiso   1.00
N98    N     0.94020   0.05990   0.78330   0.01267  Uiso   1.00
N99    N     0.90852   0.09842   0.50030   0.01267  Uiso   1.00
N100   N     0.92670   0.09920   0.58290   0.01267  Uiso   1.00
N101   N     0.00720   0.10570   0.68070   0.01267  Uiso   1.00
N102   N     0.04610   0.11650   0.66160   0.01267  Uiso   1.00
N103   N     0.63610   0.42530   0.36500   0.01267  Uiso   1.00
N104   N     0.72340   0.44010   0.38030   0.01267  Uiso   1.00
N105   N     0.40188   0.40158   0.31010   0.01267  Uiso   1.00
N106   N     0.48370   0.40080   0.32750   0.01267  Uiso   1.00
N107   N     0.57500   0.39430   0.40150   0.01267  Uiso   1.00
N108   N     0.54510   0.38350   0.42960   0.01267  Uiso   1.00
N109   N     0.86390   0.22890   0.78920   0.01267  Uiso   1.00
N110   N     0.77660   0.15690   0.71670   0.01267  Uiso   1.00
N111   N     0.09812   0.40822   0.99970   0.01267  Uiso   1.00
N112   N     0.01630   0.34380   0.91710   0.01267  Uiso   1.00
N113   N     0.92500   0.32650   0.81930   0.01267  Uiso   1.00
N114   N     0.95490   0.38450   0.83840   0.01267  Uiso   1.00
N115   N     0.56030   0.27110   0.13500   0.01267  Uiso   1.00
N116   N     0.55980   0.34310   0.11970   0.01267  Uiso   1.00
N117   N     0.59148   0.09178   0.18990   0.01267  Uiso   1.00
N118   N     0.57330   0.15620   0.17250   0.01267  Uiso   1.00
N119   N     0.49280   0.17350   0.09850   0.01267  Uiso   1.00
N120   N     0.45390   0.11550   0.07040   0.01267  Uiso   1.00
N121   N     0.27110   0.63500   0.06030   0.01267  Uiso   1.00
N122   N     0.34310   0.61970   0.05980   0.01267  Uiso   1.00
N123   N     0.09178   0.68990   0.09148   0.01267  Uiso   1.00
N124   N     0.15620   0.67250   0.07330   0.01267  Uiso   1.00
N125   N     0.17350   0.59850   0.99280   0.01267  Uiso   1.00
N126   N     0.11550   0.57040   0.95390   0.01267  Uiso   1.00
N127   N     0.22890   0.28920   0.36390   0.01267  Uiso   1.00
N128   N     0.15690   0.21670   0.27660   0.01267  Uiso   1.00
N129   N     0.40822   0.49970   0.59812   0.01267  Uiso   1.00
N130   N     0.34380   0.41710   0.51630   0.01267  Uiso   1.00
N131   N     0.32650   0.31930   0.42500   0.01267  Uiso   1.00
N132   N     0.38450   0.33840   0.45490   0.01267  Uiso   1.00
N133   N     0.42530   0.86500   0.13610   0.01267  Uiso   1.00
N134   N     0.44010   0.88030   0.22340   0.01267  Uiso   1.00
N135   N     0.40158   0.81010   0.90188   0.01267  Uiso   1.00
N136   N     0.40080   0.82750   0.98370   0.01267  Uiso   1.00
N137   N     0.39430   0.90150   0.07500   0.01267  Uiso   1.00
N138   N     0.38350   0.92960   0.04510   0.01267  Uiso   1.00
N139   N     0.07470   0.21080   0.43970   0.01267  Uiso   1.00
N140   N     0.05990   0.28330   0.44020   0.01267  Uiso   1.00
N141   N     0.09842   0.00030   0.40852   0.01267  Uiso   1.00
N142   N     0.09920   0.08290   0.42670   0.01267  Uiso   1.00
N143   N     0.10570   0.18070   0.50720   0.01267  Uiso   1.00
N144   N     0.11650   0.16160   0.54610   0.01267  Uiso   1.00
N145   N     0.36390   0.78920   0.22890   0.01267  Uiso   1.00
N146   N     0.27660   0.71670   0.15690   0.01267  Uiso   1.00
N147   N     0.59812   0.99970   0.40822   0.01267  Uiso   1.00
N148   N     0.51630   0.91710   0.34380   0.01267  Uiso   1.00
N149   N     0.42500   0.81930   0.32650   0.01267  Uiso   1.00
N150   N     0.45490   0.83840   0.38450   0.01267  Uiso   1.00
N151   N     0.06030   0.13500   0.27110   0.01267  Uiso   1.00
N152   N     0.05980   0.11970   0.34310   0.01267  Uiso   1.00
N153   N     0.09148   0.18990   0.09178   0.01267  Uiso   1.00
N154   N     0.07330   0.17250   0.15620   0.01267  Uiso   1.00
N155   N     0.99280   0.09850   0.17350   0.01267  Uiso   1.00
N156   N     0.95390   0.07040   0.11550   0.01267  Uiso   1.00
N157   N     0.43970   0.71080   0.07470   0.01267  Uiso   1.00
N158   N     0.44020   0.78330   0.05990   0.01267  Uiso   1.00
N159   N     0.40852   0.50030   0.09842   0.01267  Uiso   1.00
N160   N     0.42670   0.58290   0.09920   0.01267  Uiso   1.00
N161   N     0.50720   0.68070   0.10570   0.01267  Uiso   1.00
N162   N     0.54610   0.66160   0.11650   0.01267  Uiso   1.00
N163   N     0.13610   0.36500   0.42530   0.01267  Uiso   1.00
N164   N     0.22340   0.38030   0.44010   0.01267  Uiso   1.00
N165   N     0.90188   0.31010   0.40158   0.01267  Uiso   1.00
N166   N     0.98370   0.32750   0.40080   0.01267  Uiso   1.00
N167   N     0.07500   0.40150   0.39430   0.01267  Uiso   1.00
N168   N     0.04510   0.42960   0.38350   0.01267  Uiso   1.00
N169   N     0.57470   0.43970   0.21080   0.01267  Uiso   1.00
N170   N     0.55990   0.44020   0.28330   0.01267  Uiso   1.00
N171   N     0.59842   0.40852   0.00030   0.01267  Uiso   1.00
N172   N     0.59920   0.42670   0.08290   0.01267  Uiso   1.00
N173   N     0.60570   0.50720   0.18070   0.01267  Uiso   1.00
N174   N     0.61650   0.54610   0.16160   0.01267  Uiso   1.00
N175   N     0.92530   0.13610   0.86500   0.01267  Uiso   1.00
N176   N     0.94010   0.22340   0.88030   0.01267  Uiso   1.00
N177   N     0.90158   0.90188   0.81010   0.01267  Uiso   1.00
N178   N     0.90080   0.98370   0.82750   0.01267  Uiso   1.00
N179   N     0.89430   0.07500   0.90150   0.01267  Uiso   1.00
N180   N     0.88350   0.04510   0.92960   0.01267  Uiso   1.00
N181   N     0.72890   0.36390   0.28920   0.01267  Uiso   1.00
N182   N     0.65690   0.27660   0.21670   0.01267  Uiso   1.00
N183   N     0.90822   0.59812   0.49970   0.01267  Uiso   1.00
N184   N     0.84380   0.51630   0.41710   0.01267  Uiso   1.00
N185   N     0.82650   0.42500   0.31930   0.01267  Uiso   1.00
N186   N     0.88450   0.45490   0.33840   0.01267  Uiso   1.00
N187   N     0.77110   0.06030   0.63500   0.01267  Uiso   1.00
N188   N     0.84310   0.05980   0.61970   0.01267  Uiso   1.00
N189   N     0.59178   0.09148   0.68990   0.01267  Uiso   1.00
N190   N     0.65620   0.07330   0.67250   0.01267  Uiso   1.00
N191   N     0.67350   0.99280   0.59850   0.01267  Uiso   1.00
N192   N     0.61550   0.95390   0.57040   0.01267  Uiso   1.00
N193   N     0.13500   0.77110   0.56030   0.01267  Uiso   1.00
N194   N     0.11970   0.84310   0.55980   0.01267  Uiso   1.00
N195   N     0.18990   0.59178   0.59148   0.01267  Uiso   1.00
N196   N     0.17250   0.65620   0.57330   0.01267  Uiso   1.00
N197   N     0.09850   0.67350   0.49280   0.01267  Uiso   1.00
N198   N     0.07040   0.61550   0.45390   0.01267  Uiso   1.00
N199   N     0.78920   0.72890   0.86390   0.01267  Uiso   1.00
N200   N     0.71670   0.65690   0.77660   0.01267  Uiso   1.00
N201   N     0.99970   0.90822   0.09812   0.01267  Uiso   1.00
N202   N     0.91710   0.84380   0.01630   0.01267  Uiso   1.00
N203   N     0.81930   0.82650   0.92500   0.01267  Uiso   1.00
N204   N     0.83840   0.88450   0.95490   0.01267  Uiso   1.00
N205   N     0.36500   0.92530   0.63610   0.01267  Uiso   1.00
N206   N     0.38030   0.94010   0.72340   0.01267  Uiso   1.00
N207   N     0.31010   0.90158   0.40188   0.01267  Uiso   1.00
N208   N     0.32750   0.90080   0.48370   0.01267  Uiso   1.00
N209   N     0.40150   0.89430   0.57500   0.01267  Uiso   1.00
N210   N     0.42960   0.88350   0.54510   0.01267  Uiso   1.00
N211   N     0.71080   0.57470   0.93970   0.01267  Uiso   1.00
N212   N     0.78330   0.55990   0.94020   0.01267  Uiso   1.00
N213   N     0.50030   0.59842   0.90852   0.01267  Uiso   1.00
N214   N     0.58290   0.59920   0.92670   0.01267  Uiso   1.00
N215   N     0.68070   0.60570   0.00720   0.01267  Uiso   1.00
N216   N     0.66160   0.61650   0.04610   0.01267  Uiso   1.00
N217   N     0.71080   0.13610   0.27110   0.01267  Uiso   1.00
N218   N     0.78330   0.22340   0.34310   0.01267  Uiso   1.00
N219   N     0.50030   0.90188   0.09178   0.01267  Uiso   1.00
N220   N     0.58290   0.98370   0.15620   0.01267  Uiso   1.00
N221   N     0.68070   0.07500   0.17350   0.01267  Uiso   1.00
N222   N     0.66160   0.04510   0.11550   0.01267  Uiso   1.00
N223   N     0.36500   0.43970   0.22890   0.01267  Uiso   1.00
N224   N     0.38030   0.44020   0.15690   0.01267  Uiso   1.00
N225   N     0.31010   0.40852   0.40822   0.01267  Uiso   1.00
N226   N     0.32750   0.42670   0.34380   0.01267  Uiso   1.00
N227   N     0.40150   0.50720   0.32650   0.01267  Uiso   1.00
N228   N     0.42960   0.54610   0.38450   0.01267  Uiso   1.00
N229   N     0.78920   0.06030   0.42530   0.01267  Uiso   1.00
N230   N     0.71670   0.05980   0.44010   0.01267  Uiso   1.00
N231   N     0.99970   0.09148   0.40158   0.01267  Uiso   1.00
N232   N     0.91710   0.07330   0.40080   0.01267  Uiso   1.00
N233   N     0.81930   0.99280   0.39430   0.01267  Uiso   1.00
N234   N     0.83840   0.95390   0.38350   0.01267  Uiso   1.00
N235   N     0.13500   0.36390   0.07470   0.01267  Uiso   1.00
N236   N     0.11970   0.27660   0.05990   0.01267  Uiso   1.00
N237   N     0.18990   0.59812   0.09842   0.01267  Uiso   1.00
N238   N     0.17250   0.51630   0.09920   0.01267  Uiso   1.00
N239   N     0.09850   0.42500   0.10570   0.01267  Uiso   1.00
N240   N     0.07040   0.45490   0.11650   0.01267  Uiso   1.00
N241   N     0.06030   0.92530   0.28920   0.01267  Uiso   1.00
N242   N     0.05980   0.94010   0.21670   0.01267  Uiso   1.00
N243   N     0.09148   0.90158   0.49970   0.01267  Uiso   1.00
N244   N     0.07330   0.90080   0.41710   0.01267  Uiso   1.00
N245   N     0.99280   0.89430   0.31930   0.01267  Uiso   1.00
N246   N     0.95390   0.88350   0.33840   0.01267  Uiso   1.00
N247   N     0.36390   0.57470   0.63500   0.01267  Uiso   1.00
N248   N     0.27660   0.55990   0.61970   0.01267  Uiso   1.00
N249   N     0.59812   0.59842   0.68990   0.01267  Uiso   1.00
N250   N     0.51630   0.59920   0.67250   0.01267  Uiso   1.00
N251   N     0.42500   0.60570   0.59850   0.01267  Uiso   1.00
N252   N     0.45490   0.61650   0.57040   0.01267  Uiso   1.00
N253   N     0.13610   0.77110   0.21080   0.01267  Uiso   1.00
N254   N     0.22340   0.84310   0.28330   0.01267  Uiso   1.00
N255   N     0.90188   0.59178   0.00030   0.01267  Uiso   1.00
N256   N     0.98370   0.65620   0.08290   0.01267  Uiso   1.00
N257   N     0.07500   0.67350   0.18070   0.01267  Uiso   1.00
N258   N     0.04510   0.61550   0.16160   0.01267  Uiso   1.00
N259   N     0.43970   0.72890   0.86500   0.01267  Uiso   1.00
N260   N     0.44020   0.65690   0.88030   0.01267  Uiso   1.00
N261   N     0.40852   0.90822   0.81010   0.01267  Uiso   1.00
N262   N     0.42670   0.84380   0.82750   0.01267  Uiso   1.00
N263   N     0.50720   0.82650   0.90150   0.01267  Uiso   1.00
N264   N     0.54610   0.88450   0.92960   0.01267  Uiso   1.00
N265   N     0.72890   0.36500   0.93970   0.01267  Uiso   1.00
N266   N     0.65690   0.38030   0.94020   0.01267  Uiso   1.00
N267   N     0.90822   0.31010   0.90852   0.01267  Uiso   1.00
N268   N     0.84380   0.32750   0.92670   0.01267  Uiso   1.00
N269   N     0.82650   0.40150   0.00720   0.01267  Uiso   1.00
N270   N     0.88450   0.42960   0.04610   0.01267  Uiso   1.00
N271   N     0.77110   0.71080   0.63610   0.01267  Uiso   1.00
N272   N     0.84310   0.78330   0.72340   0.01267  Uiso   1.00
N273   N     0.59178   0.50030   0.40188   0.01267  Uiso   1.00
N274   N     0.65620   0.58290   0.48370   0.01267  Uiso   1.00
N275   N     0.67350   0.68070   0.57500   0.01267  Uiso   1.00
N276   N     0.61550   0.66160   0.54510   0.01267  Uiso   1.00
N277   N     0.57470   0.13500   0.86390   0.01267  Uiso   1.00
N278   N     0.55990   0.11970   0.77660   0.01267  Uiso   1.00
N279   N     0.59842   0.18990   0.09812   0.01267  Uiso   1.00
N280   N     0.59920   0.17250   0.01630   0.01267  Uiso   1.00
N281   N     0.60570   0.09850   0.92500   0.01267  Uiso   1.00
N282   N     0.61650   0.07040   0.95490   0.01267  Uiso   1.00
N283   N     0.92530   0.78920   0.56030   0.01267  Uiso   1.00
N284   N     0.94010   0.71670   0.55980   0.01267  Uiso   1.00
N285   N     0.90158   0.99970   0.59148   0.01267  Uiso   1.00
N286   N     0.90080   0.91710   0.57330   0.01267  Uiso   1.00
N287   N     0.89430   0.81930   0.49280   0.01267  Uiso   1.00
N288   N     0.88350   0.83840   0.45390   0.01267  Uiso   1.00
