data_image0
_cell_length_a       27.7205
_cell_length_b       27.7205
_cell_length_c       27.7205
_cell_angle_alpha    90
_cell_angle_beta     90
_cell_angle_gamma    90

_symmetry_space_group_name_H-M    "P 1"
_symmetry_int_tables_number       1

loop_
  _symmetry_equiv_pos_as_xyz
  'x, y, z'

loop_
  _atom_site_label
  _atom_site_occupancy
  _atom_site_fract_x
  _atom_site_fract_y
  _atom_site_fract_z
  _atom_site_thermal_displace_type
  _atom_site_B_iso_or_equiv
  _atom_site_type_symbol
  O1       1.0000 0.44551  0.41895  0.85791  Biso   1.000  O
  O2       1.0000 0.51700  0.39713  0.88770  Biso   1.000  O
  C1       1.0000 0.48789  0.40286  0.85423  Biso   1.000  C
  C2       1.0000 0.50178  0.38834  0.80474  Biso   1.000  C
  C3       1.0000 0.47816  0.38480  0.76248  Biso   1.000  C
  H1       1.0000 0.44560  0.39340  0.75630  Biso   1.000  H
  H2       1.0000 0.47960  0.52040  0.91710  Biso   1.000  H
  O3       1.0000 0.44551  0.91895  0.35791  Biso   1.000  O
  O4       1.0000 0.51700  0.89713  0.38770  Biso   1.000  O
  C4       1.0000 0.48789  0.90286  0.35423  Biso   1.000  C
  C5       1.0000 0.50178  0.88834  0.30474  Biso   1.000  C
  C6       1.0000 0.47816  0.88480  0.26248  Biso   1.000  C
  H3       1.0000 0.44560  0.89340  0.25630  Biso   1.000  H
  H4       1.0000 0.47960  0.02040  0.41710  Biso   1.000  H
  O5       1.0000 0.94551  0.41895  0.35791  Biso   1.000  O
  O6       1.0000 0.01700  0.39713  0.38770  Biso   1.000  O
  C7       1.0000 0.98789  0.40286  0.35423  Biso   1.000  C
  C8       1.0000 0.00178  0.38834  0.30474  Biso   1.000  C
  C9       1.0000 0.97816  0.38480  0.26248  Biso   1.000  C
  H5       1.0000 0.94560  0.39340  0.25630  Biso   1.000  H
  H6       1.0000 0.97960  0.52040  0.41710  Biso   1.000  H
  O7       1.0000 0.94551  0.91895  0.85791  Biso   1.000  O
  O8       1.0000 0.01700  0.89713  0.88770  Biso   1.000  O
  C10      1.0000 0.98789  0.90286  0.85423  Biso   1.000  C
  C11      1.0000 0.00178  0.88834  0.80474  Biso   1.000  C
  C12      1.0000 0.97816  0.88480  0.76248  Biso   1.000  C
  H7       1.0000 0.94560  0.89340  0.75630  Biso   1.000  H
  H8       1.0000 0.97960  0.02040  0.91710  Biso   1.000  H
  O9       1.0000 0.55449  0.08105  0.35791  Biso   1.000  O
  O10      1.0000 0.48300  0.10287  0.38770  Biso   1.000  O
  C13      1.0000 0.51211  0.09714  0.35423  Biso   1.000  C
  C14      1.0000 0.49822  0.11166  0.30474  Biso   1.000  C
  C15      1.0000 0.52184  0.11520  0.26248  Biso   1.000  C
  H9       1.0000 0.55440  0.10660  0.25630  Biso   1.000  H
  H10      1.0000 0.52040  0.97960  0.41710  Biso   1.000  H
  O11      1.0000 0.55449  0.58105  0.85791  Biso   1.000  O
  O12      1.0000 0.48300  0.60287  0.88770  Biso   1.000  O
  C16      1.0000 0.51211  0.59714  0.85423  Biso   1.000  C
  C17      1.0000 0.49822  0.61166  0.80474  Biso   1.000  C
  C18      1.0000 0.52184  0.61520  0.76248  Biso   1.000  C
  H11      1.0000 0.55440  0.60660  0.75630  Biso   1.000  H
  H12      1.0000 0.52040  0.47960  0.91710  Biso   1.000  H
  O13      1.0000 0.05449  0.08105  0.85791  Biso   1.000  O
  O14      1.0000 0.98300  0.10287  0.88770  Biso   1.000  O
  C19      1.0000 0.01211  0.09714  0.85423  Biso   1.000  C
  C20      1.0000 0.99822  0.11166  0.80474  Biso   1.000  C
  C21      1.0000 0.02184  0.11520  0.76248  Biso   1.000  C
  H13      1.0000 0.05440  0.10660  0.75630  Biso   1.000  H
  H14      1.0000 0.02040  0.97960  0.91710  Biso   1.000  H
  O15      1.0000 0.05449  0.58105  0.35791  Biso   1.000  O
  O16      1.0000 0.98300  0.60287  0.38770  Biso   1.000  O
  C22      1.0000 0.01211  0.59714  0.35423  Biso   1.000  C
  C23      1.0000 0.99822  0.61166  0.30474  Biso   1.000  C
  C24      1.0000 0.02184  0.61520  0.26248  Biso   1.000  C
  H15      1.0000 0.05440  0.60660  0.25630  Biso   1.000  H
  H16      1.0000 0.02040  0.47960  0.41710  Biso   1.000  H
  O17      1.0000 0.05449  0.91895  0.14209  Biso   1.000  O
  O18      1.0000 0.98300  0.89713  0.11230  Biso   1.000  O
  C25      1.0000 0.01211  0.90286  0.14577  Biso   1.000  C
  C26      1.0000 0.99822  0.88834  0.19526  Biso   1.000  C
  C27      1.0000 0.02184  0.88480  0.23752  Biso   1.000  C
  H17      1.0000 0.05440  0.89340  0.24370  Biso   1.000  H
  H18      1.0000 0.02040  0.02040  0.08290  Biso   1.000  H
  O19      1.0000 0.05449  0.41895  0.64209  Biso   1.000  O
  O20      1.0000 0.98300  0.39713  0.61230  Biso   1.000  O
  C28      1.0000 0.01211  0.40286  0.64577  Biso   1.000  C
  C29      1.0000 0.99822  0.38834  0.69526  Biso   1.000  C
  C30      1.0000 0.02184  0.38480  0.73752  Biso   1.000  C
  H19      1.0000 0.05440  0.39340  0.74370  Biso   1.000  H
  H20      1.0000 0.02040  0.52040  0.58290  Biso   1.000  H
  O21      1.0000 0.55449  0.91895  0.64209  Biso   1.000  O
  O22      1.0000 0.48300  0.89713  0.61230  Biso   1.000  O
  C31      1.0000 0.51211  0.90286  0.64577  Biso   1.000  C
  C32      1.0000 0.49822  0.88834  0.69526  Biso   1.000  C
  C33      1.0000 0.52184  0.88480  0.73752  Biso   1.000  C
  H21      1.0000 0.55440  0.89340  0.74370  Biso   1.000  H
  H22      1.0000 0.52040  0.02040  0.58290  Biso   1.000  H
  O23      1.0000 0.55449  0.41895  0.14209  Biso   1.000  O
  O24      1.0000 0.48300  0.39713  0.11230  Biso   1.000  O
  C34      1.0000 0.51211  0.40286  0.14577  Biso   1.000  C
  C35      1.0000 0.49822  0.38834  0.19526  Biso   1.000  C
  C36      1.0000 0.52184  0.38480  0.23752  Biso   1.000  C
  H23      1.0000 0.55440  0.39340  0.24370  Biso   1.000  H
  H24      1.0000 0.52040  0.52040  0.08290  Biso   1.000  H
  O25      1.0000 0.94551  0.58105  0.64209  Biso   1.000  O
  O26      1.0000 0.01700  0.60287  0.61230  Biso   1.000  O
  C37      1.0000 0.98789  0.59714  0.64577  Biso   1.000  C
  C38      1.0000 0.00178  0.61166  0.69526  Biso   1.000  C
  C39      1.0000 0.97816  0.61520  0.73752  Biso   1.000  C
  H25      1.0000 0.94560  0.60660  0.74370  Biso   1.000  H
  H26      1.0000 0.97960  0.47960  0.58290  Biso   1.000  H
  O27      1.0000 0.94551  0.08105  0.14209  Biso   1.000  O
  O28      1.0000 0.01700  0.10287  0.11230  Biso   1.000  O
  C40      1.0000 0.98789  0.09714  0.14577  Biso   1.000  C
  C41      1.0000 0.00178  0.11166  0.19526  Biso   1.000  C
  C42      1.0000 0.97816  0.11520  0.23752  Biso   1.000  C
  H27      1.0000 0.94560  0.10660  0.24370  Biso   1.000  H
  H28      1.0000 0.97960  0.97960  0.08290  Biso   1.000  H
  O29      1.0000 0.44551  0.58105  0.14209  Biso   1.000  O
  O30      1.0000 0.51700  0.60287  0.11230  Biso   1.000  O
  C43      1.0000 0.48789  0.59714  0.14577  Biso   1.000  C
  C44      1.0000 0.50178  0.61166  0.19526  Biso   1.000  C
  C45      1.0000 0.47816  0.61520  0.23752  Biso   1.000  C
  H29      1.0000 0.44560  0.60660  0.24370  Biso   1.000  H
  H30      1.0000 0.47960  0.47960  0.08290  Biso   1.000  H
  O31      1.0000 0.44551  0.08105  0.64209  Biso   1.000  O
  O32      1.0000 0.51700  0.10287  0.61230  Biso   1.000  O
  C46      1.0000 0.48789  0.09714  0.64577  Biso   1.000  C
  C47      1.0000 0.50178  0.11166  0.69526  Biso   1.000  C
  C48      1.0000 0.47816  0.11520  0.73752  Biso   1.000  C
  H31      1.0000 0.44560  0.10660  0.74370  Biso   1.000  H
  H32      1.0000 0.47960  0.97960  0.58290  Biso   1.000  H
  O33      1.0000 0.85791  0.44551  0.41895  Biso   1.000  O
  O34      1.0000 0.88770  0.51700  0.39713  Biso   1.000  O
  C49      1.0000 0.85423  0.48789  0.40286  Biso   1.000  C
  C50      1.0000 0.80474  0.50178  0.38834  Biso   1.000  C
  C51      1.0000 0.76248  0.47816  0.38480  Biso   1.000  C
  H33      1.0000 0.75630  0.44560  0.39340  Biso   1.000  H
  H34      1.0000 0.91710  0.47960  0.52040  Biso   1.000  H
  O35      1.0000 0.85791  0.94551  0.91895  Biso   1.000  O
  O36      1.0000 0.88770  0.01700  0.89713  Biso   1.000  O
  C52      1.0000 0.85423  0.98789  0.90286  Biso   1.000  C
  C53      1.0000 0.80474  0.00178  0.88834  Biso   1.000  C
  C54      1.0000 0.76248  0.97816  0.88480  Biso   1.000  C
  H35      1.0000 0.75630  0.94560  0.89340  Biso   1.000  H
  H36      1.0000 0.91710  0.97960  0.02040  Biso   1.000  H
  O37      1.0000 0.35791  0.44551  0.91895  Biso   1.000  O
  O38      1.0000 0.38770  0.51700  0.89713  Biso   1.000  O
  C55      1.0000 0.35423  0.48789  0.90286  Biso   1.000  C
  C56      1.0000 0.30474  0.50178  0.88834  Biso   1.000  C
  C57      1.0000 0.26248  0.47816  0.88480  Biso   1.000  C
  H37      1.0000 0.25630  0.44560  0.89340  Biso   1.000  H
  H38      1.0000 0.41710  0.47960  0.02040  Biso   1.000  H
  O39      1.0000 0.35791  0.94551  0.41895  Biso   1.000  O
  O40      1.0000 0.38770  0.01700  0.39713  Biso   1.000  O
  C58      1.0000 0.35423  0.98789  0.40286  Biso   1.000  C
  C59      1.0000 0.30474  0.00178  0.38834  Biso   1.000  C
  C60      1.0000 0.26248  0.97816  0.38480  Biso   1.000  C
  H39      1.0000 0.25630  0.94560  0.39340  Biso   1.000  H
  H40      1.0000 0.41710  0.97960  0.52040  Biso   1.000  H
  O41      1.0000 0.35791  0.55449  0.08105  Biso   1.000  O
  O42      1.0000 0.38770  0.48300  0.10287  Biso   1.000  O
  C61      1.0000 0.35423  0.51211  0.09714  Biso   1.000  C
  C62      1.0000 0.30474  0.49822  0.11166  Biso   1.000  C
  C63      1.0000 0.26248  0.52184  0.11520  Biso   1.000  C
  H41      1.0000 0.25630  0.55440  0.10660  Biso   1.000  H
  H42      1.0000 0.41710  0.52040  0.97960  Biso   1.000  H
  O43      1.0000 0.35791  0.05449  0.58105  Biso   1.000  O
  O44      1.0000 0.38770  0.98300  0.60287  Biso   1.000  O
  C64      1.0000 0.35423  0.01211  0.59714  Biso   1.000  C
  C65      1.0000 0.30474  0.99822  0.61166  Biso   1.000  C
  C66      1.0000 0.26248  0.02184  0.61520  Biso   1.000  C
  H43      1.0000 0.25630  0.05440  0.60660  Biso   1.000  H
  H44      1.0000 0.41710  0.02040  0.47960  Biso   1.000  H
  O45      1.0000 0.85791  0.55449  0.58105  Biso   1.000  O
  O46      1.0000 0.88770  0.48300  0.60287  Biso   1.000  O
  C67      1.0000 0.85423  0.51211  0.59714  Biso   1.000  C
  C68      1.0000 0.80474  0.49822  0.61166  Biso   1.000  C
  C69      1.0000 0.76248  0.52184  0.61520  Biso   1.000  C
  H45      1.0000 0.75630  0.55440  0.60660  Biso   1.000  H
  H46      1.0000 0.91710  0.52040  0.47960  Biso   1.000  H
  O47      1.0000 0.85791  0.05449  0.08105  Biso   1.000  O
  O48      1.0000 0.88770  0.98300  0.10287  Biso   1.000  O
  C70      1.0000 0.85423  0.01211  0.09714  Biso   1.000  C
  C71      1.0000 0.80474  0.99822  0.11166  Biso   1.000  C
  C72      1.0000 0.76248  0.02184  0.11520  Biso   1.000  C
  H47      1.0000 0.75630  0.05440  0.10660  Biso   1.000  H
  H48      1.0000 0.91710  0.02040  0.97960  Biso   1.000  H
  O49      1.0000 0.14209  0.05449  0.91895  Biso   1.000  O
  O50      1.0000 0.11230  0.98300  0.89713  Biso   1.000  O
  C73      1.0000 0.14577  0.01211  0.90286  Biso   1.000  C
  C74      1.0000 0.19526  0.99822  0.88834  Biso   1.000  C
  C75      1.0000 0.23752  0.02184  0.88480  Biso   1.000  C
  H49      1.0000 0.24370  0.05440  0.89340  Biso   1.000  H
  H50      1.0000 0.08290  0.02040  0.02040  Biso   1.000  H
  O51      1.0000 0.14209  0.55449  0.41895  Biso   1.000  O
  O52      1.0000 0.11230  0.48300  0.39713  Biso   1.000  O
  C76      1.0000 0.14577  0.51211  0.40286  Biso   1.000  C
  C77      1.0000 0.19526  0.49822  0.38834  Biso   1.000  C
  C78      1.0000 0.23752  0.52184  0.38480  Biso   1.000  C
  H51      1.0000 0.24370  0.55440  0.39340  Biso   1.000  H
  H52      1.0000 0.08290  0.52040  0.52040  Biso   1.000  H
  O53      1.0000 0.64209  0.05449  0.41895  Biso   1.000  O
  O54      1.0000 0.61230  0.98300  0.39713  Biso   1.000  O
  C79      1.0000 0.64577  0.01211  0.40286  Biso   1.000  C
  C80      1.0000 0.69526  0.99822  0.38834  Biso   1.000  C
  C81      1.0000 0.73752  0.02184  0.38480  Biso   1.000  C
  H53      1.0000 0.74370  0.05440  0.39340  Biso   1.000  H
  H54      1.0000 0.58290  0.02040  0.52040  Biso   1.000  H
  O55      1.0000 0.64209  0.55449  0.91895  Biso   1.000  O
  O56      1.0000 0.61230  0.48300  0.89713  Biso   1.000  O
  C82      1.0000 0.64577  0.51211  0.90286  Biso   1.000  C
  C83      1.0000 0.69526  0.49822  0.88834  Biso   1.000  C
  C84      1.0000 0.73752  0.52184  0.88480  Biso   1.000  C
  H55      1.0000 0.74370  0.55440  0.89340  Biso   1.000  H
  H56      1.0000 0.58290  0.52040  0.02040  Biso   1.000  H
  O57      1.0000 0.64209  0.94551  0.58105  Biso   1.000  O
  O58      1.0000 0.61230  0.01700  0.60287  Biso   1.000  O
  C85      1.0000 0.64577  0.98789  0.59714  Biso   1.000  C
  C86      1.0000 0.69526  0.00178  0.61166  Biso   1.000  C
  C87      1.0000 0.73752  0.97816  0.61520  Biso   1.000  C
  H57      1.0000 0.74370  0.94560  0.60660  Biso   1.000  H
  H58      1.0000 0.58290  0.97960  0.47960  Biso   1.000  H
  O59      1.0000 0.64209  0.44551  0.08105  Biso   1.000  O
  O60      1.0000 0.61230  0.51700  0.10287  Biso   1.000  O
  C88      1.0000 0.64577  0.48789  0.09714  Biso   1.000  C
  C89      1.0000 0.69526  0.50178  0.11166  Biso   1.000  C
  C90      1.0000 0.73752  0.47816  0.11520  Biso   1.000  C
  H59      1.0000 0.74370  0.44560  0.10660  Biso   1.000  H
  H60      1.0000 0.58290  0.47960  0.97960  Biso   1.000  H
  O61      1.0000 0.14209  0.94551  0.08105  Biso   1.000  O
  O62      1.0000 0.11230  0.01700  0.10287  Biso   1.000  O
  C91      1.0000 0.14577  0.98789  0.09714  Biso   1.000  C
  C92      1.0000 0.19526  0.00178  0.11166  Biso   1.000  C
  C93      1.0000 0.23752  0.97816  0.11520  Biso   1.000  C
  H61      1.0000 0.24370  0.94560  0.10660  Biso   1.000  H
  H62      1.0000 0.08290  0.97960  0.97960  Biso   1.000  H
  O63      1.0000 0.14209  0.44551  0.58105  Biso   1.000  O
  O64      1.0000 0.11230  0.51700  0.60287  Biso   1.000  O
  C94      1.0000 0.14577  0.48789  0.59714  Biso   1.000  C
  C95      1.0000 0.19526  0.50178  0.61166  Biso   1.000  C
  C96      1.0000 0.23752  0.47816  0.61520  Biso   1.000  C
  H63      1.0000 0.24370  0.44560  0.60660  Biso   1.000  H
  H64      1.0000 0.08290  0.47960  0.47960  Biso   1.000  H
  O65      1.0000 0.41895  0.85791  0.44551  Biso   1.000  O
  O66      1.0000 0.39713  0.88770  0.51700  Biso   1.000  O
  C97      1.0000 0.40286  0.85423  0.48789  Biso   1.000  C
  C98      1.0000 0.38834  0.80474  0.50178  Biso   1.000  C
  C99      1.0000 0.38480  0.76248  0.47816  Biso   1.000  C
  H65      1.0000 0.39340  0.75630  0.44560  Biso   1.000  H
  H66      1.0000 0.52040  0.91710  0.47960  Biso   1.000  H
  O67      1.0000 0.41895  0.35791  0.94551  Biso   1.000  O
  O68      1.0000 0.39713  0.38770  0.01700  Biso   1.000  O
  C100     1.0000 0.40286  0.35423  0.98789  Biso   1.000  C
  C101     1.0000 0.38834  0.30474  0.00178  Biso   1.000  C
  C102     1.0000 0.38480  0.26248  0.97816  Biso   1.000  C
  H67      1.0000 0.39340  0.25630  0.94560  Biso   1.000  H
  H68      1.0000 0.52040  0.41710  0.97960  Biso   1.000  H
  O69      1.0000 0.91895  0.85791  0.94551  Biso   1.000  O
  O70      1.0000 0.89713  0.88770  0.01700  Biso   1.000  O
  C103     1.0000 0.90286  0.85423  0.98789  Biso   1.000  C
  C104     1.0000 0.88834  0.80474  0.00178  Biso   1.000  C
  C105     1.0000 0.88480  0.76248  0.97816  Biso   1.000  C
  H69      1.0000 0.89340  0.75630  0.94560  Biso   1.000  H
  H70      1.0000 0.02040  0.91710  0.97960  Biso   1.000  H
  O71      1.0000 0.91895  0.35791  0.44551  Biso   1.000  O
  O72      1.0000 0.89713  0.38770  0.51700  Biso   1.000  O
  C106     1.0000 0.90286  0.35423  0.48789  Biso   1.000  C
  C107     1.0000 0.88834  0.30474  0.50178  Biso   1.000  C
  C108     1.0000 0.88480  0.26248  0.47816  Biso   1.000  C
  H71      1.0000 0.89340  0.25630  0.44560  Biso   1.000  H
  H72      1.0000 0.02040  0.41710  0.47960  Biso   1.000  H
  O73      1.0000 0.08105  0.35791  0.55449  Biso   1.000  O
  O74      1.0000 0.10287  0.38770  0.48300  Biso   1.000  O
  C109     1.0000 0.09714  0.35423  0.51211  Biso   1.000  C
  C110     1.0000 0.11166  0.30474  0.49822  Biso   1.000  C
  C111     1.0000 0.11520  0.26248  0.52184  Biso   1.000  C
  H73      1.0000 0.10660  0.25630  0.55440  Biso   1.000  H
  H74      1.0000 0.97960  0.41710  0.52040  Biso   1.000  H
  O75      1.0000 0.08105  0.85791  0.05449  Biso   1.000  O
  O76      1.0000 0.10287  0.88770  0.98300  Biso   1.000  O
  C112     1.0000 0.09714  0.85423  0.01211  Biso   1.000  C
  C113     1.0000 0.11166  0.80474  0.99822  Biso   1.000  C
  C114     1.0000 0.11520  0.76248  0.02184  Biso   1.000  C
  H75      1.0000 0.10660  0.75630  0.05440  Biso   1.000  H
  H76      1.0000 0.97960  0.91710  0.02040  Biso   1.000  H
  O77      1.0000 0.58105  0.35791  0.05449  Biso   1.000  O
  O78      1.0000 0.60287  0.38770  0.98300  Biso   1.000  O
  C115     1.0000 0.59714  0.35423  0.01211  Biso   1.000  C
  C116     1.0000 0.61166  0.30474  0.99822  Biso   1.000  C
  C117     1.0000 0.61520  0.26248  0.02184  Biso   1.000  C
  H77      1.0000 0.60660  0.25630  0.05440  Biso   1.000  H
  H78      1.0000 0.47960  0.41710  0.02040  Biso   1.000  H
  O79      1.0000 0.58105  0.85791  0.55449  Biso   1.000  O
  O80      1.0000 0.60287  0.88770  0.48300  Biso   1.000  O
  C118     1.0000 0.59714  0.85423  0.51211  Biso   1.000  C
  C119     1.0000 0.61166  0.80474  0.49822  Biso   1.000  C
  C120     1.0000 0.61520  0.76248  0.52184  Biso   1.000  C
  H79      1.0000 0.60660  0.75630  0.55440  Biso   1.000  H
  H80      1.0000 0.47960  0.91710  0.52040  Biso   1.000  H
  O81      1.0000 0.91895  0.14209  0.05449  Biso   1.000  O
  O82      1.0000 0.89713  0.11230  0.98300  Biso   1.000  O
  C121     1.0000 0.90286  0.14577  0.01211  Biso   1.000  C
  C122     1.0000 0.88834  0.19526  0.99822  Biso   1.000  C
  C123     1.0000 0.88480  0.23752  0.02184  Biso   1.000  C
  H81      1.0000 0.89340  0.24370  0.05440  Biso   1.000  H
  H82      1.0000 0.02040  0.08290  0.02040  Biso   1.000  H
  O83      1.0000 0.91895  0.64209  0.55449  Biso   1.000  O
  O84      1.0000 0.89713  0.61230  0.48300  Biso   1.000  O
  C124     1.0000 0.90286  0.64577  0.51211  Biso   1.000  C
  C125     1.0000 0.88834  0.69526  0.49822  Biso   1.000  C
  C126     1.0000 0.88480  0.73752  0.52184  Biso   1.000  C
  H83      1.0000 0.89340  0.74370  0.55440  Biso   1.000  H
  H84      1.0000 0.02040  0.58290  0.52040  Biso   1.000  H
  O85      1.0000 0.41895  0.14209  0.55449  Biso   1.000  O
  O86      1.0000 0.39713  0.11230  0.48300  Biso   1.000  O
  C127     1.0000 0.40286  0.14577  0.51211  Biso   1.000  C
  C128     1.0000 0.38834  0.19526  0.49822  Biso   1.000  C
  C129     1.0000 0.38480  0.23752  0.52184  Biso   1.000  C
  H85      1.0000 0.39340  0.24370  0.55440  Biso   1.000  H
  H86      1.0000 0.52040  0.08290  0.52040  Biso   1.000  H
  O87      1.0000 0.41895  0.64209  0.05449  Biso   1.000  O
  O88      1.0000 0.39713  0.61230  0.98300  Biso   1.000  O
  C130     1.0000 0.40286  0.64577  0.01211  Biso   1.000  C
  C131     1.0000 0.38834  0.69526  0.99822  Biso   1.000  C
  C132     1.0000 0.38480  0.73752  0.02184  Biso   1.000  C
  H87      1.0000 0.39340  0.74370  0.05440  Biso   1.000  H
  H88      1.0000 0.52040  0.58290  0.02040  Biso   1.000  H
  O89      1.0000 0.58105  0.64209  0.94551  Biso   1.000  O
  O90      1.0000 0.60287  0.61230  0.01700  Biso   1.000  O
  C133     1.0000 0.59714  0.64577  0.98789  Biso   1.000  C
  C134     1.0000 0.61166  0.69526  0.00178  Biso   1.000  C
  C135     1.0000 0.61520  0.73752  0.97816  Biso   1.000  C
  H89      1.0000 0.60660  0.74370  0.94560  Biso   1.000  H
  H90      1.0000 0.47960  0.58290  0.97960  Biso   1.000  H
  O91      1.0000 0.58105  0.14209  0.44551  Biso   1.000  O
  O92      1.0000 0.60287  0.11230  0.51700  Biso   1.000  O
  C136     1.0000 0.59714  0.14577  0.48789  Biso   1.000  C
  C137     1.0000 0.61166  0.19526  0.50178  Biso   1.000  C
  C138     1.0000 0.61520  0.23752  0.47816  Biso   1.000  C
  H91      1.0000 0.60660  0.24370  0.44560  Biso   1.000  H
  H92      1.0000 0.47960  0.08290  0.47960  Biso   1.000  H
  O93      1.0000 0.08105  0.64209  0.44551  Biso   1.000  O
  O94      1.0000 0.10287  0.61230  0.51700  Biso   1.000  O
  C139     1.0000 0.09714  0.64577  0.48789  Biso   1.000  C
  C140     1.0000 0.11166  0.69526  0.50178  Biso   1.000  C
  C141     1.0000 0.11520  0.73752  0.47816  Biso   1.000  C
  H93      1.0000 0.10660  0.74370  0.44560  Biso   1.000  H
  H94      1.0000 0.97960  0.58290  0.47960  Biso   1.000  H
  O95      1.0000 0.08105  0.14209  0.94551  Biso   1.000  O
  O96      1.0000 0.10287  0.11230  0.01700  Biso   1.000  O
  C142     1.0000 0.09714  0.14577  0.98789  Biso   1.000  C
  C143     1.0000 0.11166  0.19526  0.00178  Biso   1.000  C
  C144     1.0000 0.11520  0.23752  0.97816  Biso   1.000  C
  H95      1.0000 0.10660  0.24370  0.94560  Biso   1.000  H
  H96      1.0000 0.97960  0.08290  0.97960  Biso   1.000  H
  O97      1.0000 0.16895  0.69551  0.89209  Biso   1.000  O
  O98      1.0000 0.14713  0.76700  0.86230  Biso   1.000  O
  C145     1.0000 0.15286  0.73789  0.89577  Biso   1.000  C
  C146     1.0000 0.13834  0.75178  0.94526  Biso   1.000  C
  C147     1.0000 0.13480  0.72816  0.98752  Biso   1.000  C
  H97      1.0000 0.14340  0.69560  0.99370  Biso   1.000  H
  H98      1.0000 0.27040  0.72960  0.83290  Biso   1.000  H
  O99      1.0000 0.16895  0.19551  0.39209  Biso   1.000  O
  O100     1.0000 0.14713  0.26700  0.36230  Biso   1.000  O
  C148     1.0000 0.15286  0.23789  0.39577  Biso   1.000  C
  C149     1.0000 0.13834  0.25178  0.44526  Biso   1.000  C
  C150     1.0000 0.13480  0.22816  0.48752  Biso   1.000  C
  H99      1.0000 0.14340  0.19560  0.49370  Biso   1.000  H
  H100     1.0000 0.27040  0.22960  0.33290  Biso   1.000  H
  O101     1.0000 0.66895  0.69551  0.39209  Biso   1.000  O
  O102     1.0000 0.64713  0.76700  0.36230  Biso   1.000  O
  C151     1.0000 0.65286  0.73789  0.39577  Biso   1.000  C
  C152     1.0000 0.63834  0.75178  0.44526  Biso   1.000  C
  C153     1.0000 0.63480  0.72816  0.48752  Biso   1.000  C
  H101     1.0000 0.64340  0.69560  0.49370  Biso   1.000  H
  H102     1.0000 0.77040  0.72960  0.33290  Biso   1.000  H
  O103     1.0000 0.66895  0.19551  0.89209  Biso   1.000  O
  O104     1.0000 0.64713  0.26700  0.86230  Biso   1.000  O
  C154     1.0000 0.65286  0.23789  0.89577  Biso   1.000  C
  C155     1.0000 0.63834  0.25178  0.94526  Biso   1.000  C
  C156     1.0000 0.63480  0.22816  0.98752  Biso   1.000  C
  H103     1.0000 0.64340  0.19560  0.99370  Biso   1.000  H
  H104     1.0000 0.77040  0.22960  0.83290  Biso   1.000  H
  O105     1.0000 0.83105  0.80449  0.39209  Biso   1.000  O
  O106     1.0000 0.85287  0.73300  0.36230  Biso   1.000  O
  C157     1.0000 0.84714  0.76211  0.39577  Biso   1.000  C
  C158     1.0000 0.86166  0.74822  0.44526  Biso   1.000  C
  C159     1.0000 0.86520  0.77184  0.48752  Biso   1.000  C
  H105     1.0000 0.85660  0.80440  0.49370  Biso   1.000  H
  H106     1.0000 0.72960  0.77040  0.33290  Biso   1.000  H
  O107     1.0000 0.83105  0.30449  0.89209  Biso   1.000  O
  O108     1.0000 0.85287  0.23300  0.86230  Biso   1.000  O
  C160     1.0000 0.84714  0.26211  0.89577  Biso   1.000  C
  C161     1.0000 0.86166  0.24822  0.94526  Biso   1.000  C
  C162     1.0000 0.86520  0.27184  0.98752  Biso   1.000  C
  H107     1.0000 0.85660  0.30440  0.99370  Biso   1.000  H
  H108     1.0000 0.72960  0.27040  0.83290  Biso   1.000  H
  O109     1.0000 0.33105  0.80449  0.89209  Biso   1.000  O
  O110     1.0000 0.35287  0.73300  0.86230  Biso   1.000  O
  C163     1.0000 0.34714  0.76211  0.89577  Biso   1.000  C
  C164     1.0000 0.36166  0.74822  0.94526  Biso   1.000  C
  C165     1.0000 0.36520  0.77184  0.98752  Biso   1.000  C
  H109     1.0000 0.35660  0.80440  0.99370  Biso   1.000  H
  H110     1.0000 0.22960  0.77040  0.83290  Biso   1.000  H
  O111     1.0000 0.33105  0.30449  0.39209  Biso   1.000  O
  O112     1.0000 0.35287  0.23300  0.36230  Biso   1.000  O
  C166     1.0000 0.34714  0.26211  0.39577  Biso   1.000  C
  C167     1.0000 0.36166  0.24822  0.44526  Biso   1.000  C
  C168     1.0000 0.36520  0.27184  0.48752  Biso   1.000  C
  H111     1.0000 0.35660  0.30440  0.49370  Biso   1.000  H
  H112     1.0000 0.22960  0.27040  0.33290  Biso   1.000  H
  O113     1.0000 0.66895  0.30449  0.60791  Biso   1.000  O
  O114     1.0000 0.64713  0.23300  0.63770  Biso   1.000  O
  C169     1.0000 0.65286  0.26211  0.60423  Biso   1.000  C
  C170     1.0000 0.63834  0.24822  0.55474  Biso   1.000  C
  C171     1.0000 0.63480  0.27184  0.51248  Biso   1.000  C
  H113     1.0000 0.64340  0.30440  0.50630  Biso   1.000  H
  H114     1.0000 0.77040  0.27040  0.66710  Biso   1.000  H
  O115     1.0000 0.66895  0.80449  0.10791  Biso   1.000  O
  O116     1.0000 0.64713  0.73300  0.13770  Biso   1.000  O
  C172     1.0000 0.65286  0.76211  0.10423  Biso   1.000  C
  C173     1.0000 0.63834  0.74822  0.05474  Biso   1.000  C
  C174     1.0000 0.63480  0.77184  0.01248  Biso   1.000  C
  H115     1.0000 0.64340  0.80440  0.00630  Biso   1.000  H
  H116     1.0000 0.77040  0.77040  0.16710  Biso   1.000  H
  O117     1.0000 0.16895  0.30449  0.10791  Biso   1.000  O
  O118     1.0000 0.14713  0.23300  0.13770  Biso   1.000  O
  C175     1.0000 0.15286  0.26211  0.10423  Biso   1.000  C
  C176     1.0000 0.13834  0.24822  0.05474  Biso   1.000  C
  C177     1.0000 0.13480  0.27184  0.01248  Biso   1.000  C
  H117     1.0000 0.14340  0.30440  0.00630  Biso   1.000  H
  H118     1.0000 0.27040  0.27040  0.16710  Biso   1.000  H
  O119     1.0000 0.16895  0.80449  0.60791  Biso   1.000  O
  O120     1.0000 0.14713  0.73300  0.63770  Biso   1.000  O
  C178     1.0000 0.15286  0.76211  0.60423  Biso   1.000  C
  C179     1.0000 0.13834  0.74822  0.55474  Biso   1.000  C
  C180     1.0000 0.13480  0.77184  0.51248  Biso   1.000  C
  H119     1.0000 0.14340  0.80440  0.50630  Biso   1.000  H
  H120     1.0000 0.27040  0.77040  0.66710  Biso   1.000  H
  O121     1.0000 0.33105  0.19551  0.10791  Biso   1.000  O
  O122     1.0000 0.35287  0.26700  0.13770  Biso   1.000  O
  C181     1.0000 0.34714  0.23789  0.10423  Biso   1.000  C
  C182     1.0000 0.36166  0.25178  0.05474  Biso   1.000  C
  C183     1.0000 0.36520  0.22816  0.01248  Biso   1.000  C
  H121     1.0000 0.35660  0.19560  0.00630  Biso   1.000  H
  H122     1.0000 0.22960  0.22960  0.16710  Biso   1.000  H
  O123     1.0000 0.33105  0.69551  0.60791  Biso   1.000  O
  O124     1.0000 0.35287  0.76700  0.63770  Biso   1.000  O
  C184     1.0000 0.34714  0.73789  0.60423  Biso   1.000  C
  C185     1.0000 0.36166  0.75178  0.55474  Biso   1.000  C
  C186     1.0000 0.36520  0.72816  0.51248  Biso   1.000  C
  H123     1.0000 0.35660  0.69560  0.50630  Biso   1.000  H
  H124     1.0000 0.22960  0.72960  0.66710  Biso   1.000  H
  O125     1.0000 0.83105  0.19551  0.60791  Biso   1.000  O
  O126     1.0000 0.85287  0.26700  0.63770  Biso   1.000  O
  C187     1.0000 0.84714  0.23789  0.60423  Biso   1.000  C
  C188     1.0000 0.86166  0.25178  0.55474  Biso   1.000  C
  C189     1.0000 0.86520  0.22816  0.51248  Biso   1.000  C
  H125     1.0000 0.85660  0.19560  0.50630  Biso   1.000  H
  H126     1.0000 0.72960  0.22960  0.66710  Biso   1.000  H
  O127     1.0000 0.83105  0.69551  0.10791  Biso   1.000  O
  O128     1.0000 0.85287  0.76700  0.13770  Biso   1.000  O
  C190     1.0000 0.84714  0.73789  0.10423  Biso   1.000  C
  C191     1.0000 0.86166  0.75178  0.05474  Biso   1.000  C
  C192     1.0000 0.86520  0.72816  0.01248  Biso   1.000  C
  H127     1.0000 0.85660  0.69560  0.00630  Biso   1.000  H
  H128     1.0000 0.72960  0.72960  0.16710  Biso   1.000  H
  O129     1.0000 0.19551  0.10791  0.33105  Biso   1.000  O
  O130     1.0000 0.26700  0.13770  0.35287  Biso   1.000  O
  C193     1.0000 0.23789  0.10423  0.34714  Biso   1.000  C
  C194     1.0000 0.25178  0.05474  0.36166  Biso   1.000  C
  C195     1.0000 0.22816  0.01248  0.36520  Biso   1.000  C
  H129     1.0000 0.19560  0.00630  0.35660  Biso   1.000  H
  H130     1.0000 0.22960  0.16710  0.22960  Biso   1.000  H
  O131     1.0000 0.19551  0.60791  0.83105  Biso   1.000  O
  O132     1.0000 0.26700  0.63770  0.85287  Biso   1.000  O
  C196     1.0000 0.23789  0.60423  0.84714  Biso   1.000  C
  C197     1.0000 0.25178  0.55474  0.86166  Biso   1.000  C
  C198     1.0000 0.22816  0.51248  0.86520  Biso   1.000  C
  H131     1.0000 0.19560  0.50630  0.85660  Biso   1.000  H
  H132     1.0000 0.22960  0.66710  0.72960  Biso   1.000  H
  O133     1.0000 0.69551  0.10791  0.83105  Biso   1.000  O
  O134     1.0000 0.76700  0.13770  0.85287  Biso   1.000  O
  C199     1.0000 0.73789  0.10423  0.84714  Biso   1.000  C
  C200     1.0000 0.75178  0.05474  0.86166  Biso   1.000  C
  C201     1.0000 0.72816  0.01248  0.86520  Biso   1.000  C
  H133     1.0000 0.69560  0.00630  0.85660  Biso   1.000  H
  H134     1.0000 0.72960  0.16710  0.72960  Biso   1.000  H
  O135     1.0000 0.69551  0.60791  0.33105  Biso   1.000  O
  O136     1.0000 0.76700  0.63770  0.35287  Biso   1.000  O
  C202     1.0000 0.73789  0.60423  0.34714  Biso   1.000  C
  C203     1.0000 0.75178  0.55474  0.36166  Biso   1.000  C
  C204     1.0000 0.72816  0.51248  0.36520  Biso   1.000  C
  H135     1.0000 0.69560  0.50630  0.35660  Biso   1.000  H
  H136     1.0000 0.72960  0.66710  0.22960  Biso   1.000  H
  O137     1.0000 0.30449  0.60791  0.66895  Biso   1.000  O
  O138     1.0000 0.23300  0.63770  0.64713  Biso   1.000  O
  C205     1.0000 0.26211  0.60423  0.65286  Biso   1.000  C
  C206     1.0000 0.24822  0.55474  0.63834  Biso   1.000  C
  C207     1.0000 0.27184  0.51248  0.63480  Biso   1.000  C
  H137     1.0000 0.30440  0.50630  0.64340  Biso   1.000  H
  H138     1.0000 0.27040  0.66710  0.77040  Biso   1.000  H
  O139     1.0000 0.30449  0.10791  0.16895  Biso   1.000  O
  O140     1.0000 0.23300  0.13770  0.14713  Biso   1.000  O
  C208     1.0000 0.26211  0.10423  0.15286  Biso   1.000  C
  C209     1.0000 0.24822  0.05474  0.13834  Biso   1.000  C
  C210     1.0000 0.27184  0.01248  0.13480  Biso   1.000  C
  H139     1.0000 0.30440  0.00630  0.14340  Biso   1.000  H
  H140     1.0000 0.27040  0.16710  0.27040  Biso   1.000  H
  O141     1.0000 0.80449  0.60791  0.16895  Biso   1.000  O
  O142     1.0000 0.73300  0.63770  0.14713  Biso   1.000  O
  C211     1.0000 0.76211  0.60423  0.15286  Biso   1.000  C
  C212     1.0000 0.74822  0.55474  0.13834  Biso   1.000  C
  C213     1.0000 0.77184  0.51248  0.13480  Biso   1.000  C
  H141     1.0000 0.80440  0.50630  0.14340  Biso   1.000  H
  H142     1.0000 0.77040  0.66710  0.27040  Biso   1.000  H
  O143     1.0000 0.80449  0.10791  0.66895  Biso   1.000  O
  O144     1.0000 0.73300  0.13770  0.64713  Biso   1.000  O
  C214     1.0000 0.76211  0.10423  0.65286  Biso   1.000  C
  C215     1.0000 0.74822  0.05474  0.63834  Biso   1.000  C
  C216     1.0000 0.77184  0.01248  0.63480  Biso   1.000  C
  H143     1.0000 0.80440  0.00630  0.64340  Biso   1.000  H
  H144     1.0000 0.77040  0.16710  0.77040  Biso   1.000  H
  O145     1.0000 0.80449  0.39209  0.83105  Biso   1.000  O
  O146     1.0000 0.73300  0.36230  0.85287  Biso   1.000  O
  C217     1.0000 0.76211  0.39577  0.84714  Biso   1.000  C
  C218     1.0000 0.74822  0.44526  0.86166  Biso   1.000  C
  C219     1.0000 0.77184  0.48752  0.86520  Biso   1.000  C
  H145     1.0000 0.80440  0.49370  0.85660  Biso   1.000  H
  H146     1.0000 0.77040  0.33290  0.72960  Biso   1.000  H
  O147     1.0000 0.80449  0.89209  0.33105  Biso   1.000  O
  O148     1.0000 0.73300  0.86230  0.35287  Biso   1.000  O
  C220     1.0000 0.76211  0.89577  0.34714  Biso   1.000  C
  C221     1.0000 0.74822  0.94526  0.36166  Biso   1.000  C
  C222     1.0000 0.77184  0.98752  0.36520  Biso   1.000  C
  H147     1.0000 0.80440  0.99370  0.35660  Biso   1.000  H
  H148     1.0000 0.77040  0.83290  0.22960  Biso   1.000  H
  O149     1.0000 0.30449  0.39209  0.33105  Biso   1.000  O
  O150     1.0000 0.23300  0.36230  0.35287  Biso   1.000  O
  C223     1.0000 0.26211  0.39577  0.34714  Biso   1.000  C
  C224     1.0000 0.24822  0.44526  0.36166  Biso   1.000  C
  C225     1.0000 0.27184  0.48752  0.36520  Biso   1.000  C
  H149     1.0000 0.30440  0.49370  0.35660  Biso   1.000  H
  H150     1.0000 0.27040  0.33290  0.22960  Biso   1.000  H
  O151     1.0000 0.30449  0.89209  0.83105  Biso   1.000  O
  O152     1.0000 0.23300  0.86230  0.85287  Biso   1.000  O
  C226     1.0000 0.26211  0.89577  0.84714  Biso   1.000  C
  C227     1.0000 0.24822  0.94526  0.86166  Biso   1.000  C
  C228     1.0000 0.27184  0.98752  0.86520  Biso   1.000  C
  H151     1.0000 0.30440  0.99370  0.85660  Biso   1.000  H
  H152     1.0000 0.27040  0.83290  0.72960  Biso   1.000  H
  O153     1.0000 0.69551  0.89209  0.16895  Biso   1.000  O
  O154     1.0000 0.76700  0.86230  0.14713  Biso   1.000  O
  C229     1.0000 0.73789  0.89577  0.15286  Biso   1.000  C
  C230     1.0000 0.75178  0.94526  0.13834  Biso   1.000  C
  C231     1.0000 0.72816  0.98752  0.13480  Biso   1.000  C
  H153     1.0000 0.69560  0.99370  0.14340  Biso   1.000  H
  H154     1.0000 0.72960  0.83290  0.27040  Biso   1.000  H
  O155     1.0000 0.69551  0.39209  0.66895  Biso   1.000  O
  O156     1.0000 0.76700  0.36230  0.64713  Biso   1.000  O
  C232     1.0000 0.73789  0.39577  0.65286  Biso   1.000  C
  C233     1.0000 0.75178  0.44526  0.63834  Biso   1.000  C
  C234     1.0000 0.72816  0.48752  0.63480  Biso   1.000  C
  H155     1.0000 0.69560  0.49370  0.64340  Biso   1.000  H
  H156     1.0000 0.72960  0.33290  0.77040  Biso   1.000  H
  O157     1.0000 0.19551  0.89209  0.66895  Biso   1.000  O
  O158     1.0000 0.26700  0.86230  0.64713  Biso   1.000  O
  C235     1.0000 0.23789  0.89577  0.65286  Biso   1.000  C
  C236     1.0000 0.25178  0.94526  0.63834  Biso   1.000  C
  C237     1.0000 0.22816  0.98752  0.63480  Biso   1.000  C
  H157     1.0000 0.19560  0.99370  0.64340  Biso   1.000  H
  H158     1.0000 0.22960  0.83290  0.77040  Biso   1.000  H
  O159     1.0000 0.19551  0.39209  0.16895  Biso   1.000  O
  O160     1.0000 0.26700  0.36230  0.14713  Biso   1.000  O
  C238     1.0000 0.23789  0.39577  0.15286  Biso   1.000  C
  C239     1.0000 0.25178  0.44526  0.13834  Biso   1.000  C
  C240     1.0000 0.22816  0.48752  0.13480  Biso   1.000  C
  H159     1.0000 0.19560  0.49370  0.14340  Biso   1.000  H
  H160     1.0000 0.22960  0.33290  0.27040  Biso   1.000  H
  O161     1.0000 0.60791  0.66895  0.30449  Biso   1.000  O
  O162     1.0000 0.63770  0.64713  0.23300  Biso   1.000  O
  C241     1.0000 0.60423  0.65286  0.26211  Biso   1.000  C
  C242     1.0000 0.55474  0.63834  0.24822  Biso   1.000  C
  C243     1.0000 0.51248  0.63480  0.27184  Biso   1.000  C
  H161     1.0000 0.50630  0.64340  0.30440  Biso   1.000  H
  H162     1.0000 0.66710  0.77040  0.27040  Biso   1.000  H
  O163     1.0000 0.60791  0.16895  0.80449  Biso   1.000  O
  O164     1.0000 0.63770  0.14713  0.73300  Biso   1.000  O
  C244     1.0000 0.60423  0.15286  0.76211  Biso   1.000  C
  C245     1.0000 0.55474  0.13834  0.74822  Biso   1.000  C
  C246     1.0000 0.51248  0.13480  0.77184  Biso   1.000  C
  H163     1.0000 0.50630  0.14340  0.80440  Biso   1.000  H
  H164     1.0000 0.66710  0.27040  0.77040  Biso   1.000  H
  O165     1.0000 0.10791  0.66895  0.80449  Biso   1.000  O
  O166     1.0000 0.13770  0.64713  0.73300  Biso   1.000  O
  C247     1.0000 0.10423  0.65286  0.76211  Biso   1.000  C
  C248     1.0000 0.05474  0.63834  0.74822  Biso   1.000  C
  C249     1.0000 0.01248  0.63480  0.77184  Biso   1.000  C
  H165     1.0000 0.00630  0.64340  0.80440  Biso   1.000  H
  H166     1.0000 0.16710  0.77040  0.77040  Biso   1.000  H
  O167     1.0000 0.10791  0.16895  0.30449  Biso   1.000  O
  O168     1.0000 0.13770  0.14713  0.23300  Biso   1.000  O
  C250     1.0000 0.10423  0.15286  0.26211  Biso   1.000  C
  C251     1.0000 0.05474  0.13834  0.24822  Biso   1.000  C
  C252     1.0000 0.01248  0.13480  0.27184  Biso   1.000  C
  H167     1.0000 0.00630  0.14340  0.30440  Biso   1.000  H
  H168     1.0000 0.16710  0.27040  0.27040  Biso   1.000  H
  O169     1.0000 0.10791  0.33105  0.19551  Biso   1.000  O
  O170     1.0000 0.13770  0.35287  0.26700  Biso   1.000  O
  C253     1.0000 0.10423  0.34714  0.23789  Biso   1.000  C
  C254     1.0000 0.05474  0.36166  0.25178  Biso   1.000  C
  C255     1.0000 0.01248  0.36520  0.22816  Biso   1.000  C
  H169     1.0000 0.00630  0.35660  0.19560  Biso   1.000  H
  H170     1.0000 0.16710  0.22960  0.22960  Biso   1.000  H
  O171     1.0000 0.10791  0.83105  0.69551  Biso   1.000  O
  O172     1.0000 0.13770  0.85287  0.76700  Biso   1.000  O
  C256     1.0000 0.10423  0.84714  0.73789  Biso   1.000  C
  C257     1.0000 0.05474  0.86166  0.75178  Biso   1.000  C
  C258     1.0000 0.01248  0.86520  0.72816  Biso   1.000  C
  H171     1.0000 0.00630  0.85660  0.69560  Biso   1.000  H
  H172     1.0000 0.16710  0.72960  0.72960  Biso   1.000  H
  O173     1.0000 0.60791  0.33105  0.69551  Biso   1.000  O
  O174     1.0000 0.63770  0.35287  0.76700  Biso   1.000  O
  C259     1.0000 0.60423  0.34714  0.73789  Biso   1.000  C
  C260     1.0000 0.55474  0.36166  0.75178  Biso   1.000  C
  C261     1.0000 0.51248  0.36520  0.72816  Biso   1.000  C
  H173     1.0000 0.50630  0.35660  0.69560  Biso   1.000  H
  H174     1.0000 0.66710  0.22960  0.72960  Biso   1.000  H
  O175     1.0000 0.60791  0.83105  0.19551  Biso   1.000  O
  O176     1.0000 0.63770  0.85287  0.26700  Biso   1.000  O
  C262     1.0000 0.60423  0.84714  0.23789  Biso   1.000  C
  C263     1.0000 0.55474  0.86166  0.25178  Biso   1.000  C
  C264     1.0000 0.51248  0.86520  0.22816  Biso   1.000  C
  H175     1.0000 0.50630  0.85660  0.19560  Biso   1.000  H
  H176     1.0000 0.66710  0.72960  0.22960  Biso   1.000  H
  O177     1.0000 0.89209  0.16895  0.69551  Biso   1.000  O
  O178     1.0000 0.86230  0.14713  0.76700  Biso   1.000  O
  C265     1.0000 0.89577  0.15286  0.73789  Biso   1.000  C
  C266     1.0000 0.94526  0.13834  0.75178  Biso   1.000  C
  C267     1.0000 0.98752  0.13480  0.72816  Biso   1.000  C
  H177     1.0000 0.99370  0.14340  0.69560  Biso   1.000  H
  H178     1.0000 0.83290  0.27040  0.72960  Biso   1.000  H
  O179     1.0000 0.89209  0.66895  0.19551  Biso   1.000  O
  O180     1.0000 0.86230  0.64713  0.26700  Biso   1.000  O
  C268     1.0000 0.89577  0.65286  0.23789  Biso   1.000  C
  C269     1.0000 0.94526  0.63834  0.25178  Biso   1.000  C
  C270     1.0000 0.98752  0.63480  0.22816  Biso   1.000  C
  H179     1.0000 0.99370  0.64340  0.19560  Biso   1.000  H
  H180     1.0000 0.83290  0.77040  0.22960  Biso   1.000  H
  O181     1.0000 0.39209  0.16895  0.19551  Biso   1.000  O
  O182     1.0000 0.36230  0.14713  0.26700  Biso   1.000  O
  C271     1.0000 0.39577  0.15286  0.23789  Biso   1.000  C
  C272     1.0000 0.44526  0.13834  0.25178  Biso   1.000  C
  C273     1.0000 0.48752  0.13480  0.22816  Biso   1.000  C
  H181     1.0000 0.49370  0.14340  0.19560  Biso   1.000  H
  H182     1.0000 0.33290  0.27040  0.22960  Biso   1.000  H
  O183     1.0000 0.39209  0.66895  0.69551  Biso   1.000  O
  O184     1.0000 0.36230  0.64713  0.76700  Biso   1.000  O
  C274     1.0000 0.39577  0.65286  0.73789  Biso   1.000  C
  C275     1.0000 0.44526  0.63834  0.75178  Biso   1.000  C
  C276     1.0000 0.48752  0.63480  0.72816  Biso   1.000  C
  H183     1.0000 0.49370  0.64340  0.69560  Biso   1.000  H
  H184     1.0000 0.33290  0.77040  0.72960  Biso   1.000  H
  O185     1.0000 0.39209  0.83105  0.80449  Biso   1.000  O
  O186     1.0000 0.36230  0.85287  0.73300  Biso   1.000  O
  C277     1.0000 0.39577  0.84714  0.76211  Biso   1.000  C
  C278     1.0000 0.44526  0.86166  0.74822  Biso   1.000  C
  C279     1.0000 0.48752  0.86520  0.77184  Biso   1.000  C
  H185     1.0000 0.49370  0.85660  0.80440  Biso   1.000  H
  H186     1.0000 0.33290  0.72960  0.77040  Biso   1.000  H
  O187     1.0000 0.39209  0.33105  0.30449  Biso   1.000  O
  O188     1.0000 0.36230  0.35287  0.23300  Biso   1.000  O
  C280     1.0000 0.39577  0.34714  0.26211  Biso   1.000  C
  C281     1.0000 0.44526  0.36166  0.24822  Biso   1.000  C
  C282     1.0000 0.48752  0.36520  0.27184  Biso   1.000  C
  H187     1.0000 0.49370  0.35660  0.30440  Biso   1.000  H
  H188     1.0000 0.33290  0.22960  0.27040  Biso   1.000  H
  O189     1.0000 0.89209  0.83105  0.30449  Biso   1.000  O
  O190     1.0000 0.86230  0.85287  0.23300  Biso   1.000  O
  C283     1.0000 0.89577  0.84714  0.26211  Biso   1.000  C
  C284     1.0000 0.94526  0.86166  0.24822  Biso   1.000  C
  C285     1.0000 0.98752  0.86520  0.27184  Biso   1.000  C
  H189     1.0000 0.99370  0.85660  0.30440  Biso   1.000  H
  H190     1.0000 0.83290  0.72960  0.27040  Biso   1.000  H
  O191     1.0000 0.89209  0.33105  0.80449  Biso   1.000  O
  O192     1.0000 0.86230  0.35287  0.73300  Biso   1.000  O
  C286     1.0000 0.89577  0.34714  0.76211  Biso   1.000  C
  C287     1.0000 0.94526  0.36166  0.74822  Biso   1.000  C
  C288     1.0000 0.98752  0.36520  0.77184  Biso   1.000  C
  H191     1.0000 0.99370  0.35660  0.80440  Biso   1.000  H
  H192     1.0000 0.83290  0.22960  0.77040  Biso   1.000  H
  Zn1      1.0000 0.42520  0.42520  0.92520  Biso   1.000  Zn
  N1       1.0000 0.46876  0.46876  0.96876  Biso   1.000  N
  Zn2      1.0000 0.92520  0.92520  0.92520  Biso   1.000  Zn
  N2       1.0000 0.96876  0.96876  0.96876  Biso   1.000  N
  Zn3      1.0000 0.57480  0.07480  0.42520  Biso   1.000  Zn
  N3       1.0000 0.53124  0.03124  0.46876  Biso   1.000  N
  Zn4      1.0000 0.07480  0.92520  0.07480  Biso   1.000  Zn
  N4       1.0000 0.03124  0.96876  0.03124  Biso   1.000  N
  Zn5      1.0000 0.07480  0.42520  0.57480  Biso   1.000  Zn
  N5       1.0000 0.03124  0.46876  0.53124  Biso   1.000  N
  Zn6      1.0000 0.92520  0.57480  0.57480  Biso   1.000  Zn
  N6       1.0000 0.96876  0.53124  0.53124  Biso   1.000  N
  Zn7      1.0000 0.42520  0.57480  0.07480  Biso   1.000  Zn
  N7       1.0000 0.46876  0.53124  0.03124  Biso   1.000  N
  Zn8      1.0000 0.92520  0.42520  0.42520  Biso   1.000  Zn
  N8       1.0000 0.96876  0.46876  0.46876  Biso   1.000  N
  Zn9      1.0000 0.42520  0.07480  0.57480  Biso   1.000  Zn
  N9       1.0000 0.46876  0.03124  0.53124  Biso   1.000  N
  Zn10     1.0000 0.07480  0.07480  0.92520  Biso   1.000  Zn
  N10      1.0000 0.03124  0.03124  0.96876  Biso   1.000  N
  Zn11     1.0000 0.07480  0.57480  0.42520  Biso   1.000  Zn
  N11      1.0000 0.03124  0.53124  0.46876  Biso   1.000  N
  Zn12     1.0000 0.57480  0.92520  0.57480  Biso   1.000  Zn
  N12      1.0000 0.53124  0.96876  0.53124  Biso   1.000  N
  Zn13     1.0000 0.57480  0.42520  0.07480  Biso   1.000  Zn
  N13      1.0000 0.53124  0.46876  0.03124  Biso   1.000  N
  Zn14     1.0000 0.42520  0.92520  0.42520  Biso   1.000  Zn
  N14      1.0000 0.46876  0.96876  0.46876  Biso   1.000  N
  Zn15     1.0000 0.92520  0.07480  0.07480  Biso   1.000  Zn
  N15      1.0000 0.96876  0.03124  0.03124  Biso   1.000  N
  Zn16     1.0000 0.57480  0.57480  0.92520  Biso   1.000  Zn
  N16      1.0000 0.53124  0.53124  0.96876  Biso   1.000  N
  Zn17     1.0000 0.17520  0.67520  0.82480  Biso   1.000  Zn
  N17      1.0000 0.21876  0.71876  0.78124  Biso   1.000  N
  Zn18     1.0000 0.17520  0.17520  0.32480  Biso   1.000  Zn
  N18      1.0000 0.21876  0.21876  0.28124  Biso   1.000  N
  Zn19     1.0000 0.67520  0.67520  0.32480  Biso   1.000  Zn
  N19      1.0000 0.71876  0.71876  0.28124  Biso   1.000  N
  Zn20     1.0000 0.82480  0.82480  0.32480  Biso   1.000  Zn
  N20      1.0000 0.78124  0.78124  0.28124  Biso   1.000  N
  Zn21     1.0000 0.67520  0.32480  0.67520  Biso   1.000  Zn
  N21      1.0000 0.71876  0.28124  0.71876  Biso   1.000  N
  Zn22     1.0000 0.17520  0.82480  0.67520  Biso   1.000  Zn
  N22      1.0000 0.21876  0.78124  0.71876  Biso   1.000  N
  Zn23     1.0000 0.32480  0.17520  0.17520  Biso   1.000  Zn
  N23      1.0000 0.28124  0.21876  0.21876  Biso   1.000  N
  Zn24     1.0000 0.67520  0.17520  0.82480  Biso   1.000  Zn
  N24      1.0000 0.71876  0.21876  0.78124  Biso   1.000  N
  Zn25     1.0000 0.32480  0.67520  0.67520  Biso   1.000  Zn
  N25      1.0000 0.28124  0.71876  0.71876  Biso   1.000  N
  Zn26     1.0000 0.82480  0.32480  0.82480  Biso   1.000  Zn
  N26      1.0000 0.78124  0.28124  0.78124  Biso   1.000  N
  Zn27     1.0000 0.67520  0.82480  0.17520  Biso   1.000  Zn
  N27      1.0000 0.71876  0.78124  0.21876  Biso   1.000  N
  Zn28     1.0000 0.17520  0.32480  0.17520  Biso   1.000  Zn
  N28      1.0000 0.21876  0.28124  0.21876  Biso   1.000  N
  Zn29     1.0000 0.82480  0.17520  0.67520  Biso   1.000  Zn
  N29      1.0000 0.78124  0.21876  0.71876  Biso   1.000  N
  Zn30     1.0000 0.82480  0.67520  0.17520  Biso   1.000  Zn
  N30      1.0000 0.78124  0.71876  0.21876  Biso   1.000  N
  Zn31     1.0000 0.32480  0.82480  0.82480  Biso   1.000  Zn
  N31      1.0000 0.28124  0.78124  0.78124  Biso   1.000  N
  Zn32     1.0000 0.32480  0.32480  0.32480  Biso   1.000  Zn
  N32      1.0000 0.28124  0.28124  0.28124  Biso   1.000  N
  O193     1.0000 0.54898  0.37500  0.79898  Biso   1.000  O
  O194     1.0000 0.54898  0.87500  0.29898  Biso   1.000  O
  O195     1.0000 0.04898  0.37500  0.29898  Biso   1.000  O
  O196     1.0000 0.45102  0.12500  0.29898  Biso   1.000  O
  O197     1.0000 0.45102  0.62500  0.79898  Biso   1.000  O
  O198     1.0000 0.95102  0.87500  0.20102  Biso   1.000  O
  O199     1.0000 0.95102  0.37500  0.70102  Biso   1.000  O
  O200     1.0000 0.04898  0.62500  0.70102  Biso   1.000  O
  O201     1.0000 0.04898  0.12500  0.20102  Biso   1.000  O
  O202     1.0000 0.79898  0.54898  0.37500  Biso   1.000  O
  O203     1.0000 0.79898  0.04898  0.87500  Biso   1.000  O
  O204     1.0000 0.29898  0.04898  0.37500  Biso   1.000  O
  O205     1.0000 0.29898  0.45102  0.12500  Biso   1.000  O
  O206     1.0000 0.29898  0.95102  0.62500  Biso   1.000  O
  O207     1.0000 0.20102  0.95102  0.87500  Biso   1.000  O
  O208     1.0000 0.20102  0.45102  0.37500  Biso   1.000  O
  O209     1.0000 0.70102  0.04898  0.62500  Biso   1.000  O
  O210     1.0000 0.70102  0.54898  0.12500  Biso   1.000  O
  O211     1.0000 0.37500  0.79898  0.54898  Biso   1.000  O
  O212     1.0000 0.37500  0.29898  0.04898  Biso   1.000  O
  O213     1.0000 0.87500  0.79898  0.04898  Biso   1.000  O
  O214     1.0000 0.12500  0.29898  0.45102  Biso   1.000  O
  O215     1.0000 0.62500  0.29898  0.95102  Biso   1.000  O
  O216     1.0000 0.87500  0.20102  0.95102  Biso   1.000  O
  O217     1.0000 0.37500  0.20102  0.45102  Biso   1.000  O
  O218     1.0000 0.62500  0.70102  0.04898  Biso   1.000  O
  O219     1.0000 0.12500  0.70102  0.54898  Biso   1.000  O
  O220     1.0000 0.12500  0.79898  0.95102  Biso   1.000  O
  O221     1.0000 0.62500  0.79898  0.45102  Biso   1.000  O
  O222     1.0000 0.87500  0.70102  0.45102  Biso   1.000  O
  O223     1.0000 0.37500  0.70102  0.95102  Biso   1.000  O
  O224     1.0000 0.62500  0.20102  0.54898  Biso   1.000  O
  O225     1.0000 0.12500  0.20102  0.04898  Biso   1.000  O
  O226     1.0000 0.87500  0.29898  0.54898  Biso   1.000  O
  O227     1.0000 0.29898  0.54898  0.87500  Biso   1.000  O
  O228     1.0000 0.20102  0.54898  0.62500  Biso   1.000  O
  O229     1.0000 0.20102  0.04898  0.12500  Biso   1.000  O
  O230     1.0000 0.70102  0.45102  0.87500  Biso   1.000  O
  O231     1.0000 0.70102  0.95102  0.37500  Biso   1.000  O
  O232     1.0000 0.79898  0.95102  0.12500  Biso   1.000  O
  O233     1.0000 0.79898  0.45102  0.62500  Biso   1.000  O
  O234     1.0000 0.54898  0.62500  0.20102  Biso   1.000  O
  O235     1.0000 0.54898  0.12500  0.70102  Biso   1.000  O
  O236     1.0000 0.04898  0.87500  0.79898  Biso   1.000  O
  O237     1.0000 0.95102  0.12500  0.79898  Biso   1.000  O
  O238     1.0000 0.95102  0.62500  0.29898  Biso   1.000  O
  O239     1.0000 0.45102  0.87500  0.70102  Biso   1.000  O
  O240     1.0000 0.45102  0.37500  0.20102  Biso   1.000  O
  C289     1.0000 0.50000  0.50000  0.93804  Biso   1.000  C
  C290     1.0000 0.00000  0.50000  0.43804  Biso   1.000  C
  C291     1.0000 0.50000  0.00000  0.43804  Biso   1.000  C
  C292     1.0000 0.00000  0.00000  0.93804  Biso   1.000  C
  C293     1.0000 0.00000  0.00000  0.06196  Biso   1.000  C
  C294     1.0000 0.50000  0.00000  0.56196  Biso   1.000  C
  C295     1.0000 0.00000  0.50000  0.56196  Biso   1.000  C
  C296     1.0000 0.50000  0.50000  0.06196  Biso   1.000  C
  C297     1.0000 0.93804  0.50000  0.50000  Biso   1.000  C
  C298     1.0000 0.93804  0.00000  0.00000  Biso   1.000  C
  C299     1.0000 0.43804  0.50000  0.00000  Biso   1.000  C
  C300     1.0000 0.43804  0.00000  0.50000  Biso   1.000  C
  C301     1.0000 0.06196  0.00000  0.00000  Biso   1.000  C
  C302     1.0000 0.06196  0.50000  0.50000  Biso   1.000  C
  C303     1.0000 0.56196  0.00000  0.50000  Biso   1.000  C
  C304     1.0000 0.56196  0.50000  0.00000  Biso   1.000  C
  C305     1.0000 0.50000  0.93804  0.50000  Biso   1.000  C
  C306     1.0000 0.50000  0.43804  0.00000  Biso   1.000  C
  C307     1.0000 0.00000  0.43804  0.50000  Biso   1.000  C
  C308     1.0000 0.00000  0.93804  0.00000  Biso   1.000  C
  C309     1.0000 0.00000  0.06196  0.00000  Biso   1.000  C
  C310     1.0000 0.00000  0.56196  0.50000  Biso   1.000  C
  C311     1.0000 0.50000  0.56196  0.00000  Biso   1.000  C
  C312     1.0000 0.50000  0.06196  0.50000  Biso   1.000  C
  C313     1.0000 0.25000  0.75000  0.81196  Biso   1.000  C
  C314     1.0000 0.25000  0.25000  0.31196  Biso   1.000  C
  C315     1.0000 0.75000  0.75000  0.31196  Biso   1.000  C
  C316     1.0000 0.75000  0.25000  0.81196  Biso   1.000  C
  C317     1.0000 0.75000  0.25000  0.68804  Biso   1.000  C
  C318     1.0000 0.75000  0.75000  0.18804  Biso   1.000  C
  C319     1.0000 0.25000  0.25000  0.18804  Biso   1.000  C
  C320     1.0000 0.25000  0.75000  0.68804  Biso   1.000  C
  C321     1.0000 0.25000  0.18804  0.25000  Biso   1.000  C
  C322     1.0000 0.75000  0.18804  0.75000  Biso   1.000  C
  C323     1.0000 0.25000  0.68804  0.75000  Biso   1.000  C
  C324     1.0000 0.75000  0.68804  0.25000  Biso   1.000  C
  C325     1.0000 0.75000  0.31196  0.75000  Biso   1.000  C
  C326     1.0000 0.25000  0.31196  0.25000  Biso   1.000  C
  C327     1.0000 0.75000  0.81196  0.25000  Biso   1.000  C
  C328     1.0000 0.25000  0.81196  0.75000  Biso   1.000  C
  C329     1.0000 0.68804  0.75000  0.25000  Biso   1.000  C
  C330     1.0000 0.68804  0.25000  0.75000  Biso   1.000  C
  C331     1.0000 0.18804  0.25000  0.25000  Biso   1.000  C
  C332     1.0000 0.18804  0.75000  0.75000  Biso   1.000  C
  C333     1.0000 0.81196  0.25000  0.75000  Biso   1.000  C
  C334     1.0000 0.81196  0.75000  0.25000  Biso   1.000  C
  C335     1.0000 0.31196  0.75000  0.75000  Biso   1.000  C
  C336     1.0000 0.31196  0.25000  0.25000  Biso   1.000  C
