data_image0
_cell_length_a       23.3019
_cell_length_b       23.3019
_cell_length_c       23.3019
_cell_angle_alpha    90
_cell_angle_beta     90
_cell_angle_gamma    90

_symmetry_space_group_name_H-M    "P 1"
_symmetry_int_tables_number       1

loop_
  _symmetry_equiv_pos_as_xyz
  'x, y, z'

loop_
  _atom_site_label
  _atom_site_occupancy
  _atom_site_fract_x
  _atom_site_fract_y
  _atom_site_fract_z
  _atom_site_thermal_displace_type
  _atom_site_B_iso_or_equiv
  _atom_site_type_symbol
  Cu1      1.0000 0.26791  0.14492  0.93550  Biso   1.000  Cu
  O1       1.0000 0.20650  0.10420  0.97120  Biso   1.000  O
  N1       1.0000 0.34070  0.17360  0.90360  Biso   1.000  N
  N2       1.0000 0.28400  0.08360  0.88070  Biso   1.000  N
  C1       1.0000 0.25710  0.03470  0.87710  Biso   1.000  C
  H1       1.0000 0.26730  0.00960  0.84660  Biso   1.000  H
  C2       1.0000 0.21300  0.01590  0.91640  Biso   1.000  C
  C3       1.0000 0.19010  0.05050  0.96180  Biso   1.000  C
  C4       1.0000 0.14680  0.02790  0.99700  Biso   1.000  C
  H2       1.0000 0.13050  0.05070  0.02650  Biso   1.000  H
  C5       1.0000 0.12750  0.97110  0.98830  Biso   1.000  C
  H3       1.0000 0.09930  0.95560  0.01330  Biso   1.000  H
  C6       1.0000 0.14870  0.93780  0.94460  Biso   1.000  C
  H4       1.0000 0.13500  0.89980  0.93900  Biso   1.000  H
  C7       1.0000 0.19090  0.96070  0.90860  Biso   1.000  C
  H5       1.0000 0.20490  0.93800  0.87770  Biso   1.000  H
  Cu2      1.0000 0.21730  0.15836  0.05151  Biso   1.000  Cu
  Cl1      1.0000 0.31220  0.13390  0.05890  Biso   1.000  Cl
  O2       1.0000 0.31130  0.14120  0.04730  Biso   1.000  O
  O3       1.0000 0.29140  0.01310  0.73980  Biso   1.000  O
  N3       1.0000 0.38830  0.88670  0.68330  Biso   1.000  N
  N4       1.0000 0.29770  0.93370  0.64710  Biso   1.000  N
  C8       1.0000 0.25420  0.96360  0.62830  Biso   1.000  C
  H6       1.0000 0.40870  0.73970  0.54560  Biso   1.000  H
  C9       1.0000 0.22660  0.00920  0.65920  Biso   1.000  C
  C10      1.0000 0.24560  0.03240  0.71260  Biso   1.000  C
  C11      1.0000 0.26330  0.71410  0.42170  Biso   1.000  C
  H7       1.0000 0.22870  0.72710  0.40460  Biso   1.000  H
  C12      1.0000 0.28890  0.66500  0.40140  Biso   1.000  C
  H8       1.0000 0.27040  0.64320  0.37240  Biso   1.000  H
  C13      1.0000 0.34300  0.64660  0.42350  Biso   1.000  C
  H9       1.0000 0.36230  0.61430  0.40760  Biso   1.000  H
  C14      1.0000 0.36630  0.67660  0.46820  Biso   1.000  C
  H10      1.0000 0.40110  0.66320  0.48460  Biso   1.000  H
  Cu3      1.0000 0.23209  0.85508  0.43550  Biso   1.000  Cu
  O4       1.0000 0.29350  0.89580  0.47120  Biso   1.000  O
  N5       1.0000 0.15930  0.82640  0.40360  Biso   1.000  N
  N6       1.0000 0.21600  0.91640  0.38070  Biso   1.000  N
  C15      1.0000 0.24290  0.96530  0.37710  Biso   1.000  C
  H11      1.0000 0.23270  0.99040  0.34660  Biso   1.000  H
  C16      1.0000 0.28700  0.98410  0.41640  Biso   1.000  C
  C17      1.0000 0.30990  0.94950  0.46180  Biso   1.000  C
  C18      1.0000 0.35320  0.97210  0.49700  Biso   1.000  C
  H12      1.0000 0.36950  0.94930  0.52650  Biso   1.000  H
  C19      1.0000 0.37250  0.02890  0.48830  Biso   1.000  C
  H13      1.0000 0.40070  0.04440  0.51330  Biso   1.000  H
  C20      1.0000 0.35130  0.06220  0.44460  Biso   1.000  C
  H14      1.0000 0.36500  0.10020  0.43900  Biso   1.000  H
  C21      1.0000 0.30910  0.03930  0.40860  Biso   1.000  C
  H15      1.0000 0.29510  0.06200  0.37770  Biso   1.000  H
  Cu4      1.0000 0.28270  0.84164  0.55151  Biso   1.000  Cu
  Cl2      1.0000 0.18780  0.86610  0.55890  Biso   1.000  Cl
  O5       1.0000 0.18870  0.85880  0.54730  Biso   1.000  O
  O6       1.0000 0.20860  0.98690  0.23980  Biso   1.000  O
  N7       1.0000 0.11170  0.11330  0.18330  Biso   1.000  N
  N8       1.0000 0.20230  0.06630  0.14710  Biso   1.000  N
  C22      1.0000 0.24580  0.03640  0.12830  Biso   1.000  C
  H16      1.0000 0.09130  0.26030  0.04560  Biso   1.000  H
  C23      1.0000 0.27340  0.99080  0.15920  Biso   1.000  C
  C24      1.0000 0.25440  0.96760  0.21260  Biso   1.000  C
  C25      1.0000 0.23670  0.28590  0.92170  Biso   1.000  C
  H17      1.0000 0.27130  0.27290  0.90460  Biso   1.000  H
  C26      1.0000 0.21110  0.33500  0.90140  Biso   1.000  C
  H18      1.0000 0.22960  0.35680  0.87240  Biso   1.000  H
  C27      1.0000 0.15700  0.35340  0.92350  Biso   1.000  C
  H19      1.0000 0.13770  0.38570  0.90760  Biso   1.000  H
  C28      1.0000 0.13370  0.32340  0.96820  Biso   1.000  C
  H20      1.0000 0.09890  0.33680  0.98460  Biso   1.000  H
  Cu5      1.0000 0.73209  0.64492  0.56450  Biso   1.000  Cu
  O7       1.0000 0.79350  0.60420  0.52880  Biso   1.000  O
  N9       1.0000 0.65930  0.67360  0.59640  Biso   1.000  N
  N10      1.0000 0.71600  0.58360  0.61930  Biso   1.000  N
  C29      1.0000 0.74290  0.53470  0.62290  Biso   1.000  C
  H21      1.0000 0.73270  0.50960  0.65340  Biso   1.000  H
  C30      1.0000 0.78700  0.51590  0.58360  Biso   1.000  C
  C31      1.0000 0.80990  0.55050  0.53820  Biso   1.000  C
  C32      1.0000 0.85320  0.52790  0.50300  Biso   1.000  C
  H22      1.0000 0.86950  0.55070  0.47350  Biso   1.000  H
  C33      1.0000 0.87250  0.47110  0.51170  Biso   1.000  C
  H23      1.0000 0.90070  0.45560  0.48670  Biso   1.000  H
  C34      1.0000 0.85130  0.43780  0.55540  Biso   1.000  C
  H24      1.0000 0.86500  0.39980  0.56100  Biso   1.000  H
  C35      1.0000 0.80910  0.46070  0.59140  Biso   1.000  C
  H25      1.0000 0.79510  0.43800  0.62230  Biso   1.000  H
  Cu6      1.0000 0.78270  0.65836  0.44849  Biso   1.000  Cu
  Cl3      1.0000 0.68780  0.63390  0.44110  Biso   1.000  Cl
  O8       1.0000 0.68870  0.64120  0.45270  Biso   1.000  O
  O9       1.0000 0.70860  0.51310  0.76020  Biso   1.000  O
  N11      1.0000 0.61170  0.38670  0.81670  Biso   1.000  N
  N12      1.0000 0.70230  0.43370  0.85290  Biso   1.000  N
  C36      1.0000 0.74580  0.46360  0.87170  Biso   1.000  C
  H26      1.0000 0.59130  0.23970  0.95440  Biso   1.000  H
  C37      1.0000 0.77340  0.50920  0.84080  Biso   1.000  C
  C38      1.0000 0.75440  0.53240  0.78740  Biso   1.000  C
  C39      1.0000 0.73670  0.21410  0.07830  Biso   1.000  C
  H27      1.0000 0.77130  0.22710  0.09540  Biso   1.000  H
  C40      1.0000 0.71110  0.16500  0.09860  Biso   1.000  C
  H28      1.0000 0.72960  0.14320  0.12760  Biso   1.000  H
  C41      1.0000 0.65700  0.14660  0.07650  Biso   1.000  C
  H29      1.0000 0.63770  0.11430  0.09240  Biso   1.000  H
  C42      1.0000 0.63370  0.17660  0.03180  Biso   1.000  C
  H30      1.0000 0.59890  0.16320  0.01540  Biso   1.000  H
  Cu7      1.0000 0.76791  0.35508  0.06450  Biso   1.000  Cu
  O10      1.0000 0.70650  0.39580  0.02880  Biso   1.000  O
  N13      1.0000 0.84070  0.32640  0.09640  Biso   1.000  N
  N14      1.0000 0.78400  0.41640  0.11930  Biso   1.000  N
  C43      1.0000 0.75710  0.46530  0.12290  Biso   1.000  C
  H31      1.0000 0.76730  0.49040  0.15340  Biso   1.000  H
  C44      1.0000 0.71300  0.48410  0.08360  Biso   1.000  C
  C45      1.0000 0.69010  0.44950  0.03820  Biso   1.000  C
  C46      1.0000 0.64680  0.47210  0.00300  Biso   1.000  C
  H32      1.0000 0.63050  0.44930  0.97350  Biso   1.000  H
  C47      1.0000 0.62750  0.52890  0.01170  Biso   1.000  C
  H33      1.0000 0.59930  0.54440  0.98670  Biso   1.000  H
  C48      1.0000 0.64870  0.56220  0.05540  Biso   1.000  C
  H34      1.0000 0.63500  0.60020  0.06100  Biso   1.000  H
  C49      1.0000 0.69090  0.53930  0.09140  Biso   1.000  C
  H35      1.0000 0.70490  0.56200  0.12230  Biso   1.000  H
  Cu8      1.0000 0.71730  0.34164  0.94849  Biso   1.000  Cu
  Cl4      1.0000 0.81220  0.36610  0.94110  Biso   1.000  Cl
  O11      1.0000 0.81130  0.35880  0.95270  Biso   1.000  O
  O12      1.0000 0.79140  0.48690  0.26020  Biso   1.000  O
  N15      1.0000 0.88830  0.61330  0.31670  Biso   1.000  N
  N16      1.0000 0.79770  0.56630  0.35290  Biso   1.000  N
  C50      1.0000 0.75420  0.53640  0.37170  Biso   1.000  C
  H36      1.0000 0.90870  0.76030  0.45440  Biso   1.000  H
  C51      1.0000 0.72660  0.49080  0.34080  Biso   1.000  C
  C52      1.0000 0.74560  0.46760  0.28740  Biso   1.000  C
  C53      1.0000 0.76330  0.78590  0.57830  Biso   1.000  C
  H37      1.0000 0.72870  0.77290  0.59540  Biso   1.000  H
  C54      1.0000 0.78890  0.83500  0.59860  Biso   1.000  C
  H38      1.0000 0.77040  0.85680  0.62760  Biso   1.000  H
  C55      1.0000 0.84300  0.85340  0.57650  Biso   1.000  C
  H39      1.0000 0.86230  0.88570  0.59240  Biso   1.000  H
  C56      1.0000 0.86630  0.82340  0.53180  Biso   1.000  C
  H40      1.0000 0.90110  0.83680  0.51540  Biso   1.000  H
  Cu9      1.0000 0.93550  0.26791  0.14492  Biso   1.000  Cu
  O13      1.0000 0.97120  0.20650  0.10420  Biso   1.000  O
  N17      1.0000 0.90360  0.34070  0.17360  Biso   1.000  N
  N18      1.0000 0.88070  0.28400  0.08360  Biso   1.000  N
  C57      1.0000 0.87710  0.25710  0.03470  Biso   1.000  C
  H41      1.0000 0.84660  0.26730  0.00960  Biso   1.000  H
  C58      1.0000 0.91640  0.21300  0.01590  Biso   1.000  C
  C59      1.0000 0.96180  0.19010  0.05050  Biso   1.000  C
  C60      1.0000 0.99700  0.14680  0.02790  Biso   1.000  C
  H42      1.0000 0.02650  0.13050  0.05070  Biso   1.000  H
  C61      1.0000 0.98830  0.12750  0.97110  Biso   1.000  C
  H43      1.0000 0.01330  0.09930  0.95560  Biso   1.000  H
  C62      1.0000 0.94460  0.14870  0.93780  Biso   1.000  C
  H44      1.0000 0.93900  0.13500  0.89980  Biso   1.000  H
  C63      1.0000 0.90860  0.19090  0.96070  Biso   1.000  C
  H45      1.0000 0.87770  0.20490  0.93800  Biso   1.000  H
  Cu10     1.0000 0.05151  0.21730  0.15836  Biso   1.000  Cu
  Cl5      1.0000 0.05890  0.31220  0.13390  Biso   1.000  Cl
  O14      1.0000 0.04730  0.31130  0.14120  Biso   1.000  O
  O15      1.0000 0.73980  0.29140  0.01310  Biso   1.000  O
  N19      1.0000 0.68330  0.38830  0.88670  Biso   1.000  N
  N20      1.0000 0.64710  0.29770  0.93370  Biso   1.000  N
  C64      1.0000 0.62830  0.25420  0.96360  Biso   1.000  C
  H46      1.0000 0.54560  0.40870  0.73970  Biso   1.000  H
  C65      1.0000 0.65920  0.22660  0.00920  Biso   1.000  C
  C66      1.0000 0.71260  0.24560  0.03240  Biso   1.000  C
  C67      1.0000 0.42170  0.26330  0.71410  Biso   1.000  C
  H47      1.0000 0.40460  0.22870  0.72710  Biso   1.000  H
  C68      1.0000 0.40140  0.28890  0.66500  Biso   1.000  C
  H48      1.0000 0.37240  0.27040  0.64320  Biso   1.000  H
  C69      1.0000 0.42350  0.34300  0.64660  Biso   1.000  C
  H49      1.0000 0.40760  0.36230  0.61430  Biso   1.000  H
  C70      1.0000 0.46820  0.36630  0.67660  Biso   1.000  C
  H50      1.0000 0.48460  0.40110  0.66320  Biso   1.000  H
  Cu11     1.0000 0.43550  0.23209  0.85508  Biso   1.000  Cu
  O16      1.0000 0.47120  0.29350  0.89580  Biso   1.000  O
  N21      1.0000 0.40360  0.15930  0.82640  Biso   1.000  N
  N22      1.0000 0.38070  0.21600  0.91640  Biso   1.000  N
  C71      1.0000 0.37710  0.24290  0.96530  Biso   1.000  C
  H51      1.0000 0.34660  0.23270  0.99040  Biso   1.000  H
  C72      1.0000 0.41640  0.28700  0.98410  Biso   1.000  C
  C73      1.0000 0.46180  0.30990  0.94950  Biso   1.000  C
  C74      1.0000 0.49700  0.35320  0.97210  Biso   1.000  C
  H52      1.0000 0.52650  0.36950  0.94930  Biso   1.000  H
  C75      1.0000 0.48830  0.37250  0.02890  Biso   1.000  C
  H53      1.0000 0.51330  0.40070  0.04440  Biso   1.000  H
  C76      1.0000 0.44460  0.35130  0.06220  Biso   1.000  C
  H54      1.0000 0.43900  0.36500  0.10020  Biso   1.000  H
  C77      1.0000 0.40860  0.30910  0.03930  Biso   1.000  C
  H55      1.0000 0.37770  0.29510  0.06200  Biso   1.000  H
  Cu12     1.0000 0.55151  0.28270  0.84164  Biso   1.000  Cu
  Cl6      1.0000 0.55890  0.18780  0.86610  Biso   1.000  Cl
  O17      1.0000 0.54730  0.18870  0.85880  Biso   1.000  O
  O18      1.0000 0.23980  0.20860  0.98690  Biso   1.000  O
  N23      1.0000 0.18330  0.11170  0.11330  Biso   1.000  N
  N24      1.0000 0.14710  0.20230  0.06630  Biso   1.000  N
  C78      1.0000 0.12830  0.24580  0.03640  Biso   1.000  C
  H56      1.0000 0.04560  0.09130  0.26030  Biso   1.000  H
  C79      1.0000 0.15920  0.27340  0.99080  Biso   1.000  C
  C80      1.0000 0.21260  0.25440  0.96760  Biso   1.000  C
  C81      1.0000 0.92170  0.23670  0.28590  Biso   1.000  C
  H57      1.0000 0.90460  0.27130  0.27290  Biso   1.000  H
  C82      1.0000 0.90140  0.21110  0.33500  Biso   1.000  C
  H58      1.0000 0.87240  0.22960  0.35680  Biso   1.000  H
  C83      1.0000 0.92350  0.15700  0.35340  Biso   1.000  C
  H59      1.0000 0.90760  0.13770  0.38570  Biso   1.000  H
  C84      1.0000 0.96820  0.13370  0.32340  Biso   1.000  C
  H60      1.0000 0.98460  0.09890  0.33680  Biso   1.000  H
  Cu13     1.0000 0.56450  0.73209  0.64492  Biso   1.000  Cu
  O19      1.0000 0.52880  0.79350  0.60420  Biso   1.000  O
  N25      1.0000 0.59640  0.65930  0.67360  Biso   1.000  N
  N26      1.0000 0.61930  0.71600  0.58360  Biso   1.000  N
  C85      1.0000 0.62290  0.74290  0.53470  Biso   1.000  C
  H61      1.0000 0.65340  0.73270  0.50960  Biso   1.000  H
  C86      1.0000 0.58360  0.78700  0.51590  Biso   1.000  C
  C87      1.0000 0.53820  0.80990  0.55050  Biso   1.000  C
  C88      1.0000 0.50300  0.85320  0.52790  Biso   1.000  C
  H62      1.0000 0.47350  0.86950  0.55070  Biso   1.000  H
  C89      1.0000 0.51170  0.87250  0.47110  Biso   1.000  C
  H63      1.0000 0.48670  0.90070  0.45560  Biso   1.000  H
  C90      1.0000 0.55540  0.85130  0.43780  Biso   1.000  C
  H64      1.0000 0.56100  0.86500  0.39980  Biso   1.000  H
  C91      1.0000 0.59140  0.80910  0.46070  Biso   1.000  C
  H65      1.0000 0.62230  0.79510  0.43800  Biso   1.000  H
  Cu14     1.0000 0.44849  0.78270  0.65836  Biso   1.000  Cu
  Cl7      1.0000 0.44110  0.68780  0.63390  Biso   1.000  Cl
  O20      1.0000 0.45270  0.68870  0.64120  Biso   1.000  O
  O21      1.0000 0.76020  0.70860  0.51310  Biso   1.000  O
  N27      1.0000 0.81670  0.61170  0.38670  Biso   1.000  N
  N28      1.0000 0.85290  0.70230  0.43370  Biso   1.000  N
  C92      1.0000 0.87170  0.74580  0.46360  Biso   1.000  C
  H66      1.0000 0.95440  0.59130  0.23970  Biso   1.000  H
  C93      1.0000 0.84080  0.77340  0.50920  Biso   1.000  C
  C94      1.0000 0.78740  0.75440  0.53240  Biso   1.000  C
  C95      1.0000 0.07830  0.73670  0.21410  Biso   1.000  C
  H67      1.0000 0.09540  0.77130  0.22710  Biso   1.000  H
  C96      1.0000 0.09860  0.71110  0.16500  Biso   1.000  C
  H68      1.0000 0.12760  0.72960  0.14320  Biso   1.000  H
  C97      1.0000 0.07650  0.65700  0.14660  Biso   1.000  C
  H69      1.0000 0.09240  0.63770  0.11430  Biso   1.000  H
  C98      1.0000 0.03180  0.63370  0.17660  Biso   1.000  C
  H70      1.0000 0.01540  0.59890  0.16320  Biso   1.000  H
  Cu15     1.0000 0.06450  0.76791  0.35508  Biso   1.000  Cu
  O22      1.0000 0.02880  0.70650  0.39580  Biso   1.000  O
  N29      1.0000 0.09640  0.84070  0.32640  Biso   1.000  N
  N30      1.0000 0.11930  0.78400  0.41640  Biso   1.000  N
  C99      1.0000 0.12290  0.75710  0.46530  Biso   1.000  C
  H71      1.0000 0.15340  0.76730  0.49040  Biso   1.000  H
  C100     1.0000 0.08360  0.71300  0.48410  Biso   1.000  C
  C101     1.0000 0.03820  0.69010  0.44950  Biso   1.000  C
  C102     1.0000 0.00300  0.64680  0.47210  Biso   1.000  C
  H72      1.0000 0.97350  0.63050  0.44930  Biso   1.000  H
  C103     1.0000 0.01170  0.62750  0.52890  Biso   1.000  C
  H73      1.0000 0.98670  0.59930  0.54440  Biso   1.000  H
  C104     1.0000 0.05540  0.64870  0.56220  Biso   1.000  C
  H74      1.0000 0.06100  0.63500  0.60020  Biso   1.000  H
  C105     1.0000 0.09140  0.69090  0.53930  Biso   1.000  C
  H75      1.0000 0.12230  0.70490  0.56200  Biso   1.000  H
  Cu16     1.0000 0.94849  0.71730  0.34164  Biso   1.000  Cu
  Cl8      1.0000 0.94110  0.81220  0.36610  Biso   1.000  Cl
  O23      1.0000 0.95270  0.81130  0.35880  Biso   1.000  O
  O24      1.0000 0.26020  0.79140  0.48690  Biso   1.000  O
  N31      1.0000 0.31670  0.88830  0.61330  Biso   1.000  N
  N32      1.0000 0.35290  0.79770  0.56630  Biso   1.000  N
  C106     1.0000 0.37170  0.75420  0.53640  Biso   1.000  C
  H76      1.0000 0.45440  0.90870  0.76030  Biso   1.000  H
  C107     1.0000 0.34080  0.72660  0.49080  Biso   1.000  C
  C108     1.0000 0.28740  0.74560  0.46760  Biso   1.000  C
  C109     1.0000 0.57830  0.76330  0.78590  Biso   1.000  C
  H77      1.0000 0.59540  0.72870  0.77290  Biso   1.000  H
  C110     1.0000 0.59860  0.78890  0.83500  Biso   1.000  C
  H78      1.0000 0.62760  0.77040  0.85680  Biso   1.000  H
  C111     1.0000 0.57650  0.84300  0.85340  Biso   1.000  C
  H79      1.0000 0.59240  0.86230  0.88570  Biso   1.000  H
  C112     1.0000 0.53180  0.86630  0.82340  Biso   1.000  C
  H80      1.0000 0.51540  0.90110  0.83680  Biso   1.000  H
  Cu17     1.0000 0.14492  0.93550  0.26791  Biso   1.000  Cu
  O25      1.0000 0.10420  0.97120  0.20650  Biso   1.000  O
  N33      1.0000 0.17360  0.90360  0.34070  Biso   1.000  N
  N34      1.0000 0.08360  0.88070  0.28400  Biso   1.000  N
  C113     1.0000 0.03470  0.87710  0.25710  Biso   1.000  C
  H81      1.0000 0.00960  0.84660  0.26730  Biso   1.000  H
  C114     1.0000 0.01590  0.91640  0.21300  Biso   1.000  C
  C115     1.0000 0.05050  0.96180  0.19010  Biso   1.000  C
  C116     1.0000 0.02790  0.99700  0.14680  Biso   1.000  C
  H82      1.0000 0.05070  0.02650  0.13050  Biso   1.000  H
  C117     1.0000 0.97110  0.98830  0.12750  Biso   1.000  C
  H83      1.0000 0.95560  0.01330  0.09930  Biso   1.000  H
  C118     1.0000 0.93780  0.94460  0.14870  Biso   1.000  C
  H84      1.0000 0.89980  0.93900  0.13500  Biso   1.000  H
  C119     1.0000 0.96070  0.90860  0.19090  Biso   1.000  C
  H85      1.0000 0.93800  0.87770  0.20490  Biso   1.000  H
  Cu18     1.0000 0.15836  0.05151  0.21730  Biso   1.000  Cu
  Cl9      1.0000 0.13390  0.05890  0.31220  Biso   1.000  Cl
  O26      1.0000 0.14120  0.04730  0.31130  Biso   1.000  O
  O27      1.0000 0.01310  0.73980  0.29140  Biso   1.000  O
  N35      1.0000 0.88670  0.68330  0.38830  Biso   1.000  N
  N36      1.0000 0.93370  0.64710  0.29770  Biso   1.000  N
  C120     1.0000 0.96360  0.62830  0.25420  Biso   1.000  C
  H86      1.0000 0.73970  0.54560  0.40870  Biso   1.000  H
  C121     1.0000 0.00920  0.65920  0.22660  Biso   1.000  C
  C122     1.0000 0.03240  0.71260  0.24560  Biso   1.000  C
  C123     1.0000 0.71410  0.42170  0.26330  Biso   1.000  C
  H87      1.0000 0.72710  0.40460  0.22870  Biso   1.000  H
  C124     1.0000 0.66500  0.40140  0.28890  Biso   1.000  C
  H88      1.0000 0.64320  0.37240  0.27040  Biso   1.000  H
  C125     1.0000 0.64660  0.42350  0.34300  Biso   1.000  C
  H89      1.0000 0.61430  0.40760  0.36230  Biso   1.000  H
  C126     1.0000 0.67660  0.46820  0.36630  Biso   1.000  C
  H90      1.0000 0.66320  0.48460  0.40110  Biso   1.000  H
  Cu19     1.0000 0.85508  0.43550  0.23209  Biso   1.000  Cu
  O28      1.0000 0.89580  0.47120  0.29350  Biso   1.000  O
  N37      1.0000 0.82640  0.40360  0.15930  Biso   1.000  N
  N38      1.0000 0.91640  0.38070  0.21600  Biso   1.000  N
  C127     1.0000 0.96530  0.37710  0.24290  Biso   1.000  C
  H91      1.0000 0.99040  0.34660  0.23270  Biso   1.000  H
  C128     1.0000 0.98410  0.41640  0.28700  Biso   1.000  C
  C129     1.0000 0.94950  0.46180  0.30990  Biso   1.000  C
  C130     1.0000 0.97210  0.49700  0.35320  Biso   1.000  C
  H92      1.0000 0.94930  0.52650  0.36950  Biso   1.000  H
  C131     1.0000 0.02890  0.48830  0.37250  Biso   1.000  C
  H93      1.0000 0.04440  0.51330  0.40070  Biso   1.000  H
  C132     1.0000 0.06220  0.44460  0.35130  Biso   1.000  C
  H94      1.0000 0.10020  0.43900  0.36500  Biso   1.000  H
  C133     1.0000 0.03930  0.40860  0.30910  Biso   1.000  C
  H95      1.0000 0.06200  0.37770  0.29510  Biso   1.000  H
  Cu20     1.0000 0.84164  0.55151  0.28270  Biso   1.000  Cu
  Cl10     1.0000 0.86610  0.55890  0.18780  Biso   1.000  Cl
  O29      1.0000 0.85880  0.54730  0.18870  Biso   1.000  O
  O30      1.0000 0.98690  0.23980  0.20860  Biso   1.000  O
  N39      1.0000 0.11330  0.18330  0.11170  Biso   1.000  N
  N40      1.0000 0.06630  0.14710  0.20230  Biso   1.000  N
  C134     1.0000 0.03640  0.12830  0.24580  Biso   1.000  C
  H96      1.0000 0.26030  0.04560  0.09130  Biso   1.000  H
  C135     1.0000 0.99080  0.15920  0.27340  Biso   1.000  C
  C136     1.0000 0.96760  0.21260  0.25440  Biso   1.000  C
  C137     1.0000 0.28590  0.92170  0.23670  Biso   1.000  C
  H97      1.0000 0.27290  0.90460  0.27130  Biso   1.000  H
  C138     1.0000 0.33500  0.90140  0.21110  Biso   1.000  C
  H98      1.0000 0.35680  0.87240  0.22960  Biso   1.000  H
  C139     1.0000 0.35340  0.92350  0.15700  Biso   1.000  C
  H99      1.0000 0.38570  0.90760  0.13770  Biso   1.000  H
  C140     1.0000 0.32340  0.96820  0.13370  Biso   1.000  C
  H100     1.0000 0.33680  0.98460  0.09890  Biso   1.000  H
  Cu21     1.0000 0.64492  0.56450  0.73209  Biso   1.000  Cu
  O31      1.0000 0.60420  0.52880  0.79350  Biso   1.000  O
  N41      1.0000 0.67360  0.59640  0.65930  Biso   1.000  N
  N42      1.0000 0.58360  0.61930  0.71600  Biso   1.000  N
  C141     1.0000 0.53470  0.62290  0.74290  Biso   1.000  C
  H101     1.0000 0.50960  0.65340  0.73270  Biso   1.000  H
  C142     1.0000 0.51590  0.58360  0.78700  Biso   1.000  C
  C143     1.0000 0.55050  0.53820  0.80990  Biso   1.000  C
  C144     1.0000 0.52790  0.50300  0.85320  Biso   1.000  C
  H102     1.0000 0.55070  0.47350  0.86950  Biso   1.000  H
  C145     1.0000 0.47110  0.51170  0.87250  Biso   1.000  C
  H103     1.0000 0.45560  0.48670  0.90070  Biso   1.000  H
  C146     1.0000 0.43780  0.55540  0.85130  Biso   1.000  C
  H104     1.0000 0.39980  0.56100  0.86500  Biso   1.000  H
  C147     1.0000 0.46070  0.59140  0.80910  Biso   1.000  C
  H105     1.0000 0.43800  0.62230  0.79510  Biso   1.000  H
  Cu22     1.0000 0.65836  0.44849  0.78270  Biso   1.000  Cu
  Cl11     1.0000 0.63390  0.44110  0.68780  Biso   1.000  Cl
  O32      1.0000 0.64120  0.45270  0.68870  Biso   1.000  O
  O33      1.0000 0.51310  0.76020  0.70860  Biso   1.000  O
  N43      1.0000 0.38670  0.81670  0.61170  Biso   1.000  N
  N44      1.0000 0.43370  0.85290  0.70230  Biso   1.000  N
  C148     1.0000 0.46360  0.87170  0.74580  Biso   1.000  C
  H106     1.0000 0.23970  0.95440  0.59130  Biso   1.000  H
  C149     1.0000 0.50920  0.84080  0.77340  Biso   1.000  C
  C150     1.0000 0.53240  0.78740  0.75440  Biso   1.000  C
  C151     1.0000 0.21410  0.07830  0.73670  Biso   1.000  C
  H107     1.0000 0.22710  0.09540  0.77130  Biso   1.000  H
  C152     1.0000 0.16500  0.09860  0.71110  Biso   1.000  C
  H108     1.0000 0.14320  0.12760  0.72960  Biso   1.000  H
  C153     1.0000 0.14660  0.07650  0.65700  Biso   1.000  C
  H109     1.0000 0.11430  0.09240  0.63770  Biso   1.000  H
  C154     1.0000 0.17660  0.03180  0.63370  Biso   1.000  C
  H110     1.0000 0.16320  0.01540  0.59890  Biso   1.000  H
  Cu23     1.0000 0.35508  0.06450  0.76791  Biso   1.000  Cu
  O34      1.0000 0.39580  0.02880  0.70650  Biso   1.000  O
  N45      1.0000 0.32640  0.09640  0.84070  Biso   1.000  N
  N46      1.0000 0.41640  0.11930  0.78400  Biso   1.000  N
  C155     1.0000 0.46530  0.12290  0.75710  Biso   1.000  C
  H111     1.0000 0.49040  0.15340  0.76730  Biso   1.000  H
  C156     1.0000 0.48410  0.08360  0.71300  Biso   1.000  C
  C157     1.0000 0.44950  0.03820  0.69010  Biso   1.000  C
  C158     1.0000 0.47210  0.00300  0.64680  Biso   1.000  C
  H112     1.0000 0.44930  0.97350  0.63050  Biso   1.000  H
  C159     1.0000 0.52890  0.01170  0.62750  Biso   1.000  C
  H113     1.0000 0.54440  0.98670  0.59930  Biso   1.000  H
  C160     1.0000 0.56220  0.05540  0.64870  Biso   1.000  C
  H114     1.0000 0.60020  0.06100  0.63500  Biso   1.000  H
  C161     1.0000 0.53930  0.09140  0.69090  Biso   1.000  C
  H115     1.0000 0.56200  0.12230  0.70490  Biso   1.000  H
  Cu24     1.0000 0.34164  0.94849  0.71730  Biso   1.000  Cu
  Cl12     1.0000 0.36610  0.94110  0.81220  Biso   1.000  Cl
  O35      1.0000 0.35880  0.95270  0.81130  Biso   1.000  O
  O36      1.0000 0.48690  0.26020  0.79140  Biso   1.000  O
  N47      1.0000 0.61330  0.31670  0.88830  Biso   1.000  N
  N48      1.0000 0.56630  0.35290  0.79770  Biso   1.000  N
  C162     1.0000 0.53640  0.37170  0.75420  Biso   1.000  C
  H116     1.0000 0.76030  0.45440  0.90870  Biso   1.000  H
  C163     1.0000 0.49080  0.34080  0.72660  Biso   1.000  C
  C164     1.0000 0.46760  0.28740  0.74560  Biso   1.000  C
  C165     1.0000 0.78590  0.57830  0.76330  Biso   1.000  C
  H117     1.0000 0.77290  0.59540  0.72870  Biso   1.000  H
  C166     1.0000 0.83500  0.59860  0.78890  Biso   1.000  C
  H118     1.0000 0.85680  0.62760  0.77040  Biso   1.000  H
  C167     1.0000 0.85340  0.57650  0.84300  Biso   1.000  C
  H119     1.0000 0.88570  0.59240  0.86230  Biso   1.000  H
  C168     1.0000 0.82340  0.53180  0.86630  Biso   1.000  C
  H120     1.0000 0.83680  0.51540  0.90110  Biso   1.000  H
  C169     1.0000 0.35650  0.14350  0.85650  Biso   1.000  C
  C170     1.0000 0.14350  0.85650  0.35650  Biso   1.000  C
  C171     1.0000 0.64350  0.64350  0.64350  Biso   1.000  C
  C172     1.0000 0.85650  0.35650  0.14350  Biso   1.000  C
  C173     1.0000 0.36340  0.86340  0.63660  Biso   1.000  C
  C174     1.0000 0.13660  0.13660  0.13660  Biso   1.000  C
  C175     1.0000 0.63660  0.36340  0.86340  Biso   1.000  C
  C176     1.0000 0.86340  0.63660  0.36340  Biso   1.000  C
  Cu25     1.0000 0.73209  0.85508  0.06450  Biso   1.000  Cu
  O37      1.0000 0.79350  0.89580  0.02880  Biso   1.000  O
  N49      1.0000 0.65930  0.82640  0.09640  Biso   1.000  N
  N50      1.0000 0.71600  0.91640  0.11930  Biso   1.000  N
  C177     1.0000 0.74290  0.96530  0.12290  Biso   1.000  C
  H121     1.0000 0.73270  0.99040  0.15340  Biso   1.000  H
  C178     1.0000 0.78700  0.98410  0.08360  Biso   1.000  C
  C179     1.0000 0.80990  0.94950  0.03820  Biso   1.000  C
  C180     1.0000 0.85320  0.97210  0.00300  Biso   1.000  C
  H122     1.0000 0.86950  0.94930  0.97350  Biso   1.000  H
  C181     1.0000 0.87250  0.02890  0.01170  Biso   1.000  C
  H123     1.0000 0.90070  0.04440  0.98670  Biso   1.000  H
  C182     1.0000 0.85130  0.06220  0.05540  Biso   1.000  C
  H124     1.0000 0.86500  0.10020  0.06100  Biso   1.000  H
  C183     1.0000 0.80910  0.03930  0.09140  Biso   1.000  C
  H125     1.0000 0.79510  0.06200  0.12230  Biso   1.000  H
  Cu26     1.0000 0.78270  0.84164  0.94849  Biso   1.000  Cu
  Cl13     1.0000 0.68780  0.86610  0.94110  Biso   1.000  Cl
  O38      1.0000 0.68870  0.85880  0.95270  Biso   1.000  O
  O39      1.0000 0.70860  0.98690  0.26020  Biso   1.000  O
  N51      1.0000 0.61170  0.11330  0.31670  Biso   1.000  N
  N52      1.0000 0.70230  0.06630  0.35290  Biso   1.000  N
  C184     1.0000 0.74580  0.03640  0.37170  Biso   1.000  C
  H126     1.0000 0.59130  0.26030  0.45440  Biso   1.000  H
  C185     1.0000 0.77340  0.99080  0.34080  Biso   1.000  C
  C186     1.0000 0.75440  0.96760  0.28740  Biso   1.000  C
  C187     1.0000 0.73670  0.28590  0.57830  Biso   1.000  C
  H127     1.0000 0.77130  0.27290  0.59540  Biso   1.000  H
  C188     1.0000 0.71110  0.33500  0.59860  Biso   1.000  C
  H128     1.0000 0.72960  0.35680  0.62760  Biso   1.000  H
  C189     1.0000 0.65700  0.35340  0.57650  Biso   1.000  C
  H129     1.0000 0.63770  0.38570  0.59240  Biso   1.000  H
  C190     1.0000 0.63370  0.32340  0.53180  Biso   1.000  C
  H130     1.0000 0.59890  0.33680  0.51540  Biso   1.000  H
  Cu27     1.0000 0.76791  0.14492  0.56450  Biso   1.000  Cu
  O40      1.0000 0.70650  0.10420  0.52880  Biso   1.000  O
  N53      1.0000 0.84070  0.17360  0.59640  Biso   1.000  N
  N54      1.0000 0.78400  0.08360  0.61930  Biso   1.000  N
  C191     1.0000 0.75710  0.03470  0.62290  Biso   1.000  C
  H131     1.0000 0.76730  0.00960  0.65340  Biso   1.000  H
  C192     1.0000 0.71300  0.01590  0.58360  Biso   1.000  C
  C193     1.0000 0.69010  0.05050  0.53820  Biso   1.000  C
  C194     1.0000 0.64680  0.02790  0.50300  Biso   1.000  C
  H132     1.0000 0.63050  0.05070  0.47350  Biso   1.000  H
  C195     1.0000 0.62750  0.97110  0.51170  Biso   1.000  C
  H133     1.0000 0.59930  0.95560  0.48670  Biso   1.000  H
  C196     1.0000 0.64870  0.93780  0.55540  Biso   1.000  C
  H134     1.0000 0.63500  0.89980  0.56100  Biso   1.000  H
  C197     1.0000 0.69090  0.96070  0.59140  Biso   1.000  C
  H135     1.0000 0.70490  0.93800  0.62230  Biso   1.000  H
  Cu28     1.0000 0.71730  0.15836  0.44849  Biso   1.000  Cu
  Cl14     1.0000 0.81220  0.13390  0.44110  Biso   1.000  Cl
  O41      1.0000 0.81130  0.14120  0.45270  Biso   1.000  O
  O42      1.0000 0.79140  0.01310  0.76020  Biso   1.000  O
  N55      1.0000 0.88830  0.88670  0.81670  Biso   1.000  N
  N56      1.0000 0.79770  0.93370  0.85290  Biso   1.000  N
  C198     1.0000 0.75420  0.96360  0.87170  Biso   1.000  C
  H136     1.0000 0.90870  0.73970  0.95440  Biso   1.000  H
  C199     1.0000 0.72660  0.00920  0.84080  Biso   1.000  C
  C200     1.0000 0.74560  0.03240  0.78740  Biso   1.000  C
  C201     1.0000 0.76330  0.71410  0.07830  Biso   1.000  C
  H137     1.0000 0.72870  0.72710  0.09540  Biso   1.000  H
  C202     1.0000 0.78890  0.66500  0.09860  Biso   1.000  C
  H138     1.0000 0.77040  0.64320  0.12760  Biso   1.000  H
  C203     1.0000 0.84300  0.64660  0.07650  Biso   1.000  C
  H139     1.0000 0.86230  0.61430  0.09240  Biso   1.000  H
  C204     1.0000 0.86630  0.67660  0.03180  Biso   1.000  C
  H140     1.0000 0.90110  0.66320  0.01540  Biso   1.000  H
  Cu29     1.0000 0.26791  0.35508  0.43550  Biso   1.000  Cu
  O43      1.0000 0.20650  0.39580  0.47120  Biso   1.000  O
  N57      1.0000 0.34070  0.32640  0.40360  Biso   1.000  N
  N58      1.0000 0.28400  0.41640  0.38070  Biso   1.000  N
  C205     1.0000 0.25710  0.46530  0.37710  Biso   1.000  C
  H141     1.0000 0.26730  0.49040  0.34660  Biso   1.000  H
  C206     1.0000 0.21300  0.48410  0.41640  Biso   1.000  C
  C207     1.0000 0.19010  0.44950  0.46180  Biso   1.000  C
  C208     1.0000 0.14680  0.47210  0.49700  Biso   1.000  C
  H142     1.0000 0.13050  0.44930  0.52650  Biso   1.000  H
  C209     1.0000 0.12750  0.52890  0.48830  Biso   1.000  C
  H143     1.0000 0.09930  0.54440  0.51330  Biso   1.000  H
  C210     1.0000 0.14870  0.56220  0.44460  Biso   1.000  C
  H144     1.0000 0.13500  0.60020  0.43900  Biso   1.000  H
  C211     1.0000 0.19090  0.53930  0.40860  Biso   1.000  C
  H145     1.0000 0.20490  0.56200  0.37770  Biso   1.000  H
  Cu30     1.0000 0.21730  0.34164  0.55151  Biso   1.000  Cu
  Cl15     1.0000 0.31220  0.36610  0.55890  Biso   1.000  Cl
  O44      1.0000 0.31130  0.35880  0.54730  Biso   1.000  O
  O45      1.0000 0.29140  0.48690  0.23980  Biso   1.000  O
  N59      1.0000 0.38830  0.61330  0.18330  Biso   1.000  N
  N60      1.0000 0.29770  0.56630  0.14710  Biso   1.000  N
  C212     1.0000 0.25420  0.53640  0.12830  Biso   1.000  C
  H146     1.0000 0.40870  0.76030  0.04560  Biso   1.000  H
  C213     1.0000 0.22660  0.49080  0.15920  Biso   1.000  C
  C214     1.0000 0.24560  0.46760  0.21260  Biso   1.000  C
  C215     1.0000 0.26330  0.78590  0.92170  Biso   1.000  C
  H147     1.0000 0.22870  0.77290  0.90460  Biso   1.000  H
  C216     1.0000 0.28890  0.83500  0.90140  Biso   1.000  C
  H148     1.0000 0.27040  0.85680  0.87240  Biso   1.000  H
  C217     1.0000 0.34300  0.85340  0.92350  Biso   1.000  C
  H149     1.0000 0.36230  0.88570  0.90760  Biso   1.000  H
  C218     1.0000 0.36630  0.82340  0.96820  Biso   1.000  C
  H150     1.0000 0.40110  0.83680  0.98460  Biso   1.000  H
  Cu31     1.0000 0.23209  0.64492  0.93550  Biso   1.000  Cu
  O46      1.0000 0.29350  0.60420  0.97120  Biso   1.000  O
  N61      1.0000 0.15930  0.67360  0.90360  Biso   1.000  N
  N62      1.0000 0.21600  0.58360  0.88070  Biso   1.000  N
  C219     1.0000 0.24290  0.53470  0.87710  Biso   1.000  C
  H151     1.0000 0.23270  0.50960  0.84660  Biso   1.000  H
  C220     1.0000 0.28700  0.51590  0.91640  Biso   1.000  C
  C221     1.0000 0.30990  0.55050  0.96180  Biso   1.000  C
  C222     1.0000 0.35320  0.52790  0.99700  Biso   1.000  C
  H152     1.0000 0.36950  0.55070  0.02650  Biso   1.000  H
  C223     1.0000 0.37250  0.47110  0.98830  Biso   1.000  C
  H153     1.0000 0.40070  0.45560  0.01330  Biso   1.000  H
  C224     1.0000 0.35130  0.43780  0.94460  Biso   1.000  C
  H154     1.0000 0.36500  0.39980  0.93900  Biso   1.000  H
  C225     1.0000 0.30910  0.46070  0.90860  Biso   1.000  C
  H155     1.0000 0.29510  0.43800  0.87770  Biso   1.000  H
  Cu32     1.0000 0.28270  0.65836  0.05151  Biso   1.000  Cu
  Cl16     1.0000 0.18780  0.63390  0.05890  Biso   1.000  Cl
  O47      1.0000 0.18870  0.64120  0.04730  Biso   1.000  O
  O48      1.0000 0.20860  0.51310  0.73980  Biso   1.000  O
  N63      1.0000 0.11170  0.38670  0.68330  Biso   1.000  N
  N64      1.0000 0.20230  0.43370  0.64710  Biso   1.000  N
  C226     1.0000 0.24580  0.46360  0.62830  Biso   1.000  C
  H156     1.0000 0.09130  0.23970  0.54560  Biso   1.000  H
  C227     1.0000 0.27340  0.50920  0.65920  Biso   1.000  C
  C228     1.0000 0.25440  0.53240  0.71260  Biso   1.000  C
  C229     1.0000 0.23670  0.21410  0.42170  Biso   1.000  C
  H157     1.0000 0.27130  0.22710  0.40460  Biso   1.000  H
  C230     1.0000 0.21110  0.16500  0.40140  Biso   1.000  C
  H158     1.0000 0.22960  0.14320  0.37240  Biso   1.000  H
  C231     1.0000 0.15700  0.14660  0.42350  Biso   1.000  C
  H159     1.0000 0.13770  0.11430  0.40760  Biso   1.000  H
  C232     1.0000 0.13370  0.17660  0.46820  Biso   1.000  C
  H160     1.0000 0.09890  0.16320  0.48460  Biso   1.000  H
  Cu33     1.0000 0.06450  0.73209  0.85508  Biso   1.000  Cu
  O49      1.0000 0.02880  0.79350  0.89580  Biso   1.000  O
  N65      1.0000 0.09640  0.65930  0.82640  Biso   1.000  N
  N66      1.0000 0.11930  0.71600  0.91640  Biso   1.000  N
  C233     1.0000 0.12290  0.74290  0.96530  Biso   1.000  C
  H161     1.0000 0.15340  0.73270  0.99040  Biso   1.000  H
  C234     1.0000 0.08360  0.78700  0.98410  Biso   1.000  C
  C235     1.0000 0.03820  0.80990  0.94950  Biso   1.000  C
  C236     1.0000 0.00300  0.85320  0.97210  Biso   1.000  C
  H162     1.0000 0.97350  0.86950  0.94930  Biso   1.000  H
  C237     1.0000 0.01170  0.87250  0.02890  Biso   1.000  C
  H163     1.0000 0.98670  0.90070  0.04440  Biso   1.000  H
  C238     1.0000 0.05540  0.85130  0.06220  Biso   1.000  C
  H164     1.0000 0.06100  0.86500  0.10020  Biso   1.000  H
  C239     1.0000 0.09140  0.80910  0.03930  Biso   1.000  C
  H165     1.0000 0.12230  0.79510  0.06200  Biso   1.000  H
  Cu34     1.0000 0.94849  0.78270  0.84164  Biso   1.000  Cu
  Cl17     1.0000 0.94110  0.68780  0.86610  Biso   1.000  Cl
  O50      1.0000 0.95270  0.68870  0.85880  Biso   1.000  O
  O51      1.0000 0.26020  0.70860  0.98690  Biso   1.000  O
  N67      1.0000 0.31670  0.61170  0.11330  Biso   1.000  N
  N68      1.0000 0.35290  0.70230  0.06630  Biso   1.000  N
  C240     1.0000 0.37170  0.74580  0.03640  Biso   1.000  C
  H166     1.0000 0.45440  0.59130  0.26030  Biso   1.000  H
  C241     1.0000 0.34080  0.77340  0.99080  Biso   1.000  C
  C242     1.0000 0.28740  0.75440  0.96760  Biso   1.000  C
  C243     1.0000 0.57830  0.73670  0.28590  Biso   1.000  C
  H167     1.0000 0.59540  0.77130  0.27290  Biso   1.000  H
  C244     1.0000 0.59860  0.71110  0.33500  Biso   1.000  C
  H168     1.0000 0.62760  0.72960  0.35680  Biso   1.000  H
  C245     1.0000 0.57650  0.65700  0.35340  Biso   1.000  C
  H169     1.0000 0.59240  0.63770  0.38570  Biso   1.000  H
  C246     1.0000 0.53180  0.63370  0.32340  Biso   1.000  C
  H170     1.0000 0.51540  0.59890  0.33680  Biso   1.000  H
  Cu35     1.0000 0.56450  0.76791  0.14492  Biso   1.000  Cu
  O52      1.0000 0.52880  0.70650  0.10420  Biso   1.000  O
  N69      1.0000 0.59640  0.84070  0.17360  Biso   1.000  N
  N70      1.0000 0.61930  0.78400  0.08360  Biso   1.000  N
  C247     1.0000 0.62290  0.75710  0.03470  Biso   1.000  C
  H171     1.0000 0.65340  0.76730  0.00960  Biso   1.000  H
  C248     1.0000 0.58360  0.71300  0.01590  Biso   1.000  C
  C249     1.0000 0.53820  0.69010  0.05050  Biso   1.000  C
  C250     1.0000 0.50300  0.64680  0.02790  Biso   1.000  C
  H172     1.0000 0.47350  0.63050  0.05070  Biso   1.000  H
  C251     1.0000 0.51170  0.62750  0.97110  Biso   1.000  C
  H173     1.0000 0.48670  0.59930  0.95560  Biso   1.000  H
  C252     1.0000 0.55540  0.64870  0.93780  Biso   1.000  C
  H174     1.0000 0.56100  0.63500  0.89980  Biso   1.000  H
  C253     1.0000 0.59140  0.69090  0.96070  Biso   1.000  C
  H175     1.0000 0.62230  0.70490  0.93800  Biso   1.000  H
  Cu36     1.0000 0.44849  0.71730  0.15836  Biso   1.000  Cu
  Cl18     1.0000 0.44110  0.81220  0.13390  Biso   1.000  Cl
  O53      1.0000 0.45270  0.81130  0.14120  Biso   1.000  O
  O54      1.0000 0.76020  0.79140  0.01310  Biso   1.000  O
  N71      1.0000 0.81670  0.88830  0.88670  Biso   1.000  N
  N72      1.0000 0.85290  0.79770  0.93370  Biso   1.000  N
  C254     1.0000 0.87170  0.75420  0.96360  Biso   1.000  C
  H176     1.0000 0.95440  0.90870  0.73970  Biso   1.000  H
  C255     1.0000 0.84080  0.72660  0.00920  Biso   1.000  C
  C256     1.0000 0.78740  0.74560  0.03240  Biso   1.000  C
  C257     1.0000 0.07830  0.76330  0.71410  Biso   1.000  C
  H177     1.0000 0.09540  0.72870  0.72710  Biso   1.000  H
  C258     1.0000 0.09860  0.78890  0.66500  Biso   1.000  C
  H178     1.0000 0.12760  0.77040  0.64320  Biso   1.000  H
  C259     1.0000 0.07650  0.84300  0.64660  Biso   1.000  C
  H179     1.0000 0.09240  0.86230  0.61430  Biso   1.000  H
  C260     1.0000 0.03180  0.86630  0.67660  Biso   1.000  C
  H180     1.0000 0.01540  0.90110  0.66320  Biso   1.000  H
  Cu37     1.0000 0.43550  0.26791  0.35508  Biso   1.000  Cu
  O55      1.0000 0.47120  0.20650  0.39580  Biso   1.000  O
  N73      1.0000 0.40360  0.34070  0.32640  Biso   1.000  N
  N74      1.0000 0.38070  0.28400  0.41640  Biso   1.000  N
  C261     1.0000 0.37710  0.25710  0.46530  Biso   1.000  C
  H181     1.0000 0.34660  0.26730  0.49040  Biso   1.000  H
  C262     1.0000 0.41640  0.21300  0.48410  Biso   1.000  C
  C263     1.0000 0.46180  0.19010  0.44950  Biso   1.000  C
  C264     1.0000 0.49700  0.14680  0.47210  Biso   1.000  C
  H182     1.0000 0.52650  0.13050  0.44930  Biso   1.000  H
  C265     1.0000 0.48830  0.12750  0.52890  Biso   1.000  C
  H183     1.0000 0.51330  0.09930  0.54440  Biso   1.000  H
  C266     1.0000 0.44460  0.14870  0.56220  Biso   1.000  C
  H184     1.0000 0.43900  0.13500  0.60020  Biso   1.000  H
  C267     1.0000 0.40860  0.19090  0.53930  Biso   1.000  C
  H185     1.0000 0.37770  0.20490  0.56200  Biso   1.000  H
  Cu38     1.0000 0.55151  0.21730  0.34164  Biso   1.000  Cu
  Cl19     1.0000 0.55890  0.31220  0.36610  Biso   1.000  Cl
  O56      1.0000 0.54730  0.31130  0.35880  Biso   1.000  O
  O57      1.0000 0.23980  0.29140  0.48690  Biso   1.000  O
  N75      1.0000 0.18330  0.38830  0.61330  Biso   1.000  N
  N76      1.0000 0.14710  0.29770  0.56630  Biso   1.000  N
  C268     1.0000 0.12830  0.25420  0.53640  Biso   1.000  C
  H186     1.0000 0.04560  0.40870  0.76030  Biso   1.000  H
  C269     1.0000 0.15920  0.22660  0.49080  Biso   1.000  C
  C270     1.0000 0.21260  0.24560  0.46760  Biso   1.000  C
  C271     1.0000 0.92170  0.26330  0.78590  Biso   1.000  C
  H187     1.0000 0.90460  0.22870  0.77290  Biso   1.000  H
  C272     1.0000 0.90140  0.28890  0.83500  Biso   1.000  C
  H188     1.0000 0.87240  0.27040  0.85680  Biso   1.000  H
  C273     1.0000 0.92350  0.34300  0.85340  Biso   1.000  C
  H189     1.0000 0.90760  0.36230  0.88570  Biso   1.000  H
  C274     1.0000 0.96820  0.36630  0.82340  Biso   1.000  C
  H190     1.0000 0.98460  0.40110  0.83680  Biso   1.000  H
  Cu39     1.0000 0.93550  0.23209  0.64492  Biso   1.000  Cu
  O58      1.0000 0.97120  0.29350  0.60420  Biso   1.000  O
  N77      1.0000 0.90360  0.15930  0.67360  Biso   1.000  N
  N78      1.0000 0.88070  0.21600  0.58360  Biso   1.000  N
  C275     1.0000 0.87710  0.24290  0.53470  Biso   1.000  C
  H191     1.0000 0.84660  0.23270  0.50960  Biso   1.000  H
  C276     1.0000 0.91640  0.28700  0.51590  Biso   1.000  C
  C277     1.0000 0.96180  0.30990  0.55050  Biso   1.000  C
  C278     1.0000 0.99700  0.35320  0.52790  Biso   1.000  C
  H192     1.0000 0.02650  0.36950  0.55070  Biso   1.000  H
  C279     1.0000 0.98830  0.37250  0.47110  Biso   1.000  C
  H193     1.0000 0.01330  0.40070  0.45560  Biso   1.000  H
  C280     1.0000 0.94460  0.35130  0.43780  Biso   1.000  C
  H194     1.0000 0.93900  0.36500  0.39980  Biso   1.000  H
  C281     1.0000 0.90860  0.30910  0.46070  Biso   1.000  C
  H195     1.0000 0.87770  0.29510  0.43800  Biso   1.000  H
  Cu40     1.0000 0.05151  0.28270  0.65836  Biso   1.000  Cu
  Cl20     1.0000 0.05890  0.18780  0.63390  Biso   1.000  Cl
  O59      1.0000 0.04730  0.18870  0.64120  Biso   1.000  O
  O60      1.0000 0.73980  0.20860  0.51310  Biso   1.000  O
  N79      1.0000 0.68330  0.11170  0.38670  Biso   1.000  N
  N80      1.0000 0.64710  0.20230  0.43370  Biso   1.000  N
  C282     1.0000 0.62830  0.24580  0.46360  Biso   1.000  C
  H196     1.0000 0.54560  0.09130  0.23970  Biso   1.000  H
  C283     1.0000 0.65920  0.27340  0.50920  Biso   1.000  C
  C284     1.0000 0.71260  0.25440  0.53240  Biso   1.000  C
  C285     1.0000 0.42170  0.23670  0.21410  Biso   1.000  C
  H197     1.0000 0.40460  0.27130  0.22710  Biso   1.000  H
  C286     1.0000 0.40140  0.21110  0.16500  Biso   1.000  C
  H198     1.0000 0.37240  0.22960  0.14320  Biso   1.000  H
  C287     1.0000 0.42350  0.15700  0.14660  Biso   1.000  C
  H199     1.0000 0.40760  0.13770  0.11430  Biso   1.000  H
  C288     1.0000 0.46820  0.13370  0.17660  Biso   1.000  C
  H200     1.0000 0.48460  0.09890  0.16320  Biso   1.000  H
  Cu41     1.0000 0.85508  0.06450  0.73209  Biso   1.000  Cu
  O61      1.0000 0.89580  0.02880  0.79350  Biso   1.000  O
  N81      1.0000 0.82640  0.09640  0.65930  Biso   1.000  N
  N82      1.0000 0.91640  0.11930  0.71600  Biso   1.000  N
  C289     1.0000 0.96530  0.12290  0.74290  Biso   1.000  C
  H201     1.0000 0.99040  0.15340  0.73270  Biso   1.000  H
  C290     1.0000 0.98410  0.08360  0.78700  Biso   1.000  C
  C291     1.0000 0.94950  0.03820  0.80990  Biso   1.000  C
  C292     1.0000 0.97210  0.00300  0.85320  Biso   1.000  C
  H202     1.0000 0.94930  0.97350  0.86950  Biso   1.000  H
  C293     1.0000 0.02890  0.01170  0.87250  Biso   1.000  C
  H203     1.0000 0.04440  0.98670  0.90070  Biso   1.000  H
  C294     1.0000 0.06220  0.05540  0.85130  Biso   1.000  C
  H204     1.0000 0.10020  0.06100  0.86500  Biso   1.000  H
  C295     1.0000 0.03930  0.09140  0.80910  Biso   1.000  C
  H205     1.0000 0.06200  0.12230  0.79510  Biso   1.000  H
  Cu42     1.0000 0.84164  0.94849  0.78270  Biso   1.000  Cu
  Cl21     1.0000 0.86610  0.94110  0.68780  Biso   1.000  Cl
  O62      1.0000 0.85880  0.95270  0.68870  Biso   1.000  O
  O63      1.0000 0.98690  0.26020  0.70860  Biso   1.000  O
  N83      1.0000 0.11330  0.31670  0.61170  Biso   1.000  N
  N84      1.0000 0.06630  0.35290  0.70230  Biso   1.000  N
  C296     1.0000 0.03640  0.37170  0.74580  Biso   1.000  C
  H206     1.0000 0.26030  0.45440  0.59130  Biso   1.000  H
  C297     1.0000 0.99080  0.34080  0.77340  Biso   1.000  C
  C298     1.0000 0.96760  0.28740  0.75440  Biso   1.000  C
  C299     1.0000 0.28590  0.57830  0.73670  Biso   1.000  C
  H207     1.0000 0.27290  0.59540  0.77130  Biso   1.000  H
  C300     1.0000 0.33500  0.59860  0.71110  Biso   1.000  C
  H208     1.0000 0.35680  0.62760  0.72960  Biso   1.000  H
  C301     1.0000 0.35340  0.57650  0.65700  Biso   1.000  C
  H209     1.0000 0.38570  0.59240  0.63770  Biso   1.000  H
  C302     1.0000 0.32340  0.53180  0.63370  Biso   1.000  C
  H210     1.0000 0.33680  0.51540  0.59890  Biso   1.000  H
  Cu43     1.0000 0.14492  0.56450  0.76791  Biso   1.000  Cu
  O64      1.0000 0.10420  0.52880  0.70650  Biso   1.000  O
  N85      1.0000 0.17360  0.59640  0.84070  Biso   1.000  N
  N86      1.0000 0.08360  0.61930  0.78400  Biso   1.000  N
  C303     1.0000 0.03470  0.62290  0.75710  Biso   1.000  C
  H211     1.0000 0.00960  0.65340  0.76730  Biso   1.000  H
  C304     1.0000 0.01590  0.58360  0.71300  Biso   1.000  C
  C305     1.0000 0.05050  0.53820  0.69010  Biso   1.000  C
  C306     1.0000 0.02790  0.50300  0.64680  Biso   1.000  C
  H212     1.0000 0.05070  0.47350  0.63050  Biso   1.000  H
  C307     1.0000 0.97110  0.51170  0.62750  Biso   1.000  C
  H213     1.0000 0.95560  0.48670  0.59930  Biso   1.000  H
  C308     1.0000 0.93780  0.55540  0.64870  Biso   1.000  C
  H214     1.0000 0.89980  0.56100  0.63500  Biso   1.000  H
  C309     1.0000 0.96070  0.59140  0.69090  Biso   1.000  C
  H215     1.0000 0.93800  0.62230  0.70490  Biso   1.000  H
  Cu44     1.0000 0.15836  0.44849  0.71730  Biso   1.000  Cu
  Cl22     1.0000 0.13390  0.44110  0.81220  Biso   1.000  Cl
  O65      1.0000 0.14120  0.45270  0.81130  Biso   1.000  O
  O66      1.0000 0.01310  0.76020  0.79140  Biso   1.000  O
  N87      1.0000 0.88670  0.81670  0.88830  Biso   1.000  N
  N88      1.0000 0.93370  0.85290  0.79770  Biso   1.000  N
  C310     1.0000 0.96360  0.87170  0.75420  Biso   1.000  C
  H216     1.0000 0.73970  0.95440  0.90870  Biso   1.000  H
  C311     1.0000 0.00920  0.84080  0.72660  Biso   1.000  C
  C312     1.0000 0.03240  0.78740  0.74560  Biso   1.000  C
  C313     1.0000 0.71410  0.07830  0.76330  Biso   1.000  C
  H217     1.0000 0.72710  0.09540  0.72870  Biso   1.000  H
  C314     1.0000 0.66500  0.09860  0.78890  Biso   1.000  C
  H218     1.0000 0.64320  0.12760  0.77040  Biso   1.000  H
  C315     1.0000 0.64660  0.07650  0.84300  Biso   1.000  C
  H219     1.0000 0.61430  0.09240  0.86230  Biso   1.000  H
  C316     1.0000 0.67660  0.03180  0.86630  Biso   1.000  C
  H220     1.0000 0.66320  0.01540  0.90110  Biso   1.000  H
  Cu45     1.0000 0.35508  0.43550  0.26791  Biso   1.000  Cu
  O67      1.0000 0.39580  0.47120  0.20650  Biso   1.000  O
  N89      1.0000 0.32640  0.40360  0.34070  Biso   1.000  N
  N90      1.0000 0.41640  0.38070  0.28400  Biso   1.000  N
  C317     1.0000 0.46530  0.37710  0.25710  Biso   1.000  C
  H221     1.0000 0.49040  0.34660  0.26730  Biso   1.000  H
  C318     1.0000 0.48410  0.41640  0.21300  Biso   1.000  C
  C319     1.0000 0.44950  0.46180  0.19010  Biso   1.000  C
  C320     1.0000 0.47210  0.49700  0.14680  Biso   1.000  C
  H222     1.0000 0.44930  0.52650  0.13050  Biso   1.000  H
  C321     1.0000 0.52890  0.48830  0.12750  Biso   1.000  C
  H223     1.0000 0.54440  0.51330  0.09930  Biso   1.000  H
  C322     1.0000 0.56220  0.44460  0.14870  Biso   1.000  C
  H224     1.0000 0.60020  0.43900  0.13500  Biso   1.000  H
  C323     1.0000 0.53930  0.40860  0.19090  Biso   1.000  C
  H225     1.0000 0.56200  0.37770  0.20490  Biso   1.000  H
  Cu46     1.0000 0.34164  0.55151  0.21730  Biso   1.000  Cu
  Cl23     1.0000 0.36610  0.55890  0.31220  Biso   1.000  Cl
  O68      1.0000 0.35880  0.54730  0.31130  Biso   1.000  O
  O69      1.0000 0.48690  0.23980  0.29140  Biso   1.000  O
  N91      1.0000 0.61330  0.18330  0.38830  Biso   1.000  N
  N92      1.0000 0.56630  0.14710  0.29770  Biso   1.000  N
  C324     1.0000 0.53640  0.12830  0.25420  Biso   1.000  C
  H226     1.0000 0.76030  0.04560  0.40870  Biso   1.000  H
  C325     1.0000 0.49080  0.15920  0.22660  Biso   1.000  C
  C326     1.0000 0.46760  0.21260  0.24560  Biso   1.000  C
  C327     1.0000 0.78590  0.92170  0.26330  Biso   1.000  C
  H227     1.0000 0.77290  0.90460  0.22870  Biso   1.000  H
  C328     1.0000 0.83500  0.90140  0.28890  Biso   1.000  C
  H228     1.0000 0.85680  0.87240  0.27040  Biso   1.000  H
  C329     1.0000 0.85340  0.92350  0.34300  Biso   1.000  C
  H229     1.0000 0.88570  0.90760  0.36230  Biso   1.000  H
  C330     1.0000 0.82340  0.96820  0.36630  Biso   1.000  C
  H230     1.0000 0.83680  0.98460  0.40110  Biso   1.000  H
  Cu47     1.0000 0.64492  0.93550  0.23209  Biso   1.000  Cu
  O70      1.0000 0.60420  0.97120  0.29350  Biso   1.000  O
  N93      1.0000 0.67360  0.90360  0.15930  Biso   1.000  N
  N94      1.0000 0.58360  0.88070  0.21600  Biso   1.000  N
  C331     1.0000 0.53470  0.87710  0.24290  Biso   1.000  C
  H231     1.0000 0.50960  0.84660  0.23270  Biso   1.000  H
  C332     1.0000 0.51590  0.91640  0.28700  Biso   1.000  C
  C333     1.0000 0.55050  0.96180  0.30990  Biso   1.000  C
  C334     1.0000 0.52790  0.99700  0.35320  Biso   1.000  C
  H232     1.0000 0.55070  0.02650  0.36950  Biso   1.000  H
  C335     1.0000 0.47110  0.98830  0.37250  Biso   1.000  C
  H233     1.0000 0.45560  0.01330  0.40070  Biso   1.000  H
  C336     1.0000 0.43780  0.94460  0.35130  Biso   1.000  C
  H234     1.0000 0.39980  0.93900  0.36500  Biso   1.000  H
  C337     1.0000 0.46070  0.90860  0.30910  Biso   1.000  C
  H235     1.0000 0.43800  0.87770  0.29510  Biso   1.000  H
  Cu48     1.0000 0.65836  0.05151  0.28270  Biso   1.000  Cu
  Cl24     1.0000 0.63390  0.05890  0.18780  Biso   1.000  Cl
  O71      1.0000 0.64120  0.04730  0.18870  Biso   1.000  O
  O72      1.0000 0.51310  0.73980  0.20860  Biso   1.000  O
  N95      1.0000 0.38670  0.68330  0.11170  Biso   1.000  N
  N96      1.0000 0.43370  0.64710  0.20230  Biso   1.000  N
  C338     1.0000 0.46360  0.62830  0.24580  Biso   1.000  C
  H236     1.0000 0.23970  0.54560  0.09130  Biso   1.000  H
  C339     1.0000 0.50920  0.65920  0.27340  Biso   1.000  C
  C340     1.0000 0.53240  0.71260  0.25440  Biso   1.000  C
  C341     1.0000 0.21410  0.42170  0.23670  Biso   1.000  C
  H237     1.0000 0.22710  0.40460  0.27130  Biso   1.000  H
  C342     1.0000 0.16500  0.40140  0.21110  Biso   1.000  C
  H238     1.0000 0.14320  0.37240  0.22960  Biso   1.000  H
  C343     1.0000 0.14660  0.42350  0.15700  Biso   1.000  C
  H239     1.0000 0.11430  0.40760  0.13770  Biso   1.000  H
  C344     1.0000 0.17660  0.46820  0.13370  Biso   1.000  C
  H240     1.0000 0.16320  0.48460  0.09890  Biso   1.000  H
  C345     1.0000 0.64350  0.85650  0.14350  Biso   1.000  C
  C346     1.0000 0.85650  0.14350  0.64350  Biso   1.000  C
  C347     1.0000 0.35650  0.35650  0.35650  Biso   1.000  C
  C348     1.0000 0.14350  0.64350  0.85650  Biso   1.000  C
  C349     1.0000 0.63660  0.13660  0.36340  Biso   1.000  C
  C350     1.0000 0.86340  0.86340  0.86340  Biso   1.000  C
  C351     1.0000 0.36340  0.63660  0.13660  Biso   1.000  C
  C352     1.0000 0.13660  0.36340  0.63660  Biso   1.000  C
