data_YENLUA_ion_b
_audit_creation_date              2014-07-02
_audit_creation_method            'Materials Studio'
_symmetry_space_group_name_H-M    'P1'
_symmetry_Int_Tables_number       1
_symmetry_cell_setting            triclinic
loop_
_symmetry_equiv_pos_as_xyz
  x,y,z
_cell_length_a                    36.3320
_cell_length_b                    36.3320
_cell_length_c                    15.2080
_cell_angle_alpha                 90.0000
_cell_angle_beta                  90.0000
_cell_angle_gamma                 90.0000
loop_
_atom_site_label
_atom_site_type_symbol
_atom_site_fract_x
_atom_site_fract_y
_atom_site_fract_z
_atom_site_U_iso_or_equiv
_atom_site_adp_type
_atom_site_occupancy
C1     C     0.06980   0.35210   0.22260   0.00000  Uiso   1.00
C2     C     0.07370   0.32680   0.30160   0.00000  Uiso   1.00
C3     C     0.14570   0.42570   0.30380   0.00000  Uiso   1.00
C4     C     0.16320   0.43050   0.21350   0.00000  Uiso   1.00
C5     C     0.20600   0.30490   0.27970   0.00000  Uiso   1.00
C6     C     0.18760   0.29170   0.19230   0.00000  Uiso   1.00
C7     C     0.04560   0.29730   0.42180   0.00000  Uiso   1.00
C8     C     0.04730   0.25850   0.42010   0.00000  Uiso   1.00
C9     C     0.11610   0.45460   0.42240   0.00000  Uiso   1.00
C10    C     0.18500   0.24900   0.07840   0.00000  Uiso   1.00
C11    C     0.15720   0.22660   0.07930   0.00000  Uiso   1.00
C12    C     0.07810   0.45310   0.41940   0.00000  Uiso   1.00
C13    C     0.05710   0.44920   0.33530   0.00000  Uiso   1.00
H14    H     0.07380   0.45050   0.28650   0.00000  Uiso   1.00
H15    H     0.03930   0.46870   0.33090   0.00000  Uiso   1.00
H16    H     0.04460   0.42590   0.33460   0.00000  Uiso   1.00
C17    C     0.05170   0.23760   0.33530   0.00000  Uiso   1.00
H18    H     0.05070   0.25440   0.28670   0.00000  Uiso   1.00
H19    H     0.03210   0.21990   0.32990   0.00000  Uiso   1.00
H20    H     0.07490   0.22500   0.33510   0.00000  Uiso   1.00
C21    C     0.14170   0.20930   0.16340   0.00000  Uiso   1.00
H22    H     0.12100   0.19410   0.14890   0.00000  Uiso   1.00
H23    H     0.13400   0.22840   0.20300   0.00000  Uiso   1.00
H24    H     0.16030   0.19460   0.19100   0.00000  Uiso   1.00
Mn25   Mn    0.14727   0.35212   0.24824   0.00000  Uiso   1.00
N26    N     0.04470   0.31680   0.34140   0.00000  Uiso   1.00
N27    N     0.13700   0.45720   0.33930   0.00000  Uiso   1.00
N28    N     0.20110   0.26273   0.16010   0.00000  Uiso   1.00
O29    O     0.03610   0.35770   0.19970   0.00000  Uiso   1.00
O30    O     0.09710   0.36318   0.18280   0.00000  Uiso   1.00
O31    O     0.10720   0.31900   0.32460   0.00000  Uiso   1.00
O32    O     0.17110   0.46230   0.18930   0.00000  Uiso   1.00
O33    O     0.17300   0.40002   0.17570   0.00000  Uiso   1.00
O34    O     0.14020   0.39470   0.33240   0.00000  Uiso   1.00
O35    O     0.16130   0.31152   0.16390   0.00000  Uiso   1.00
O36    O     0.19320   0.33314   0.31500   0.00000  Uiso   1.00
O37    O     0.23110   0.28504   0.30890   0.00000  Uiso   1.00
C46    C     0.93020   0.64790   0.22260   0.00000  Uiso   1.00
C47    C     0.92630   0.67320   0.30160   0.00000  Uiso   1.00
C48    C     0.85430   0.57430   0.30380   0.00000  Uiso   1.00
C49    C     0.83680   0.56950   0.21350   0.00000  Uiso   1.00
C50    C     0.79400   0.69510   0.27970   0.00000  Uiso   1.00
C51    C     0.81240   0.70830   0.19230   0.00000  Uiso   1.00
C52    C     0.95440   0.70270   0.42180   0.00000  Uiso   1.00
C53    C     0.95270   0.74150   0.42010   0.00000  Uiso   1.00
C54    C     0.88390   0.54540   0.42240   0.00000  Uiso   1.00
C55    C     0.81500   0.75100   0.07840   0.00000  Uiso   1.00
C56    C     0.84280   0.77340   0.07930   0.00000  Uiso   1.00
C57    C     0.92190   0.54690   0.41940   0.00000  Uiso   1.00
C58    C     0.94290   0.55080   0.33530   0.00000  Uiso   1.00
H59    H     0.92620   0.54950   0.28650   0.00000  Uiso   1.00
H60    H     0.96070   0.53130   0.33090   0.00000  Uiso   1.00
H61    H     0.95540   0.57410   0.33460   0.00000  Uiso   1.00
C62    C     0.94830   0.76240   0.33530   0.00000  Uiso   1.00
H63    H     0.94930   0.74560   0.28670   0.00000  Uiso   1.00
H64    H     0.96790   0.78010   0.32990   0.00000  Uiso   1.00
H65    H     0.92510   0.77500   0.33510   0.00000  Uiso   1.00
C66    C     0.85830   0.79070   0.16340   0.00000  Uiso   1.00
H67    H     0.87900   0.80590   0.14890   0.00000  Uiso   1.00
H68    H     0.86600   0.77160   0.20300   0.00000  Uiso   1.00
H69    H     0.83970   0.80540   0.19100   0.00000  Uiso   1.00
Mn70   Mn    0.85273   0.64788   0.24824   0.00000  Uiso   1.00
N71    N     0.95530   0.68320   0.34140   0.00000  Uiso   1.00
N72    N     0.86300   0.54280   0.33930   0.00000  Uiso   1.00
N73    N     0.79890   0.73727   0.16010   0.00000  Uiso   1.00
O74    O     0.96390   0.64230   0.19970   0.00000  Uiso   1.00
O75    O     0.90290   0.63682   0.18280   0.00000  Uiso   1.00
O76    O     0.89280   0.68100   0.32460   0.00000  Uiso   1.00
O77    O     0.82890   0.53770   0.18930   0.00000  Uiso   1.00
O78    O     0.82700   0.59998   0.17570   0.00000  Uiso   1.00
O79    O     0.85980   0.60530   0.33240   0.00000  Uiso   1.00
O80    O     0.83870   0.68848   0.16390   0.00000  Uiso   1.00
O81    O     0.80680   0.66686   0.31500   0.00000  Uiso   1.00
O82    O     0.76890   0.71496   0.30890   0.00000  Uiso   1.00
C91    C     0.64790   0.06980   0.22260   0.00000  Uiso   1.00
C92    C     0.67320   0.07370   0.30160   0.00000  Uiso   1.00
C93    C     0.57430   0.14570   0.30380   0.00000  Uiso   1.00
C94    C     0.56950   0.16320   0.21350   0.00000  Uiso   1.00
C95    C     0.69510   0.20600   0.27970   0.00000  Uiso   1.00
C96    C     0.70830   0.18760   0.19230   0.00000  Uiso   1.00
C97    C     0.70270   0.04560   0.42180   0.00000  Uiso   1.00
C98    C     0.74150   0.04730   0.42010   0.00000  Uiso   1.00
C99    C     0.54540   0.11610   0.42240   0.00000  Uiso   1.00
C100   C     0.75100   0.18500   0.07840   0.00000  Uiso   1.00
C101   C     0.77340   0.15720   0.07930   0.00000  Uiso   1.00
C102   C     0.54690   0.07810   0.41940   0.00000  Uiso   1.00
C103   C     0.55080   0.05710   0.33530   0.00000  Uiso   1.00
H104   H     0.54950   0.07380   0.28650   0.00000  Uiso   1.00
H105   H     0.53130   0.03930   0.33090   0.00000  Uiso   1.00
H106   H     0.57410   0.04460   0.33460   0.00000  Uiso   1.00
C107   C     0.76240   0.05170   0.33530   0.00000  Uiso   1.00
H108   H     0.74560   0.05070   0.28670   0.00000  Uiso   1.00
H109   H     0.78010   0.03210   0.32990   0.00000  Uiso   1.00
H110   H     0.77500   0.07490   0.33510   0.00000  Uiso   1.00
C111   C     0.79070   0.14170   0.16340   0.00000  Uiso   1.00
H112   H     0.80590   0.12100   0.14890   0.00000  Uiso   1.00
H113   H     0.77160   0.13400   0.20300   0.00000  Uiso   1.00
H114   H     0.80540   0.16030   0.19100   0.00000  Uiso   1.00
Mn115  Mn    0.64788   0.14727   0.24824   0.00000  Uiso   1.00
N116   N     0.68320   0.04470   0.34140   0.00000  Uiso   1.00
N117   N     0.54280   0.13700   0.33930   0.00000  Uiso   1.00
N118   N     0.73727   0.20110   0.16010   0.00000  Uiso   1.00
O119   O     0.64230   0.03610   0.19970   0.00000  Uiso   1.00
O120   O     0.63682   0.09710   0.18280   0.00000  Uiso   1.00
O121   O     0.68100   0.10720   0.32460   0.00000  Uiso   1.00
O122   O     0.53770   0.17110   0.18930   0.00000  Uiso   1.00
O123   O     0.59998   0.17300   0.17570   0.00000  Uiso   1.00
O124   O     0.60530   0.14020   0.33240   0.00000  Uiso   1.00
O125   O     0.68848   0.16130   0.16390   0.00000  Uiso   1.00
O126   O     0.66686   0.19320   0.31500   0.00000  Uiso   1.00
O127   O     0.71496   0.23110   0.30890   0.00000  Uiso   1.00
C136   C     0.35210   0.93020   0.22260   0.00000  Uiso   1.00
C137   C     0.32680   0.92630   0.30160   0.00000  Uiso   1.00
C138   C     0.42570   0.85430   0.30380   0.00000  Uiso   1.00
C139   C     0.43050   0.83680   0.21350   0.00000  Uiso   1.00
C140   C     0.30490   0.79400   0.27970   0.00000  Uiso   1.00
C141   C     0.29170   0.81240   0.19230   0.00000  Uiso   1.00
C142   C     0.29730   0.95440   0.42180   0.00000  Uiso   1.00
C143   C     0.25850   0.95270   0.42010   0.00000  Uiso   1.00
C144   C     0.45460   0.88390   0.42240   0.00000  Uiso   1.00
C145   C     0.24900   0.81500   0.07840   0.00000  Uiso   1.00
C146   C     0.22660   0.84280   0.07930   0.00000  Uiso   1.00
C147   C     0.45310   0.92190   0.41940   0.00000  Uiso   1.00
C148   C     0.44920   0.94290   0.33530   0.00000  Uiso   1.00
H149   H     0.45050   0.92620   0.28650   0.00000  Uiso   1.00
H150   H     0.46870   0.96070   0.33090   0.00000  Uiso   1.00
H151   H     0.42590   0.95540   0.33460   0.00000  Uiso   1.00
C152   C     0.23760   0.94830   0.33530   0.00000  Uiso   1.00
H153   H     0.25440   0.94930   0.28670   0.00000  Uiso   1.00
H154   H     0.21990   0.96790   0.32990   0.00000  Uiso   1.00
H155   H     0.22500   0.92510   0.33510   0.00000  Uiso   1.00
C156   C     0.20930   0.85830   0.16340   0.00000  Uiso   1.00
H157   H     0.19410   0.87900   0.14890   0.00000  Uiso   1.00
H158   H     0.22840   0.86600   0.20300   0.00000  Uiso   1.00
H159   H     0.19460   0.83970   0.19100   0.00000  Uiso   1.00
Mn160  Mn    0.35212   0.85273   0.24824   0.00000  Uiso   1.00
N161   N     0.31680   0.95530   0.34140   0.00000  Uiso   1.00
N162   N     0.45720   0.86300   0.33930   0.00000  Uiso   1.00
N163   N     0.26273   0.79890   0.16010   0.00000  Uiso   1.00
O164   O     0.35770   0.96390   0.19970   0.00000  Uiso   1.00
O165   O     0.36318   0.90290   0.18280   0.00000  Uiso   1.00
O166   O     0.31900   0.89280   0.32460   0.00000  Uiso   1.00
O167   O     0.46230   0.82890   0.18930   0.00000  Uiso   1.00
O168   O     0.40002   0.82700   0.17570   0.00000  Uiso   1.00
O169   O     0.39470   0.85980   0.33240   0.00000  Uiso   1.00
O170   O     0.31152   0.83870   0.16390   0.00000  Uiso   1.00
O171   O     0.33314   0.80680   0.31500   0.00000  Uiso   1.00
O172   O     0.28504   0.76890   0.30890   0.00000  Uiso   1.00
C181   C     0.93020   0.35210   0.77740   0.00000  Uiso   1.00
C182   C     0.92630   0.32680   0.69840   0.00000  Uiso   1.00
C183   C     0.85430   0.42570   0.69620   0.00000  Uiso   1.00
C184   C     0.83680   0.43050   0.78650   0.00000  Uiso   1.00
C185   C     0.79400   0.30490   0.72030   0.00000  Uiso   1.00
C186   C     0.81240   0.29170   0.80770   0.00000  Uiso   1.00
C187   C     0.95440   0.29730   0.57820   0.00000  Uiso   1.00
C188   C     0.95270   0.25850   0.57990   0.00000  Uiso   1.00
C189   C     0.88390   0.45460   0.57760   0.00000  Uiso   1.00
C190   C     0.81500   0.24900   0.92160   0.00000  Uiso   1.00
C191   C     0.84280   0.22660   0.92070   0.00000  Uiso   1.00
C192   C     0.92190   0.45310   0.58060   0.00000  Uiso   1.00
C193   C     0.94290   0.44920   0.66470   0.00000  Uiso   1.00
H194   H     0.92620   0.45050   0.71350   0.00000  Uiso   1.00
H195   H     0.96070   0.46870   0.66910   0.00000  Uiso   1.00
H196   H     0.95540   0.42590   0.66540   0.00000  Uiso   1.00
C197   C     0.94830   0.23760   0.66470   0.00000  Uiso   1.00
H198   H     0.94930   0.25440   0.71330   0.00000  Uiso   1.00
H199   H     0.96790   0.21990   0.67010   0.00000  Uiso   1.00
H200   H     0.92510   0.22500   0.66490   0.00000  Uiso   1.00
C201   C     0.85830   0.20930   0.83660   0.00000  Uiso   1.00
H202   H     0.87900   0.19410   0.85110   0.00000  Uiso   1.00
H203   H     0.86600   0.22840   0.79700   0.00000  Uiso   1.00
H204   H     0.83970   0.19460   0.80900   0.00000  Uiso   1.00
Mn205  Mn    0.85273   0.35212   0.75176   0.00000  Uiso   1.00
N206   N     0.95530   0.31680   0.65860   0.00000  Uiso   1.00
N207   N     0.86300   0.45720   0.66070   0.00000  Uiso   1.00
N208   N     0.79890   0.26273   0.83990   0.00000  Uiso   1.00
O209   O     0.96390   0.35770   0.80030   0.00000  Uiso   1.00
O210   O     0.90290   0.36318   0.81720   0.00000  Uiso   1.00
O211   O     0.89280   0.31900   0.67540   0.00000  Uiso   1.00
O212   O     0.82890   0.46230   0.81070   0.00000  Uiso   1.00
O213   O     0.82700   0.40002   0.82430   0.00000  Uiso   1.00
O214   O     0.85980   0.39470   0.66760   0.00000  Uiso   1.00
O215   O     0.83870   0.31152   0.83610   0.00000  Uiso   1.00
O216   O     0.80680   0.33314   0.68500   0.00000  Uiso   1.00
O217   O     0.76890   0.28504   0.69110   0.00000  Uiso   1.00
C226   C     0.06980   0.64790   0.77740   0.00000  Uiso   1.00
C227   C     0.07370   0.67320   0.69840   0.00000  Uiso   1.00
C228   C     0.14570   0.57430   0.69620   0.00000  Uiso   1.00
C229   C     0.16320   0.56950   0.78650   0.00000  Uiso   1.00
C230   C     0.20600   0.69510   0.72030   0.00000  Uiso   1.00
C231   C     0.18760   0.70830   0.80770   0.00000  Uiso   1.00
C232   C     0.04560   0.70270   0.57820   0.00000  Uiso   1.00
C233   C     0.04730   0.74150   0.57990   0.00000  Uiso   1.00
C234   C     0.11610   0.54540   0.57760   0.00000  Uiso   1.00
C235   C     0.18500   0.75100   0.92160   0.00000  Uiso   1.00
C236   C     0.15720   0.77340   0.92070   0.00000  Uiso   1.00
C237   C     0.07810   0.54690   0.58060   0.00000  Uiso   1.00
C238   C     0.05710   0.55080   0.66470   0.00000  Uiso   1.00
H239   H     0.07380   0.54950   0.71350   0.00000  Uiso   1.00
H240   H     0.03930   0.53130   0.66910   0.00000  Uiso   1.00
H241   H     0.04460   0.57410   0.66540   0.00000  Uiso   1.00
C242   C     0.05170   0.76240   0.66470   0.00000  Uiso   1.00
H243   H     0.05070   0.74560   0.71330   0.00000  Uiso   1.00
H244   H     0.03210   0.78010   0.67010   0.00000  Uiso   1.00
H245   H     0.07490   0.77500   0.66490   0.00000  Uiso   1.00
C246   C     0.14170   0.79070   0.83660   0.00000  Uiso   1.00
H247   H     0.12100   0.80590   0.85110   0.00000  Uiso   1.00
H248   H     0.13400   0.77160   0.79700   0.00000  Uiso   1.00
H249   H     0.16030   0.80540   0.80900   0.00000  Uiso   1.00
Mn250  Mn    0.14727   0.64788   0.75176   0.00000  Uiso   1.00
N251   N     0.04470   0.68320   0.65860   0.00000  Uiso   1.00
N252   N     0.13700   0.54280   0.66070   0.00000  Uiso   1.00
N253   N     0.20110   0.73727   0.83990   0.00000  Uiso   1.00
O254   O     0.03610   0.64230   0.80030   0.00000  Uiso   1.00
O255   O     0.09710   0.63682   0.81720   0.00000  Uiso   1.00
O256   O     0.10720   0.68100   0.67540   0.00000  Uiso   1.00
O257   O     0.17110   0.53770   0.81070   0.00000  Uiso   1.00
O258   O     0.17300   0.59998   0.82430   0.00000  Uiso   1.00
O259   O     0.14020   0.60530   0.66760   0.00000  Uiso   1.00
O260   O     0.16130   0.68848   0.83610   0.00000  Uiso   1.00
O261   O     0.19320   0.66686   0.68500   0.00000  Uiso   1.00
O262   O     0.23110   0.71496   0.69110   0.00000  Uiso   1.00
C271   C     0.35210   0.06980   0.77740   0.00000  Uiso   1.00
C272   C     0.32680   0.07370   0.69840   0.00000  Uiso   1.00
C273   C     0.42570   0.14570   0.69620   0.00000  Uiso   1.00
C274   C     0.43050   0.16320   0.78650   0.00000  Uiso   1.00
C275   C     0.30490   0.20600   0.72030   0.00000  Uiso   1.00
C276   C     0.29170   0.18760   0.80770   0.00000  Uiso   1.00
C277   C     0.29730   0.04560   0.57820   0.00000  Uiso   1.00
C278   C     0.25850   0.04730   0.57990   0.00000  Uiso   1.00
C279   C     0.45460   0.11610   0.57760   0.00000  Uiso   1.00
C280   C     0.24900   0.18500   0.92160   0.00000  Uiso   1.00
C281   C     0.22660   0.15720   0.92070   0.00000  Uiso   1.00
C282   C     0.45310   0.07810   0.58060   0.00000  Uiso   1.00
C283   C     0.44920   0.05710   0.66470   0.00000  Uiso   1.00
H284   H     0.45050   0.07380   0.71350   0.00000  Uiso   1.00
H285   H     0.46870   0.03930   0.66910   0.00000  Uiso   1.00
H286   H     0.42590   0.04460   0.66540   0.00000  Uiso   1.00
C287   C     0.23760   0.05170   0.66470   0.00000  Uiso   1.00
H288   H     0.25440   0.05070   0.71330   0.00000  Uiso   1.00
H289   H     0.21990   0.03210   0.67010   0.00000  Uiso   1.00
H290   H     0.22500   0.07490   0.66490   0.00000  Uiso   1.00
C291   C     0.20930   0.14170   0.83660   0.00000  Uiso   1.00
H292   H     0.19410   0.12100   0.85110   0.00000  Uiso   1.00
H293   H     0.22840   0.13400   0.79700   0.00000  Uiso   1.00
H294   H     0.19460   0.16030   0.80900   0.00000  Uiso   1.00
Mn295  Mn    0.35212   0.14727   0.75176   0.00000  Uiso   1.00
N296   N     0.31680   0.04470   0.65860   0.00000  Uiso   1.00
N297   N     0.45720   0.13700   0.66070   0.00000  Uiso   1.00
N298   N     0.26273   0.20110   0.83990   0.00000  Uiso   1.00
O299   O     0.35770   0.03610   0.80030   0.00000  Uiso   1.00
O300   O     0.36318   0.09710   0.81720   0.00000  Uiso   1.00
O301   O     0.31900   0.10720   0.67540   0.00000  Uiso   1.00
O302   O     0.46230   0.17110   0.81070   0.00000  Uiso   1.00
O303   O     0.40002   0.17300   0.82430   0.00000  Uiso   1.00
O304   O     0.39470   0.14020   0.66760   0.00000  Uiso   1.00
O305   O     0.31152   0.16130   0.83610   0.00000  Uiso   1.00
O306   O     0.33314   0.19320   0.68500   0.00000  Uiso   1.00
O307   O     0.28504   0.23110   0.69110   0.00000  Uiso   1.00
C316   C     0.64790   0.93020   0.77740   0.00000  Uiso   1.00
C317   C     0.67320   0.92630   0.69840   0.00000  Uiso   1.00
C318   C     0.57430   0.85430   0.69620   0.00000  Uiso   1.00
C319   C     0.56950   0.83680   0.78650   0.00000  Uiso   1.00
C320   C     0.69510   0.79400   0.72030   0.00000  Uiso   1.00
C321   C     0.70830   0.81240   0.80770   0.00000  Uiso   1.00
C322   C     0.70270   0.95440   0.57820   0.00000  Uiso   1.00
C323   C     0.74150   0.95270   0.57990   0.00000  Uiso   1.00
C324   C     0.54540   0.88390   0.57760   0.00000  Uiso   1.00
C325   C     0.75100   0.81500   0.92160   0.00000  Uiso   1.00
C326   C     0.77340   0.84280   0.92070   0.00000  Uiso   1.00
C327   C     0.54690   0.92190   0.58060   0.00000  Uiso   1.00
C328   C     0.55080   0.94290   0.66470   0.00000  Uiso   1.00
H329   H     0.54950   0.92620   0.71350   0.00000  Uiso   1.00
H330   H     0.53130   0.96070   0.66910   0.00000  Uiso   1.00
H331   H     0.57410   0.95540   0.66540   0.00000  Uiso   1.00
C332   C     0.76240   0.94830   0.66470   0.00000  Uiso   1.00
H333   H     0.74560   0.94930   0.71330   0.00000  Uiso   1.00
H334   H     0.78010   0.96790   0.67010   0.00000  Uiso   1.00
H335   H     0.77500   0.92510   0.66490   0.00000  Uiso   1.00
C336   C     0.79070   0.85830   0.83660   0.00000  Uiso   1.00
H337   H     0.80590   0.87900   0.85110   0.00000  Uiso   1.00
H338   H     0.77160   0.86600   0.79700   0.00000  Uiso   1.00
H339   H     0.80540   0.83970   0.80900   0.00000  Uiso   1.00
Mn340  Mn    0.64788   0.85273   0.75176   0.00000  Uiso   1.00
N341   N     0.68320   0.95530   0.65860   0.00000  Uiso   1.00
N342   N     0.54280   0.86300   0.66070   0.00000  Uiso   1.00
N343   N     0.73727   0.79890   0.83990   0.00000  Uiso   1.00
O344   O     0.64230   0.96390   0.80030   0.00000  Uiso   1.00
O345   O     0.63682   0.90290   0.81720   0.00000  Uiso   1.00
O346   O     0.68100   0.89280   0.67540   0.00000  Uiso   1.00
O347   O     0.53770   0.82890   0.81070   0.00000  Uiso   1.00
O348   O     0.59998   0.82700   0.82430   0.00000  Uiso   1.00
O349   O     0.60530   0.85980   0.66760   0.00000  Uiso   1.00
O350   O     0.68848   0.83870   0.83610   0.00000  Uiso   1.00
O351   O     0.66686   0.80680   0.68500   0.00000  Uiso   1.00
O352   O     0.71496   0.76890   0.69110   0.00000  Uiso   1.00
C361   C     0.93020   0.64790   0.77740   0.00000  Uiso   1.00
C362   C     0.92630   0.67320   0.69840   0.00000  Uiso   1.00
C363   C     0.85430   0.57430   0.69620   0.00000  Uiso   1.00
C364   C     0.83680   0.56950   0.78650   0.00000  Uiso   1.00
C365   C     0.79400   0.69510   0.72030   0.00000  Uiso   1.00
C366   C     0.81240   0.70830   0.80770   0.00000  Uiso   1.00
C367   C     0.95440   0.70270   0.57820   0.00000  Uiso   1.00
C368   C     0.95270   0.74150   0.57990   0.00000  Uiso   1.00
C369   C     0.88390   0.54540   0.57760   0.00000  Uiso   1.00
C370   C     0.81500   0.75100   0.92160   0.00000  Uiso   1.00
C371   C     0.84280   0.77340   0.92070   0.00000  Uiso   1.00
C372   C     0.92190   0.54690   0.58060   0.00000  Uiso   1.00
C373   C     0.94290   0.55080   0.66470   0.00000  Uiso   1.00
H374   H     0.92620   0.54950   0.71350   0.00000  Uiso   1.00
H375   H     0.96070   0.53130   0.66910   0.00000  Uiso   1.00
H376   H     0.95540   0.57410   0.66540   0.00000  Uiso   1.00
C377   C     0.94830   0.76240   0.66470   0.00000  Uiso   1.00
H378   H     0.94930   0.74560   0.71330   0.00000  Uiso   1.00
H379   H     0.96790   0.78010   0.67010   0.00000  Uiso   1.00
H380   H     0.92510   0.77500   0.66490   0.00000  Uiso   1.00
C381   C     0.85830   0.79070   0.83660   0.00000  Uiso   1.00
H382   H     0.87900   0.80590   0.85110   0.00000  Uiso   1.00
H383   H     0.86600   0.77160   0.79700   0.00000  Uiso   1.00
H384   H     0.83970   0.80540   0.80900   0.00000  Uiso   1.00
Mn385  Mn    0.85273   0.64788   0.75176   0.00000  Uiso   1.00
N386   N     0.95530   0.68320   0.65860   0.00000  Uiso   1.00
N387   N     0.86300   0.54280   0.66070   0.00000  Uiso   1.00
N388   N     0.79890   0.73727   0.83990   0.00000  Uiso   1.00
O389   O     0.96390   0.64230   0.80030   0.00000  Uiso   1.00
O390   O     0.90290   0.63682   0.81720   0.00000  Uiso   1.00
O391   O     0.89280   0.68100   0.67540   0.00000  Uiso   1.00
O392   O     0.82890   0.53770   0.81070   0.00000  Uiso   1.00
O393   O     0.82700   0.59998   0.82430   0.00000  Uiso   1.00
O394   O     0.85980   0.60530   0.66760   0.00000  Uiso   1.00
O395   O     0.83870   0.68848   0.83610   0.00000  Uiso   1.00
O396   O     0.80680   0.66686   0.68500   0.00000  Uiso   1.00
O397   O     0.76890   0.71496   0.69110   0.00000  Uiso   1.00
C406   C     0.06980   0.35210   0.77740   0.00000  Uiso   1.00
C407   C     0.07370   0.32680   0.69840   0.00000  Uiso   1.00
C408   C     0.14570   0.42570   0.69620   0.00000  Uiso   1.00
C409   C     0.16320   0.43050   0.78650   0.00000  Uiso   1.00
C410   C     0.20600   0.30490   0.72030   0.00000  Uiso   1.00
C411   C     0.18760   0.29170   0.80770   0.00000  Uiso   1.00
C412   C     0.04560   0.29730   0.57820   0.00000  Uiso   1.00
C413   C     0.04730   0.25850   0.57990   0.00000  Uiso   1.00
C414   C     0.11610   0.45460   0.57760   0.00000  Uiso   1.00
C415   C     0.18500   0.24900   0.92160   0.00000  Uiso   1.00
C416   C     0.15720   0.22660   0.92070   0.00000  Uiso   1.00
C417   C     0.07810   0.45310   0.58060   0.00000  Uiso   1.00
C418   C     0.05710   0.44920   0.66470   0.00000  Uiso   1.00
H419   H     0.07380   0.45050   0.71350   0.00000  Uiso   1.00
H420   H     0.03930   0.46870   0.66910   0.00000  Uiso   1.00
H421   H     0.04460   0.42590   0.66540   0.00000  Uiso   1.00
C422   C     0.05170   0.23760   0.66470   0.00000  Uiso   1.00
H423   H     0.05070   0.25440   0.71330   0.00000  Uiso   1.00
H424   H     0.03210   0.21990   0.67010   0.00000  Uiso   1.00
H425   H     0.07490   0.22500   0.66490   0.00000  Uiso   1.00
C426   C     0.14170   0.20930   0.83660   0.00000  Uiso   1.00
H427   H     0.12100   0.19410   0.85110   0.00000  Uiso   1.00
H428   H     0.13400   0.22840   0.79700   0.00000  Uiso   1.00
H429   H     0.16030   0.19460   0.80900   0.00000  Uiso   1.00
Mn430  Mn    0.14727   0.35212   0.75176   0.00000  Uiso   1.00
N431   N     0.04470   0.31680   0.65860   0.00000  Uiso   1.00
N432   N     0.13700   0.45720   0.66070   0.00000  Uiso   1.00
N433   N     0.20110   0.26273   0.83990   0.00000  Uiso   1.00
O434   O     0.03610   0.35770   0.80030   0.00000  Uiso   1.00
O435   O     0.09710   0.36318   0.81720   0.00000  Uiso   1.00
O436   O     0.10720   0.31900   0.67540   0.00000  Uiso   1.00
O437   O     0.17110   0.46230   0.81070   0.00000  Uiso   1.00
O438   O     0.17300   0.40002   0.82430   0.00000  Uiso   1.00
O439   O     0.14020   0.39470   0.66760   0.00000  Uiso   1.00
O440   O     0.16130   0.31152   0.83610   0.00000  Uiso   1.00
O441   O     0.19320   0.33314   0.68500   0.00000  Uiso   1.00
O442   O     0.23110   0.28504   0.69110   0.00000  Uiso   1.00
C451   C     0.35210   0.93020   0.77740   0.00000  Uiso   1.00
C452   C     0.32680   0.92630   0.69840   0.00000  Uiso   1.00
C453   C     0.42570   0.85430   0.69620   0.00000  Uiso   1.00
C454   C     0.43050   0.83680   0.78650   0.00000  Uiso   1.00
C455   C     0.30490   0.79400   0.72030   0.00000  Uiso   1.00
C456   C     0.29170   0.81240   0.80770   0.00000  Uiso   1.00
C457   C     0.29730   0.95440   0.57820   0.00000  Uiso   1.00
C458   C     0.25850   0.95270   0.57990   0.00000  Uiso   1.00
C459   C     0.45460   0.88390   0.57760   0.00000  Uiso   1.00
C460   C     0.24900   0.81500   0.92160   0.00000  Uiso   1.00
C461   C     0.22660   0.84280   0.92070   0.00000  Uiso   1.00
C462   C     0.45310   0.92190   0.58060   0.00000  Uiso   1.00
C463   C     0.44920   0.94290   0.66470   0.00000  Uiso   1.00
H464   H     0.45050   0.92620   0.71350   0.00000  Uiso   1.00
H465   H     0.46870   0.96070   0.66910   0.00000  Uiso   1.00
H466   H     0.42590   0.95540   0.66540   0.00000  Uiso   1.00
C467   C     0.23760   0.94830   0.66470   0.00000  Uiso   1.00
H468   H     0.25440   0.94930   0.71330   0.00000  Uiso   1.00
H469   H     0.21990   0.96790   0.67010   0.00000  Uiso   1.00
H470   H     0.22500   0.92510   0.66490   0.00000  Uiso   1.00
C471   C     0.20930   0.85830   0.83660   0.00000  Uiso   1.00
H472   H     0.19410   0.87900   0.85110   0.00000  Uiso   1.00
H473   H     0.22840   0.86600   0.79700   0.00000  Uiso   1.00
H474   H     0.19460   0.83970   0.80900   0.00000  Uiso   1.00
Mn475  Mn    0.35212   0.85273   0.75176   0.00000  Uiso   1.00
N476   N     0.31680   0.95530   0.65860   0.00000  Uiso   1.00
N477   N     0.45720   0.86300   0.66070   0.00000  Uiso   1.00
N478   N     0.26273   0.79890   0.83990   0.00000  Uiso   1.00
O479   O     0.35770   0.96390   0.80030   0.00000  Uiso   1.00
O480   O     0.36318   0.90290   0.81720   0.00000  Uiso   1.00
O481   O     0.31900   0.89280   0.67540   0.00000  Uiso   1.00
O482   O     0.46230   0.82890   0.81070   0.00000  Uiso   1.00
O483   O     0.40002   0.82700   0.82430   0.00000  Uiso   1.00
O484   O     0.39470   0.85980   0.66760   0.00000  Uiso   1.00
O485   O     0.31152   0.83870   0.83610   0.00000  Uiso   1.00
O486   O     0.33314   0.80680   0.68500   0.00000  Uiso   1.00
O487   O     0.28504   0.76890   0.69110   0.00000  Uiso   1.00
C496   C     0.64790   0.06980   0.77740   0.00000  Uiso   1.00
C497   C     0.67320   0.07370   0.69840   0.00000  Uiso   1.00
C498   C     0.57430   0.14570   0.69620   0.00000  Uiso   1.00
C499   C     0.56950   0.16320   0.78650   0.00000  Uiso   1.00
C500   C     0.69510   0.20600   0.72030   0.00000  Uiso   1.00
C501   C     0.70830   0.18760   0.80770   0.00000  Uiso   1.00
C502   C     0.70270   0.04560   0.57820   0.00000  Uiso   1.00
C503   C     0.74150   0.04730   0.57990   0.00000  Uiso   1.00
C504   C     0.54540   0.11610   0.57760   0.00000  Uiso   1.00
C505   C     0.75100   0.18500   0.92160   0.00000  Uiso   1.00
C506   C     0.77340   0.15720   0.92070   0.00000  Uiso   1.00
C507   C     0.54690   0.07810   0.58060   0.00000  Uiso   1.00
C508   C     0.55080   0.05710   0.66470   0.00000  Uiso   1.00
H509   H     0.54950   0.07380   0.71350   0.00000  Uiso   1.00
H510   H     0.53130   0.03930   0.66910   0.00000  Uiso   1.00
H511   H     0.57410   0.04460   0.66540   0.00000  Uiso   1.00
C512   C     0.76240   0.05170   0.66470   0.00000  Uiso   1.00
H513   H     0.74560   0.05070   0.71330   0.00000  Uiso   1.00
H514   H     0.78010   0.03210   0.67010   0.00000  Uiso   1.00
H515   H     0.77500   0.07490   0.66490   0.00000  Uiso   1.00
C516   C     0.79070   0.14170   0.83660   0.00000  Uiso   1.00
H517   H     0.80590   0.12100   0.85110   0.00000  Uiso   1.00
H518   H     0.77160   0.13400   0.79700   0.00000  Uiso   1.00
H519   H     0.80540   0.16030   0.80900   0.00000  Uiso   1.00
Mn520  Mn    0.64788   0.14727   0.75176   0.00000  Uiso   1.00
N521   N     0.68320   0.04470   0.65860   0.00000  Uiso   1.00
N522   N     0.54280   0.13700   0.66070   0.00000  Uiso   1.00
N523   N     0.73727   0.20110   0.83990   0.00000  Uiso   1.00
O524   O     0.64230   0.03610   0.80030   0.00000  Uiso   1.00
O525   O     0.63682   0.09710   0.81720   0.00000  Uiso   1.00
O526   O     0.68100   0.10720   0.67540   0.00000  Uiso   1.00
O527   O     0.53770   0.17110   0.81070   0.00000  Uiso   1.00
O528   O     0.59998   0.17300   0.82430   0.00000  Uiso   1.00
O529   O     0.60530   0.14020   0.66760   0.00000  Uiso   1.00
O530   O     0.68848   0.16130   0.83610   0.00000  Uiso   1.00
O531   O     0.66686   0.19320   0.68500   0.00000  Uiso   1.00
O532   O     0.71496   0.23110   0.69110   0.00000  Uiso   1.00
C541   C     0.06980   0.64790   0.22260   0.00000  Uiso   1.00
C542   C     0.07370   0.67320   0.30160   0.00000  Uiso   1.00
C543   C     0.14570   0.57430   0.30380   0.00000  Uiso   1.00
C544   C     0.16320   0.56950   0.21350   0.00000  Uiso   1.00
C545   C     0.20600   0.69510   0.27970   0.00000  Uiso   1.00
C546   C     0.18760   0.70830   0.19230   0.00000  Uiso   1.00
C547   C     0.04560   0.70270   0.42180   0.00000  Uiso   1.00
C548   C     0.04730   0.74150   0.42010   0.00000  Uiso   1.00
C549   C     0.11610   0.54540   0.42240   0.00000  Uiso   1.00
C550   C     0.18500   0.75100   0.07840   0.00000  Uiso   1.00
C551   C     0.15720   0.77340   0.07930   0.00000  Uiso   1.00
C552   C     0.07810   0.54690   0.41940   0.00000  Uiso   1.00
C553   C     0.05710   0.55080   0.33530   0.00000  Uiso   1.00
H554   H     0.07380   0.54950   0.28650   0.00000  Uiso   1.00
H555   H     0.03930   0.53130   0.33090   0.00000  Uiso   1.00
H556   H     0.04460   0.57410   0.33460   0.00000  Uiso   1.00
C557   C     0.05170   0.76240   0.33530   0.00000  Uiso   1.00
H558   H     0.05070   0.74560   0.28670   0.00000  Uiso   1.00
H559   H     0.03210   0.78010   0.32990   0.00000  Uiso   1.00
H560   H     0.07490   0.77500   0.33510   0.00000  Uiso   1.00
C561   C     0.14170   0.79070   0.16340   0.00000  Uiso   1.00
H562   H     0.12100   0.80590   0.14890   0.00000  Uiso   1.00
H563   H     0.13400   0.77160   0.20300   0.00000  Uiso   1.00
H564   H     0.16030   0.80540   0.19100   0.00000  Uiso   1.00
Mn565  Mn    0.14727   0.64788   0.24824   0.00000  Uiso   1.00
N566   N     0.04470   0.68320   0.34140   0.00000  Uiso   1.00
N567   N     0.13700   0.54280   0.33930   0.00000  Uiso   1.00
N568   N     0.20110   0.73727   0.16010   0.00000  Uiso   1.00
O569   O     0.03610   0.64230   0.19970   0.00000  Uiso   1.00
O570   O     0.09710   0.63682   0.18280   0.00000  Uiso   1.00
O571   O     0.10720   0.68100   0.32460   0.00000  Uiso   1.00
O572   O     0.17110   0.53770   0.18930   0.00000  Uiso   1.00
O573   O     0.17300   0.59998   0.17570   0.00000  Uiso   1.00
O574   O     0.14020   0.60530   0.33240   0.00000  Uiso   1.00
O575   O     0.16130   0.68848   0.16390   0.00000  Uiso   1.00
O576   O     0.19320   0.66686   0.31500   0.00000  Uiso   1.00
O577   O     0.23110   0.71496   0.30890   0.00000  Uiso   1.00
C586   C     0.93020   0.35210   0.22260   0.00000  Uiso   1.00
C587   C     0.92630   0.32680   0.30160   0.00000  Uiso   1.00
C588   C     0.85430   0.42570   0.30380   0.00000  Uiso   1.00
C589   C     0.83680   0.43050   0.21350   0.00000  Uiso   1.00
C590   C     0.79400   0.30490   0.27970   0.00000  Uiso   1.00
C591   C     0.81240   0.29170   0.19230   0.00000  Uiso   1.00
C592   C     0.95440   0.29730   0.42180   0.00000  Uiso   1.00
C593   C     0.95270   0.25850   0.42010   0.00000  Uiso   1.00
C594   C     0.88390   0.45460   0.42240   0.00000  Uiso   1.00
C595   C     0.81500   0.24900   0.07840   0.00000  Uiso   1.00
C596   C     0.84280   0.22660   0.07930   0.00000  Uiso   1.00
C597   C     0.92190   0.45310   0.41940   0.00000  Uiso   1.00
C598   C     0.94290   0.44920   0.33530   0.00000  Uiso   1.00
H599   H     0.92620   0.45050   0.28650   0.00000  Uiso   1.00
H600   H     0.96070   0.46870   0.33090   0.00000  Uiso   1.00
H601   H     0.95540   0.42590   0.33460   0.00000  Uiso   1.00
C602   C     0.94830   0.23760   0.33530   0.00000  Uiso   1.00
H603   H     0.94930   0.25440   0.28670   0.00000  Uiso   1.00
H604   H     0.96790   0.21990   0.32990   0.00000  Uiso   1.00
H605   H     0.92510   0.22500   0.33510   0.00000  Uiso   1.00
C606   C     0.85830   0.20930   0.16340   0.00000  Uiso   1.00
H607   H     0.87900   0.19410   0.14890   0.00000  Uiso   1.00
H608   H     0.86600   0.22840   0.20300   0.00000  Uiso   1.00
H609   H     0.83970   0.19460   0.19100   0.00000  Uiso   1.00
Mn610  Mn    0.85273   0.35212   0.24824   0.00000  Uiso   1.00
N611   N     0.95530   0.31680   0.34140   0.00000  Uiso   1.00
N612   N     0.86300   0.45720   0.33930   0.00000  Uiso   1.00
N613   N     0.79890   0.26273   0.16010   0.00000  Uiso   1.00
O614   O     0.96390   0.35770   0.19970   0.00000  Uiso   1.00
O615   O     0.90290   0.36318   0.18280   0.00000  Uiso   1.00
O616   O     0.89280   0.31900   0.32460   0.00000  Uiso   1.00
O617   O     0.82890   0.46230   0.18930   0.00000  Uiso   1.00
O618   O     0.82700   0.40002   0.17570   0.00000  Uiso   1.00
O619   O     0.85980   0.39470   0.33240   0.00000  Uiso   1.00
O620   O     0.83870   0.31152   0.16390   0.00000  Uiso   1.00
O621   O     0.80680   0.33314   0.31500   0.00000  Uiso   1.00
O622   O     0.76890   0.28504   0.30890   0.00000  Uiso   1.00
C631   C     0.64790   0.93020   0.22260   0.00000  Uiso   1.00
C632   C     0.67320   0.92630   0.30160   0.00000  Uiso   1.00
C633   C     0.57430   0.85430   0.30380   0.00000  Uiso   1.00
C634   C     0.56950   0.83680   0.21350   0.00000  Uiso   1.00
C635   C     0.69510   0.79400   0.27970   0.00000  Uiso   1.00
C636   C     0.70830   0.81240   0.19230   0.00000  Uiso   1.00
C637   C     0.70270   0.95440   0.42180   0.00000  Uiso   1.00
C638   C     0.74150   0.95270   0.42010   0.00000  Uiso   1.00
C639   C     0.54540   0.88390   0.42240   0.00000  Uiso   1.00
C640   C     0.75100   0.81500   0.07840   0.00000  Uiso   1.00
C641   C     0.77340   0.84280   0.07930   0.00000  Uiso   1.00
C642   C     0.54690   0.92190   0.41940   0.00000  Uiso   1.00
C643   C     0.55080   0.94290   0.33530   0.00000  Uiso   1.00
H644   H     0.54950   0.92620   0.28650   0.00000  Uiso   1.00
H645   H     0.53130   0.96070   0.33090   0.00000  Uiso   1.00
H646   H     0.57410   0.95540   0.33460   0.00000  Uiso   1.00
C647   C     0.76240   0.94830   0.33530   0.00000  Uiso   1.00
H648   H     0.74560   0.94930   0.28670   0.00000  Uiso   1.00
H649   H     0.78010   0.96790   0.32990   0.00000  Uiso   1.00
H650   H     0.77500   0.92510   0.33510   0.00000  Uiso   1.00
C651   C     0.79070   0.85830   0.16340   0.00000  Uiso   1.00
H652   H     0.80590   0.87900   0.14890   0.00000  Uiso   1.00
H653   H     0.77160   0.86600   0.20300   0.00000  Uiso   1.00
H654   H     0.80540   0.83970   0.19100   0.00000  Uiso   1.00
Mn655  Mn    0.64788   0.85273   0.24824   0.00000  Uiso   1.00
N656   N     0.68320   0.95530   0.34140   0.00000  Uiso   1.00
N657   N     0.54280   0.86300   0.33930   0.00000  Uiso   1.00
N658   N     0.73727   0.79890   0.16010   0.00000  Uiso   1.00
O659   O     0.64230   0.96390   0.19970   0.00000  Uiso   1.00
O660   O     0.63682   0.90290   0.18280   0.00000  Uiso   1.00
O661   O     0.68100   0.89280   0.32460   0.00000  Uiso   1.00
O662   O     0.53770   0.82890   0.18930   0.00000  Uiso   1.00
O663   O     0.59998   0.82700   0.17570   0.00000  Uiso   1.00
O664   O     0.60530   0.85980   0.33240   0.00000  Uiso   1.00
O665   O     0.68848   0.83870   0.16390   0.00000  Uiso   1.00
O666   O     0.66686   0.80680   0.31500   0.00000  Uiso   1.00
O667   O     0.71496   0.76890   0.30890   0.00000  Uiso   1.00
C676   C     0.35210   0.06980   0.22260   0.00000  Uiso   1.00
C677   C     0.32680   0.07370   0.30160   0.00000  Uiso   1.00
C678   C     0.42570   0.14570   0.30380   0.00000  Uiso   1.00
C679   C     0.43050   0.16320   0.21350   0.00000  Uiso   1.00
C680   C     0.30490   0.20600   0.27970   0.00000  Uiso   1.00
C681   C     0.29170   0.18760   0.19230   0.00000  Uiso   1.00
C682   C     0.29730   0.04560   0.42180   0.00000  Uiso   1.00
C683   C     0.25850   0.04730   0.42010   0.00000  Uiso   1.00
C684   C     0.45460   0.11610   0.42240   0.00000  Uiso   1.00
C685   C     0.24900   0.18500   0.07840   0.00000  Uiso   1.00
C686   C     0.22660   0.15720   0.07930   0.00000  Uiso   1.00
C687   C     0.45310   0.07810   0.41940   0.00000  Uiso   1.00
C688   C     0.44920   0.05710   0.33530   0.00000  Uiso   1.00
H689   H     0.45050   0.07380   0.28650   0.00000  Uiso   1.00
H690   H     0.46870   0.03930   0.33090   0.00000  Uiso   1.00
H691   H     0.42590   0.04460   0.33460   0.00000  Uiso   1.00
C692   C     0.23760   0.05170   0.33530   0.00000  Uiso   1.00
H693   H     0.25440   0.05070   0.28670   0.00000  Uiso   1.00
H694   H     0.21990   0.03210   0.32990   0.00000  Uiso   1.00
H695   H     0.22500   0.07490   0.33510   0.00000  Uiso   1.00
C696   C     0.20930   0.14170   0.16340   0.00000  Uiso   1.00
H697   H     0.19410   0.12100   0.14890   0.00000  Uiso   1.00
H698   H     0.22840   0.13400   0.20300   0.00000  Uiso   1.00
H699   H     0.19460   0.16030   0.19100   0.00000  Uiso   1.00
Mn700  Mn    0.35212   0.14727   0.24824   0.00000  Uiso   1.00
N701   N     0.31680   0.04470   0.34140   0.00000  Uiso   1.00
N702   N     0.45720   0.13700   0.33930   0.00000  Uiso   1.00
N703   N     0.26273   0.20110   0.16010   0.00000  Uiso   1.00
O704   O     0.35770   0.03610   0.19970   0.00000  Uiso   1.00
O705   O     0.36318   0.09710   0.18280   0.00000  Uiso   1.00
O706   O     0.31900   0.10720   0.32460   0.00000  Uiso   1.00
O707   O     0.46230   0.17110   0.18930   0.00000  Uiso   1.00
O708   O     0.40002   0.17300   0.17570   0.00000  Uiso   1.00
O709   O     0.39470   0.14020   0.33240   0.00000  Uiso   1.00
O710   O     0.31152   0.16130   0.16390   0.00000  Uiso   1.00
O711   O     0.33314   0.19320   0.31500   0.00000  Uiso   1.00
O712   O     0.28504   0.23110   0.30890   0.00000  Uiso   1.00
C721   C     0.04660   0.31680   0.50000   0.00000  Uiso   1.00
C722   C     0.05000   0.23990   0.50000   0.00000  Uiso   1.00
H723   H     0.05350   0.21450   0.50000   0.00000  Uiso   1.00
C724   C     0.13730   0.45560   0.50000   0.00000  Uiso   1.00
C725   C     0.17830   0.45420   0.50000   0.00000  Uiso   1.00
C726   C     0.05990   0.45140   0.50000   0.00000  Uiso   1.00
H727   H     0.03440   0.44910   0.50000   0.00000  Uiso   1.00
C728   C     0.04650   0.35860   0.50000   0.00000  Uiso   1.00
O730   O     0.25200   0.21350   0.50000   0.00000  Uiso   1.00
C732   C     0.95340   0.68320   0.50000   0.00000  Uiso   1.00
C733   C     0.95000   0.76010   0.50000   0.00000  Uiso   1.00
H734   H     0.94650   0.78550   0.50000   0.00000  Uiso   1.00
C735   C     0.86270   0.54440   0.50000   0.00000  Uiso   1.00
C736   C     0.82170   0.54580   0.50000   0.00000  Uiso   1.00
C737   C     0.94010   0.54860   0.50000   0.00000  Uiso   1.00
H738   H     0.96560   0.55090   0.50000   0.00000  Uiso   1.00
C739   C     0.95350   0.64140   0.50000   0.00000  Uiso   1.00
O741   O     0.74800   0.78650   0.50000   0.00000  Uiso   1.00
C743   C     0.68320   0.04660   0.50000   0.00000  Uiso   1.00
C744   C     0.76010   0.05000   0.50000   0.00000  Uiso   1.00
H745   H     0.78550   0.05350   0.50000   0.00000  Uiso   1.00
C746   C     0.54440   0.13730   0.50000   0.00000  Uiso   1.00
C747   C     0.54580   0.17830   0.50000   0.00000  Uiso   1.00
C748   C     0.54860   0.05990   0.50000   0.00000  Uiso   1.00
H749   H     0.55090   0.03440   0.50000   0.00000  Uiso   1.00
C750   C     0.64140   0.04650   0.50000   0.00000  Uiso   1.00
O752   O     0.78650   0.25200   0.50000   0.00000  Uiso   1.00
C754   C     0.31680   0.95340   0.50000   0.00000  Uiso   1.00
C755   C     0.23990   0.95000   0.50000   0.00000  Uiso   1.00
H756   H     0.21450   0.94650   0.50000   0.00000  Uiso   1.00
C757   C     0.45560   0.86270   0.50000   0.00000  Uiso   1.00
C758   C     0.45420   0.82170   0.50000   0.00000  Uiso   1.00
C759   C     0.45140   0.94010   0.50000   0.00000  Uiso   1.00
H760   H     0.44910   0.96560   0.50000   0.00000  Uiso   1.00
C761   C     0.35860   0.95350   0.50000   0.00000  Uiso   1.00
O763   O     0.21350   0.74800   0.50000   0.00000  Uiso   1.00
C765   C     0.95340   0.31680   0.50000   0.00000  Uiso   1.00
C766   C     0.95000   0.23990   0.50000   0.00000  Uiso   1.00
H767   H     0.94650   0.21450   0.50000   0.00000  Uiso   1.00
C768   C     0.86270   0.45560   0.50000   0.00000  Uiso   1.00
C769   C     0.82170   0.45420   0.50000   0.00000  Uiso   1.00
C770   C     0.94010   0.45140   0.50000   0.00000  Uiso   1.00
H771   H     0.96560   0.44910   0.50000   0.00000  Uiso   1.00
C772   C     0.95350   0.35860   0.50000   0.00000  Uiso   1.00
O774   O     0.74800   0.21350   0.50000   0.00000  Uiso   1.00
C776   C     0.04660   0.68320   0.50000   0.00000  Uiso   1.00
C777   C     0.05000   0.76010   0.50000   0.00000  Uiso   1.00
H778   H     0.05350   0.78550   0.50000   0.00000  Uiso   1.00
C779   C     0.13730   0.54440   0.50000   0.00000  Uiso   1.00
C780   C     0.17830   0.54580   0.50000   0.00000  Uiso   1.00
C781   C     0.05990   0.54860   0.50000   0.00000  Uiso   1.00
H782   H     0.03440   0.55090   0.50000   0.00000  Uiso   1.00
C783   C     0.04650   0.64140   0.50000   0.00000  Uiso   1.00
O785   O     0.25200   0.78650   0.50000   0.00000  Uiso   1.00
C787   C     0.31680   0.04660   0.50000   0.00000  Uiso   1.00
C788   C     0.23990   0.05000   0.50000   0.00000  Uiso   1.00
H789   H     0.21450   0.05350   0.50000   0.00000  Uiso   1.00
C790   C     0.45560   0.13730   0.50000   0.00000  Uiso   1.00
C791   C     0.45420   0.17830   0.50000   0.00000  Uiso   1.00
C792   C     0.45140   0.05990   0.50000   0.00000  Uiso   1.00
H793   H     0.44910   0.03440   0.50000   0.00000  Uiso   1.00
C794   C     0.35860   0.04650   0.50000   0.00000  Uiso   1.00
O796   O     0.21350   0.25200   0.50000   0.00000  Uiso   1.00
C798   C     0.68320   0.95340   0.50000   0.00000  Uiso   1.00
C799   C     0.76010   0.95000   0.50000   0.00000  Uiso   1.00
H800   H     0.78550   0.94650   0.50000   0.00000  Uiso   1.00
C801   C     0.54440   0.86270   0.50000   0.00000  Uiso   1.00
C802   C     0.54580   0.82170   0.50000   0.00000  Uiso   1.00
C803   C     0.54860   0.94010   0.50000   0.00000  Uiso   1.00
H804   H     0.55090   0.96560   0.50000   0.00000  Uiso   1.00
C805   C     0.64140   0.95350   0.50000   0.00000  Uiso   1.00
O807   O     0.78650   0.74800   0.50000   0.00000  Uiso   1.00
C809   C     0.19980   0.26320   0.00000   0.00000  Uiso   1.00
C810   C     0.22840   0.29210   0.00000   0.00000  Uiso   1.00
C811   C     0.14240   0.21170   0.00000   0.00000  Uiso   1.00
H812   H     0.12430   0.19360   0.00000   0.00000  Uiso   1.00
C817   C     0.80020   0.73680   0.00000   0.00000  Uiso   1.00
C818   C     0.77160   0.70790   0.00000   0.00000  Uiso   1.00
C819   C     0.85760   0.78830   0.00000   0.00000  Uiso   1.00
H820   H     0.87570   0.80640   0.00000   0.00000  Uiso   1.00
C825   C     0.73680   0.19980   0.00000   0.00000  Uiso   1.00
C826   C     0.70790   0.22840   0.00000   0.00000  Uiso   1.00
C827   C     0.78830   0.14240   0.00000   0.00000  Uiso   1.00
H828   H     0.80640   0.12430   0.00000   0.00000  Uiso   1.00
C833   C     0.26320   0.80020   0.00000   0.00000  Uiso   1.00
C834   C     0.29210   0.77160   0.00000   0.00000  Uiso   1.00
C835   C     0.21170   0.85760   0.00000   0.00000  Uiso   1.00
H836   H     0.19360   0.87570   0.00000   0.00000  Uiso   1.00
C841   C     0.80020   0.26320   0.00000   0.00000  Uiso   1.00
C842   C     0.77160   0.29210   0.00000   0.00000  Uiso   1.00
C843   C     0.85760   0.21170   0.00000   0.00000  Uiso   1.00
H844   H     0.87570   0.19360   0.00000   0.00000  Uiso   1.00
C849   C     0.19980   0.73680   0.00000   0.00000  Uiso   1.00
C850   C     0.22840   0.70790   0.00000   0.00000  Uiso   1.00
C851   C     0.14240   0.78830   0.00000   0.00000  Uiso   1.00
H852   H     0.12430   0.80640   0.00000   0.00000  Uiso   1.00
C857   C     0.26320   0.19980   0.00000   0.00000  Uiso   1.00
C858   C     0.29210   0.22840   0.00000   0.00000  Uiso   1.00
C859   C     0.21170   0.14240   0.00000   0.00000  Uiso   1.00
H860   H     0.19360   0.12430   0.00000   0.00000  Uiso   1.00
C865   C     0.73680   0.80020   0.00000   0.00000  Uiso   1.00
C866   C     0.70790   0.77160   0.00000   0.00000  Uiso   1.00
C867   C     0.78830   0.85760   0.00000   0.00000  Uiso   1.00
H868   H     0.80640   0.87570   0.00000   0.00000  Uiso   1.00
Cu873  Cu    0.00000   0.33259   0.27366   0.00000  Uiso   1.00
Cu876  Cu    0.00000   0.66741   0.27366   0.00000  Uiso   1.00
Cu879  Cu    0.66741   0.00000   0.27366   0.00000  Uiso   1.00
Cu882  Cu    0.33259   0.00000   0.27366   0.00000  Uiso   1.00
Cu885  Cu    0.00000   0.33259   0.72634   0.00000  Uiso   1.00
Cu888  Cu    0.00000   0.66741   0.72634   0.00000  Uiso   1.00
Cu891  Cu    0.33259   0.00000   0.72634   0.00000  Uiso   1.00
Cu894  Cu    0.66741   0.00000   0.72634   0.00000  Uiso   1.00
Cu897  Cu    0.15185   0.50000   0.26938   0.00000  Uiso   1.00
Cu902  Cu    0.84815   0.50000   0.26938   0.00000  Uiso   1.00
Cu907  Cu    0.50000   0.15185   0.26938   0.00000  Uiso   1.00
Cu912  Cu    0.50000   0.84815   0.26938   0.00000  Uiso   1.00
Cu917  Cu    0.84815   0.50000   0.73062   0.00000  Uiso   1.00
Cu922  Cu    0.15185   0.50000   0.73062   0.00000  Uiso   1.00
Cu927  Cu    0.50000   0.15185   0.73062   0.00000  Uiso   1.00
Cu932  Cu    0.50000   0.84815   0.73062   0.00000  Uiso   1.00
Cu937  Cu    0.24230   0.24230   0.23092   0.00000  Uiso   1.00
Na940  Na    0.27250   0.27250   0.43010   0.00000  Uiso   1.00
Cu941  Cu    0.75770   0.75770   0.23092   0.00000  Uiso   1.00
Na944  Na    0.72750   0.72750   0.43010   0.00000  Uiso   1.00
Cu945  Cu    0.75770   0.24230   0.23092   0.00000  Uiso   1.00
Na948  Na    0.72750   0.27250   0.43010   0.00000  Uiso   1.00
Cu949  Cu    0.24230   0.75770   0.23092   0.00000  Uiso   1.00
Na952  Na    0.27250   0.72750   0.43010   0.00000  Uiso   1.00
Cu953  Cu    0.75770   0.24230   0.76908   0.00000  Uiso   1.00
Na956  Na    0.72750   0.27250   0.56990   0.00000  Uiso   1.00
Cu957  Cu    0.24230   0.75770   0.76908   0.00000  Uiso   1.00
Na960  Na    0.27250   0.72750   0.56990   0.00000  Uiso   1.00
Cu961  Cu    0.24230   0.24230   0.76908   0.00000  Uiso   1.00
Na964  Na    0.27250   0.27250   0.56990   0.00000  Uiso   1.00
Cu965  Cu    0.75770   0.75770   0.76908   0.00000  Uiso   1.00
Na968  Na    0.72750   0.72750   0.56990   0.00000  Uiso   1.00
loop_
_geom_bond_atom_site_label_1
_geom_bond_atom_site_label_2
_geom_bond_distance
_geom_bond_site_symmetry_2
_ccdc_geom_bond_type
C1     C2      1.519   .     S
C1     O29     1.289   .     A
C1     O30     1.230   .     A
C2     N26     1.268   .     S
C2     O31     1.298   .     D
C3     C4      1.523   .     S
C3     N27     1.304   .     S
C3     O34     1.224   .     D
C4     O32     1.246   .     A
C4     O33     1.298   .     A
C5     C6      1.563   .     S
C5     O36     1.248   .     D
C5     O37     1.245   .     S
C6     N28     1.260   .     S
C6     O35     1.272   .     D
C7     C8      1.411   .     A
C7     N26     1.414   .     A
C7     C721    1.385   .     S
C8     C17     1.505   .     S
C8     C722    1.394   .     A
C9     C12     1.382   .     A
C9     N27     1.477   .     A
C9     C724    1.410   .     S
C10    C11     1.297   .     A
C10    N28     1.461   .     A
C10    C809    1.406   .     S
C11    C21     1.532   .     S
C11    C811    1.427   .     A
C12    C13     1.496   .     S
C12    C726    1.394   .     A
C13    H14     0.960   .     S
C13    H15     0.962   .     S
C13    H16     0.961   .     S
C17    H18     0.959   .     S
C17    H19     0.963   .     S
C17    H20     0.959   .     S
C21    H22     0.959   .     S
C21    H23     0.960   .     S
C21    H24     0.958   .     S
Mn25   O30     2.115   .     S
Mn25   O31     2.217   .     S
Mn25   O33     2.263   .     S
Mn25   O34     2.024   .     S
Mn25   O35     2.020   .     S
Mn25   O36     2.071   .     S
N26    Cu873   2.007   .     S
N27    Cu897   1.960   .     S
N28    Cu937   1.988   .     S
O29    Cu873   1.954   .     S
O32    Cu897   1.962   .     S
O37    Cu937   1.996   .     S
O37    Na940   2.422   .     S
C46    C47     1.519   .     S
C46    O74     1.289   .     A
C46    O75     1.230   .     A
C47    N71     1.268   .     S
C47    O76     1.298   .     D
C48    C49     1.523   .     S
C48    N72     1.304   .     S
C48    O79     1.224   .     D
C49    O77     1.246   .     A
C49    O78     1.298   .     A
C50    C51     1.563   .     S
C50    O81     1.248   .     D
C50    O82     1.245   .     S
C51    N73     1.260   .     S
C51    O80     1.272   .     D
C52    C53     1.411   .     A
C52    N71     1.414   .     A
C52    C732    1.385   .     S
C53    C62     1.505   .     S
C53    C733    1.394   .     A
C54    C57     1.382   .     A
C54    N72     1.477   .     A
C54    C735    1.410   .     S
C55    C56     1.297   .     A
C55    N73     1.461   .     A
C55    C817    1.406   .     S
C56    C66     1.532   .     S
C56    C819    1.427   .     A
C57    C58     1.496   .     S
C57    C737    1.394   .     A
C58    H59     0.960   .     S
C58    H60     0.962   .     S
C58    H61     0.961   .     S
C62    H63     0.959   .     S
C62    H64     0.963   .     S
C62    H65     0.959   .     S
C66    H67     0.959   .     S
C66    H68     0.960   .     S
C66    H69     0.958   .     S
Mn70   O75     2.115   .     S
Mn70   O76     2.217   .     S
Mn70   O78     2.263   .     S
Mn70   O79     2.024   .     S
Mn70   O80     2.020   .     S
Mn70   O81     2.071   .     S
N71    Cu876   2.007   1_655 S
N72    Cu902   1.960   .     S
N73    Cu941   1.988   .     S
O74    Cu876   1.954   1_655 A
O77    Cu902   1.962   .     S
O82    Cu941   1.996   .     S
O82    Na944   2.422   .     S
C91    C92     1.519   .     S
C91    O119    1.289   .     A
C91    O120    1.230   .     A
C92    N116    1.268   .     S
C92    O121    1.298   .     D
C93    C94     1.523   .     S
C93    N117    1.304   .     S
C93    O124    1.224   .     D
C94    O122    1.246   .     A
C94    O123    1.298   .     A
C95    C96     1.563   .     S
C95    O126    1.248   .     D
C95    O127    1.245   .     S
C96    N118    1.260   .     S
C96    O125    1.272   .     D
C97    C98     1.411   .     A
C97    N116    1.414   .     A
C97    C743    1.385   .     S
C98    C107    1.505   .     S
C98    C744    1.394   .     A
C99    C102    1.382   .     A
C99    N117    1.477   .     A
C99    C746    1.410   .     S
C100   C101    1.297   .     A
C100   N118    1.461   .     A
C100   C825    1.406   .     S
C101   C111    1.532   .     S
C101   C827    1.427   .     A
C102   C103    1.496   .     S
C102   C748    1.394   .     A
C103   H104    0.960   .     S
C103   H105    0.962   .     S
C103   H106    0.961   .     S
C107   H108    0.959   .     S
C107   H109    0.963   .     S
C107   H110    0.959   .     S
C111   H112    0.959   .     S
C111   H113    0.960   .     S
C111   H114    0.958   .     S
Mn115  O120    2.115   .     S
Mn115  O121    2.217   .     S
Mn115  O123    2.263   .     S
Mn115  O124    2.024   .     S
Mn115  O125    2.020   .     S
Mn115  O126    2.071   .     S
N116   Cu879   2.007   .     S
N117   Cu907   1.960   .     S
N118   Cu945   1.988   .     S
O119   Cu879   1.954   .     S
O122   Cu907   1.962   .     S
O127   Cu945   1.996   .     S
O127   Na948   2.422   .     S
C136   C137    1.519   .     S
C136   O164    1.289   .     A
C136   O165    1.230   .     A
C137   N161    1.268   .     S
C137   O166    1.298   .     D
C138   C139    1.523   .     S
C138   N162    1.304   .     S
C138   O169    1.224   .     D
C139   O167    1.246   .     A
C139   O168    1.298   .     A
C140   C141    1.563   .     S
C140   O171    1.248   .     D
C140   O172    1.245   .     S
C141   N163    1.260   .     S
C141   O170    1.272   .     D
C142   C143    1.411   .     A
C142   N161    1.414   .     A
C142   C754    1.385   .     S
C143   C152    1.505   .     S
C143   C755    1.394   .     A
C144   C147    1.382   .     A
C144   N162    1.477   .     A
C144   C757    1.410   .     S
C145   C146    1.297   .     A
C145   N163    1.461   .     A
C145   C833    1.406   .     S
C146   C156    1.532   .     S
C146   C835    1.427   .     A
C147   C148    1.496   .     S
C147   C759    1.394   .     A
C148   H149    0.960   .     S
C148   H150    0.962   .     S
C148   H151    0.961   .     S
C152   H153    0.959   .     S
C152   H154    0.963   .     S
C152   H155    0.959   .     S
C156   H157    0.959   .     S
C156   H158    0.960   .     S
C156   H159    0.958   .     S
Mn160  O165    2.115   .     S
Mn160  O166    2.217   .     S
Mn160  O168    2.263   .     S
Mn160  O169    2.024   .     S
Mn160  O170    2.020   .     S
Mn160  O171    2.071   .     S
N161   Cu882   2.007   1_565 A
N162   Cu912   1.960   .     S
N163   Cu949   1.988   .     S
O164   Cu882   1.954   1_565 S
O167   Cu912   1.962   .     S
O172   Cu949   1.996   .     S
O172   Na952   2.422   .     S
C181   C182    1.519   .     S
C181   O209    1.289   .     A
C181   O210    1.230   .     A
C182   N206    1.268   .     S
C182   O211    1.298   .     D
C183   C184    1.523   .     S
C183   N207    1.304   .     S
C183   O214    1.224   .     D
C184   O212    1.246   .     A
C184   O213    1.298   .     A
C185   C186    1.563   .     S
C185   O216    1.248   .     D
C185   O217    1.245   .     S
C186   N208    1.260   .     S
C186   O215    1.272   .     D
C187   C188    1.411   .     A
C187   N206    1.414   .     A
C187   C765    1.385   .     S
C188   C197    1.505   .     S
C188   C766    1.394   .     A
C189   C192    1.382   .     A
C189   N207    1.477   .     A
C189   C768    1.410   .     S
C190   C191    1.297   .     A
C190   N208    1.461   .     A
C190   C841    1.406   1_556 D
C191   C201    1.532   .     S
C191   C843    1.427   1_556 S
C192   C193    1.496   .     S
C192   C770    1.394   .     A
C193   H194    0.960   .     S
C193   H195    0.962   .     S
C193   H196    0.961   .     S
C197   H198    0.959   .     S
C197   H199    0.963   .     S
C197   H200    0.959   .     S
C201   H202    0.959   .     S
C201   H203    0.960   .     S
C201   H204    0.958   .     S
Mn205  O210    2.115   .     S
Mn205  O211    2.217   .     S
Mn205  O213    2.263   .     S
Mn205  O214    2.024   .     S
Mn205  O215    2.020   .     S
Mn205  O216    2.071   .     S
N206   Cu885   2.007   1_655 S
N207   Cu917   1.960   .     S
N208   Cu953   1.988   .     S
O209   Cu885   1.954   1_655 D
O212   Cu917   1.962   .     S
O217   Cu953   1.996   .     S
O217   Na956   2.422   .     S
C226   C227    1.519   .     S
C226   O254    1.289   .     A
C226   O255    1.230   .     A
C227   N251    1.268   .     S
C227   O256    1.298   .     D
C228   C229    1.523   .     S
C228   N252    1.304   .     S
C228   O259    1.224   .     D
C229   O257    1.246   .     A
C229   O258    1.298   .     A
C230   C231    1.563   .     S
C230   O261    1.248   .     D
C230   O262    1.245   .     S
C231   N253    1.260   .     S
C231   O260    1.272   .     D
C232   C233    1.411   .     A
C232   N251    1.414   .     A
C232   C776    1.385   .     S
C233   C242    1.505   .     S
C233   C777    1.394   .     A
C234   C237    1.382   .     A
C234   N252    1.477   .     A
C234   C779    1.410   .     S
C235   C236    1.297   .     A
C235   N253    1.461   .     A
C235   C849    1.406   1_556 A
C236   C246    1.532   .     S
C236   C851    1.427   1_556 A
C237   C238    1.496   .     S
C237   C781    1.394   .     A
C238   H239    0.960   .     S
C238   H240    0.962   .     S
C238   H241    0.961   .     S
C242   H243    0.959   .     S
C242   H244    0.963   .     S
C242   H245    0.959   .     S
C246   H247    0.959   .     S
C246   H248    0.960   .     S
C246   H249    0.958   .     S
Mn250  O255    2.115   .     S
Mn250  O256    2.217   .     S
Mn250  O258    2.263   .     S
Mn250  O259    2.024   .     S
Mn250  O260    2.020   .     S
Mn250  O261    2.071   .     S
N251   Cu888   2.007   .     S
N252   Cu922   1.960   .     S
N253   Cu957   1.988   .     S
O254   Cu888   1.954   .     S
O257   Cu922   1.962   .     S
O262   Cu957   1.996   .     S
O262   Na960   2.422   .     S
C271   C272    1.519   .     S
C271   O299    1.289   .     A
C271   O300    1.230   .     A
C272   N296    1.268   .     S
C272   O301    1.298   .     D
C273   C274    1.523   .     S
C273   N297    1.304   .     S
C273   O304    1.224   .     D
C274   O302    1.246   .     A
C274   O303    1.298   .     A
C275   C276    1.563   .     S
C275   O306    1.248   .     D
C275   O307    1.245   .     S
C276   N298    1.260   .     S
C276   O305    1.272   .     D
C277   C278    1.411   .     A
C277   N296    1.414   .     A
C277   C787    1.385   .     S
C278   C287    1.505   .     S
C278   C788    1.394   .     A
C279   C282    1.382   .     A
C279   N297    1.477   .     A
C279   C790    1.410   .     S
C280   C281    1.297   .     A
C280   N298    1.461   .     A
C280   C857    1.406   1_556 S
C281   C291    1.532   .     S
C281   C859    1.427   1_556 D
C282   C283    1.496   .     S
C282   C792    1.394   .     A
C283   H284    0.960   .     S
C283   H285    0.962   .     S
C283   H286    0.961   .     S
C287   H288    0.959   .     S
C287   H289    0.963   .     S
C287   H290    0.959   .     S
C291   H292    0.959   .     S
C291   H293    0.960   .     S
C291   H294    0.958   .     S
Mn295  O300    2.115   .     S
Mn295  O301    2.217   .     S
Mn295  O303    2.263   .     S
Mn295  O304    2.024   .     S
Mn295  O305    2.020   .     S
Mn295  O306    2.071   .     S
N296   Cu891   2.007   .     S
N297   Cu927   1.960   .     S
N298   Cu961   1.988   .     S
O299   Cu891   1.954   .     S
O302   Cu927   1.962   .     S
O307   Cu961   1.996   .     S
O307   Na964   2.422   .     S
C316   C317    1.519   .     S
C316   O344    1.289   .     A
C316   O345    1.230   .     A
C317   N341    1.268   .     S
C317   O346    1.298   .     D
C318   C319    1.523   .     S
C318   N342    1.304   .     S
C318   O349    1.224   .     D
C319   O347    1.246   .     A
C319   O348    1.298   .     A
C320   C321    1.563   .     S
C320   O351    1.248   .     D
C320   O352    1.245   .     S
C321   N343    1.260   .     S
C321   O350    1.272   .     D
C322   C323    1.411   .     A
C322   N341    1.414   .     A
C322   C798    1.385   .     S
C323   C332    1.505   .     S
C323   C799    1.394   .     A
C324   C327    1.382   .     A
C324   N342    1.477   .     A
C324   C801    1.410   .     S
C325   C326    1.297   .     A
C325   N343    1.461   .     A
C325   C865    1.406   1_556 S
C326   C336    1.532   .     S
C326   C867    1.427   1_556 S
C327   C328    1.496   .     S
C327   C803    1.394   .     A
C328   H329    0.960   .     S
C328   H330    0.962   .     S
C328   H331    0.961   .     S
C332   H333    0.959   .     S
C332   H334    0.963   .     S
C332   H335    0.959   .     S
C336   H337    0.959   .     S
C336   H338    0.960   .     S
C336   H339    0.958   .     S
Mn340  O345    2.115   .     S
Mn340  O346    2.217   .     S
Mn340  O348    2.263   .     S
Mn340  O349    2.024   .     S
Mn340  O350    2.020   .     S
Mn340  O351    2.071   .     S
N341   Cu894   2.007   1_565 D
N342   Cu932   1.960   .     S
N343   Cu965   1.988   .     S
O344   Cu894   1.954   1_565 A
O347   Cu932   1.962   .     S
O352   Cu965   1.996   .     S
O352   Na968   2.422   .     S
C361   C362    1.519   .     S
C361   O389    1.289   .     A
C361   O390    1.230   .     A
C362   N386    1.268   .     S
C362   O391    1.298   .     D
C363   C364    1.523   .     S
C363   N387    1.304   .     S
C363   O394    1.224   .     D
C364   O392    1.246   .     A
C364   O393    1.298   .     A
C365   C366    1.563   .     S
C365   O396    1.248   .     D
C365   O397    1.245   .     S
C366   N388    1.260   .     S
C366   O395    1.272   .     D
C367   C368    1.411   .     A
C367   N386    1.414   .     A
C367   C732    1.385   .     S
C368   C377    1.505   .     S
C368   C733    1.394   .     A
C369   C372    1.382   .     A
C369   N387    1.477   .     A
C369   C735    1.410   .     S
C370   C371    1.297   .     A
C370   N388    1.461   .     A
C370   C817    1.406   1_556 A
C371   C381    1.532   .     S
C371   C819    1.427   1_556 S
C372   C373    1.496   .     S
C372   C737    1.394   .     A
C373   H374    0.960   .     S
C373   H375    0.962   .     S
C373   H376    0.961   .     S
C377   H378    0.959   .     S
C377   H379    0.963   .     S
C377   H380    0.959   .     S
C381   H382    0.959   .     S
C381   H383    0.960   .     S
C381   H384    0.958   .     S
Mn385  O390    2.115   .     S
Mn385  O391    2.217   .     S
Mn385  O393    2.263   .     S
Mn385  O394    2.024   .     S
Mn385  O395    2.020   .     S
Mn385  O396    2.071   .     S
N386   Cu888   2.007   1_655 S
N387   Cu917   1.960   .     S
N388   Cu965   1.988   .     S
O389   Cu888   1.954   1_655 A
O392   Cu917   1.962   .     S
O397   Cu965   1.996   .     S
O397   Na968   2.422   .     S
C406   C407    1.519   .     S
C406   O434    1.289   .     A
C406   O435    1.230   .     A
C407   N431    1.268   .     S
C407   O436    1.298   .     D
C408   C409    1.523   .     S
C408   N432    1.304   .     S
C408   O439    1.224   .     D
C409   O437    1.246   .     A
C409   O438    1.298   .     A
C410   C411    1.563   .     S
C410   O441    1.248   .     D
C410   O442    1.245   .     S
C411   N433    1.260   .     S
C411   O440    1.272   .     D
C412   C413    1.411   .     A
C412   N431    1.414   .     A
C412   C721    1.385   .     S
C413   C422    1.505   .     S
C413   C722    1.394   .     A
C414   C417    1.382   .     A
C414   N432    1.477   .     A
C414   C724    1.410   .     S
C415   C416    1.297   .     A
C415   N433    1.461   .     A
C415   C809    1.406   1_556 A
C416   C426    1.532   .     S
C416   C811    1.427   1_556 A
C417   C418    1.496   .     S
C417   C726    1.394   .     A
C418   H419    0.960   .     S
C418   H420    0.962   .     S
C418   H421    0.961   .     S
C422   H423    0.959   .     S
C422   H424    0.963   .     S
C422   H425    0.959   .     S
C426   H427    0.959   .     S
C426   H428    0.960   .     S
C426   H429    0.958   .     S
Mn430  O435    2.115   .     S
Mn430  O436    2.217   .     S
Mn430  O438    2.263   .     S
Mn430  O439    2.024   .     S
Mn430  O440    2.020   .     S
Mn430  O441    2.071   .     S
N431   Cu885   2.007   .     S
N432   Cu922   1.960   .     S
N433   Cu961   1.988   .     S
O434   Cu885   1.954   .     S
O437   Cu922   1.962   .     S
O442   Cu961   1.996   .     S
O442   Na964   2.422   .     S
C451   C452    1.519   .     S
C451   O479    1.289   .     A
C451   O480    1.230   .     A
C452   N476    1.268   .     S
C452   O481    1.298   .     D
C453   C454    1.523   .     S
C453   N477    1.304   .     S
C453   O484    1.224   .     D
C454   O482    1.246   .     A
C454   O483    1.298   .     A
C455   C456    1.563   .     S
C455   O486    1.248   .     D
C455   O487    1.245   .     S
C456   N478    1.260   .     S
C456   O485    1.272   .     D
C457   C458    1.411   .     A
C457   N476    1.414   .     A
C457   C754    1.385   .     S
C458   C467    1.505   .     S
C458   C755    1.394   .     A
C459   C462    1.382   .     A
C459   N477    1.477   .     A
C459   C757    1.410   .     S
C460   C461    1.297   .     A
C460   N478    1.461   .     A
C460   C833    1.406   1_556 S
C461   C471    1.532   .     S
C461   C835    1.427   1_556 A
C462   C463    1.496   .     S
C462   C759    1.394   .     A
C463   H464    0.960   .     S
C463   H465    0.962   .     S
C463   H466    0.961   .     S
C467   H468    0.959   .     S
C467   H469    0.963   .     S
C467   H470    0.959   .     S
C471   H472    0.959   .     S
C471   H473    0.960   .     S
C471   H474    0.958   .     S
Mn475  O480    2.115   .     S
Mn475  O481    2.217   .     S
Mn475  O483    2.263   .     S
Mn475  O484    2.024   .     S
Mn475  O485    2.020   .     S
Mn475  O486    2.071   .     S
N476   Cu891   2.007   1_565 A
N477   Cu932   1.960   .     S
N478   Cu957   1.988   .     S
O479   Cu891   1.954   1_565 S
O482   Cu932   1.962   .     S
O487   Cu957   1.996   .     S
O487   Na960   2.422   .     S
C496   C497    1.519   .     S
C496   O524    1.289   .     A
C496   O525    1.230   .     A
C497   N521    1.268   .     S
C497   O526    1.298   .     D
C498   C499    1.523   .     S
C498   N522    1.304   .     S
C498   O529    1.224   .     D
C499   O527    1.246   .     A
C499   O528    1.298   .     A
C500   C501    1.563   .     S
C500   O531    1.248   .     D
C500   O532    1.245   .     S
C501   N523    1.260   .     S
C501   O530    1.272   .     D
C502   C503    1.411   .     A
C502   N521    1.414   .     A
C502   C743    1.385   .     S
C503   C512    1.505   .     S
C503   C744    1.394   .     A
C504   C507    1.382   .     A
C504   N522    1.477   .     A
C504   C746    1.410   .     S
C505   C506    1.297   .     A
C505   N523    1.461   .     A
C505   C825    1.406   1_556 S
C506   C516    1.532   .     S
C506   C827    1.427   1_556 A
C507   C508    1.496   .     S
C507   C748    1.394   .     A
C508   H509    0.960   .     S
C508   H510    0.962   .     S
C508   H511    0.961   .     S
C512   H513    0.959   .     S
C512   H514    0.963   .     S
C512   H515    0.959   .     S
C516   H517    0.959   .     S
C516   H518    0.960   .     S
C516   H519    0.958   .     S
Mn520  O525    2.115   .     S
Mn520  O526    2.217   .     S
Mn520  O528    2.263   .     S
Mn520  O529    2.024   .     S
Mn520  O530    2.020   .     S
Mn520  O531    2.071   .     S
N521   Cu894   2.007   .     S
N522   Cu927   1.960   .     S
N523   Cu953   1.988   .     S
O524   Cu894   1.954   .     S
O527   Cu927   1.962   .     S
O532   Cu953   1.996   .     S
O532   Na956   2.422   .     S
C541   C542    1.519   .     S
C541   O569    1.289   .     A
C541   O570    1.230   .     A
C542   N566    1.268   .     S
C542   O571    1.298   .     D
C543   C544    1.523   .     S
C543   N567    1.304   .     S
C543   O574    1.224   .     D
C544   O572    1.246   .     A
C544   O573    1.298   .     A
C545   C546    1.563   .     S
C545   O576    1.248   .     D
C545   O577    1.245   .     S
C546   N568    1.260   .     S
C546   O575    1.272   .     D
C547   C548    1.411   .     A
C547   N566    1.414   .     A
C547   C776    1.385   .     S
C548   C557    1.505   .     S
C548   C777    1.394   .     A
C549   C552    1.382   .     A
C549   N567    1.477   .     A
C549   C779    1.410   .     S
C550   C551    1.297   .     A
C550   N568    1.461   .     A
C550   C849    1.406   .     S
C551   C561    1.532   .     S
C551   C851    1.427   .     A
C552   C553    1.496   .     S
C552   C781    1.394   .     A
C553   H554    0.960   .     S
C553   H555    0.962   .     S
C553   H556    0.961   .     S
C557   H558    0.959   .     S
C557   H559    0.963   .     S
C557   H560    0.959   .     S
C561   H562    0.959   .     S
C561   H563    0.960   .     S
C561   H564    0.958   .     S
Mn565  O570    2.115   .     S
Mn565  O571    2.217   .     S
Mn565  O573    2.263   .     S
Mn565  O574    2.024   .     S
Mn565  O575    2.020   .     S
Mn565  O576    2.071   .     S
N566   Cu876   2.007   .     S
N567   Cu897   1.960   .     S
N568   Cu949   1.988   .     S
O569   Cu876   1.954   .     S
O572   Cu897   1.962   .     S
O577   Cu949   1.996   .     S
O577   Na952   2.422   .     S
C586   C587    1.519   .     S
C586   O614    1.289   .     A
C586   O615    1.230   .     A
C587   N611    1.268   .     S
C587   O616    1.298   .     D
C588   C589    1.523   .     S
C588   N612    1.304   .     S
C588   O619    1.224   .     D
C589   O617    1.246   .     A
C589   O618    1.298   .     A
C590   C591    1.563   .     S
C590   O621    1.248   .     D
C590   O622    1.245   .     S
C591   N613    1.260   .     S
C591   O620    1.272   .     D
C592   C593    1.411   .     A
C592   N611    1.414   .     A
C592   C765    1.385   .     S
C593   C602    1.505   .     S
C593   C766    1.394   .     A
C594   C597    1.382   .     A
C594   N612    1.477   .     A
C594   C768    1.410   .     S
C595   C596    1.297   .     A
C595   N613    1.461   .     A
C595   C841    1.406   .     S
C596   C606    1.532   .     S
C596   C843    1.427   .     A
C597   C598    1.496   .     S
C597   C770    1.394   .     A
C598   H599    0.960   .     S
C598   H600    0.962   .     S
C598   H601    0.961   .     S
C602   H603    0.959   .     S
C602   H604    0.963   .     S
C602   H605    0.959   .     S
C606   H607    0.959   .     S
C606   H608    0.960   .     S
C606   H609    0.958   .     S
Mn610  O615    2.115   .     S
Mn610  O616    2.217   .     S
Mn610  O618    2.263   .     S
Mn610  O619    2.024   .     S
Mn610  O620    2.020   .     S
Mn610  O621    2.071   .     S
N611   Cu873   2.007   1_655 S
N612   Cu902   1.960   .     S
N613   Cu945   1.988   .     S
O614   Cu873   1.954   1_655 A
O617   Cu902   1.962   .     S
O622   Cu945   1.996   .     S
O622   Na948   2.422   .     S
C631   C632    1.519   .     S
C631   O659    1.289   .     A
C631   O660    1.230   .     A
C632   N656    1.268   .     S
C632   O661    1.298   .     D
C633   C634    1.523   .     S
C633   N657    1.304   .     S
C633   O664    1.224   .     D
C634   O662    1.246   .     A
C634   O663    1.298   .     A
C635   C636    1.563   .     S
C635   O666    1.248   .     D
C635   O667    1.245   .     S
C636   N658    1.260   .     S
C636   O665    1.272   .     D
C637   C638    1.411   .     A
C637   N656    1.414   .     A
C637   C798    1.385   .     S
C638   C647    1.505   .     S
C638   C799    1.394   .     A
C639   C642    1.382   .     A
C639   N657    1.477   .     A
C639   C801    1.410   .     S
C640   C641    1.297   .     A
C640   N658    1.461   .     A
C640   C865    1.406   .     S
C641   C651    1.532   .     S
C641   C867    1.427   .     A
C642   C643    1.496   .     S
C642   C803    1.394   .     A
C643   H644    0.960   .     S
C643   H645    0.962   .     S
C643   H646    0.961   .     S
C647   H648    0.959   .     S
C647   H649    0.963   .     S
C647   H650    0.959   .     S
C651   H652    0.959   .     S
C651   H653    0.960   .     S
C651   H654    0.958   .     S
Mn655  O660    2.115   .     S
Mn655  O661    2.217   .     S
Mn655  O663    2.263   .     S
Mn655  O664    2.024   .     S
Mn655  O665    2.020   .     S
Mn655  O666    2.071   .     S
N656   Cu879   2.007   1_565 S
N657   Cu912   1.960   .     S
N658   Cu941   1.988   .     S
O659   Cu879   1.954   1_565 S
O662   Cu912   1.962   .     S
O667   Cu941   1.996   .     S
O667   Na944   2.422   .     S
C676   C677    1.519   .     S
C676   O704    1.289   .     A
C676   O705    1.230   .     A
C677   N701    1.268   .     S
C677   O706    1.298   .     D
C678   C679    1.523   .     S
C678   N702    1.304   .     S
C678   O709    1.224   .     D
C679   O707    1.246   .     A
C679   O708    1.298   .     A
C680   C681    1.563   .     S
C680   O711    1.248   .     D
C680   O712    1.245   .     S
C681   N703    1.260   .     S
C681   O710    1.272   .     D
C682   C683    1.411   .     A
C682   N701    1.414   .     A
C682   C787    1.385   .     S
C683   C692    1.505   .     S
C683   C788    1.394   .     A
C684   C687    1.382   .     A
C684   N702    1.477   .     A
C684   C790    1.410   .     S
C685   C686    1.297   .     A
C685   N703    1.461   .     A
C685   C857    1.406   .     S
C686   C696    1.532   .     S
C686   C859    1.427   .     A
C687   C688    1.496   .     S
C687   C792    1.394   .     A
C688   H689    0.960   .     S
C688   H690    0.962   .     S
C688   H691    0.961   .     S
C692   H693    0.959   .     S
C692   H694    0.963   .     S
C692   H695    0.959   .     S
C696   H697    0.959   .     S
C696   H698    0.960   .     S
C696   H699    0.958   .     S
Mn700  O705    2.115   .     S
Mn700  O706    2.217   .     S
Mn700  O708    2.263   .     S
Mn700  O709    2.024   .     S
Mn700  O710    2.020   .     S
Mn700  O711    2.071   .     S
N701   Cu882   2.007   .     S
N702   Cu907   1.960   .     S
N703   Cu937   1.988   .     S
O704   Cu882   1.954   .     S
O707   Cu907   1.962   .     S
O712   Cu937   1.996   .     S
O712   Na940   2.422   .     S
C721   C728    1.519   .     D
C722   H723    0.932   .     S
C724   C725    1.490   .     D
C726   H727    0.930   .     S
O730   Na940   2.506   .     S
O730   Na964   2.506   .     S
C732   C739    1.519   .     D
C733   H734    0.932   .     S
C735   C736    1.490   .     D
C737   H738    0.930   .     S
O741   Na944   2.506   .     S
O741   Na968   2.506   .     S
C743   C750    1.519   .     D
C744   H745    0.932   .     S
C746   C747    1.490   .     D
C748   H749    0.930   .     S
O752   Na948   2.506   .     S
O752   Na956   2.506   .     S
C754   C761    1.519   .     D
C755   H756    0.932   .     S
C757   C758    1.490   .     D
C759   H760    0.930   .     S
O763   Na952   2.506   .     S
O763   Na960   2.506   .     S
C765   C772    1.519   .     D
C766   H767    0.932   .     S
C768   C769    1.490   .     D
C770   H771    0.930   .     S
O774   Na948   2.506   .     S
O774   Na956   2.506   .     S
C776   C783    1.519   .     D
C777   H778    0.932   .     S
C779   C780    1.490   .     D
C781   H782    0.930   .     S
O785   Na952   2.506   .     S
O785   Na960   2.506   .     S
C787   C794    1.519   .     D
C788   H789    0.932   .     S
C790   C791    1.490   .     D
C792   H793    0.930   .     S
O796   Na940   2.506   .     S
O796   Na964   2.506   .     S
C798   C805    1.519   .     D
C799   H800    0.932   .     S
C801   C802    1.490   .     D
C803   H804    0.930   .     S
O807   Na944   2.506   .     S
O807   Na968   2.506   .     S
C809   C810    1.477   .     D
C809   C415    1.406   1_554 A
C811   H812    0.930   .     S
C811   C416    1.427   1_554 A
C817   C818    1.477   .     D
C817   C370    1.406   1_554 A
C819   H820    0.930   .     S
C819   C371    1.427   1_554 S
C825   C826    1.477   .     D
C825   C505    1.406   1_554 S
C827   H828    0.930   .     S
C827   C506    1.427   1_554 A
C833   C834    1.477   .     D
C833   C460    1.406   1_554 S
C835   H836    0.930   .     S
C835   C461    1.427   1_554 A
C841   C842    1.477   .     D
C841   C190    1.406   1_554 D
C843   H844    0.930   .     S
C843   C191    1.427   1_554 S
C849   C850    1.477   .     D
C849   C235    1.406   1_554 A
C851   H852    0.930   .     S
C851   C236    1.427   1_554 A
C857   C858    1.477   .     D
C857   C280    1.406   1_554 S
C859   H860    0.930   .     S
C859   C281    1.427   1_554 D
C865   C866    1.477   .     D
C865   C325    1.406   1_554 S
C867   H868    0.930   .     S
C867   C326    1.427   1_554 S
Cu873  N611    2.007   1_455 S
Cu873  O614    1.954   1_455 A
Cu876  N71     2.007   1_455 S
Cu876  O74     1.954   1_455 A
Cu879  N656    2.007   1_545 S
Cu879  O659    1.954   1_545 S
Cu882  N161    2.007   1_545 A
Cu882  O164    1.954   1_545 S
Cu885  N206    2.007   1_455 S
Cu885  O209    1.954   1_455 D
Cu888  N386    2.007   1_455 S
Cu888  O389    1.954   1_455 A
Cu891  N476    2.007   1_545 A
Cu891  O479    1.954   1_545 S
Cu894  N341    2.007   1_545 D
Cu894  O344    1.954   1_545 A
Na940  Na964   2.126   .     S
Na944  Na968   2.126   .     S
Na948  Na956   2.126   .     S
Na952  Na960   2.126   .     S
