data_YEYVOO_clean5b
_audit_creation_date              2014-07-02
_audit_creation_method            'Materials Studio'
_symmetry_space_group_name_H-M    'P1'
_symmetry_Int_Tables_number       1
_symmetry_cell_setting            triclinic
loop_
_symmetry_equiv_pos_as_xyz
  x,y,z
_cell_length_a                    45.8321
_cell_length_b                    45.8321
_cell_length_c                    45.8321
_cell_angle_alpha                 94.8259
_cell_angle_beta                  94.8259
_cell_angle_gamma                 146.2780
loop_
_atom_site_label
_atom_site_type_symbol
_atom_site_fract_x
_atom_site_fract_y
_atom_site_fract_z
_atom_site_U_iso_or_equiv
_atom_site_adp_type
_atom_site_occupancy
N1     N     0.09877   0.55374   0.53451   0.01267  Uiso   1.00
N2     N     0.10324   0.57498   0.56142   0.01267  Uiso   1.00
N3     N     0.96377   0.49673   0.57570   0.01267  Uiso   1.00
N4     N     0.91361   0.44979   0.55580   0.01267  Uiso   1.00
N5     N     0.89966   0.37486   0.48412   0.01267  Uiso   1.00
N6     N     0.94809   0.40546   0.47915   0.01267  Uiso   1.00
N7     N     0.11860   0.33457   0.95457   0.01267  Uiso   1.00
N8     N     0.14370   0.37050   0.93800   0.01267  Uiso   1.00
N9     N     0.14218   0.33560   0.85198   0.01267  Uiso   1.00
N10    N     0.11580   0.28750   0.83870   0.01267  Uiso   1.00
N11    N     0.03062   0.17317   0.88779   0.01267  Uiso   1.00
N12    N     0.02810   0.18400   0.91630   0.01267  Uiso   1.00
N13    N     0.29484   0.42696   0.78320   0.01267  Uiso   1.00
N14    N     0.27430   0.43470   0.76880   0.01267  Uiso   1.00
N15    N     0.34254   0.52781   0.70855   0.01267  Uiso   1.00
N16    N     0.38642   0.55265   0.70047   0.01267  Uiso   1.00
N17    N     0.45492   0.53636   0.74208   0.01267  Uiso   1.00
N18    N     0.42818   0.50270   0.76048   0.01267  Uiso   1.00
N19    N     0.35921   0.63970   0.64051   0.01267  Uiso   1.00
N20    N     0.40916   0.68570   0.66126   0.01267  Uiso   1.00
N21    N     0.49688   0.83636   0.67904   0.01267  Uiso   1.00
N22    N     0.47458   0.84228   0.66746   0.01267  Uiso   1.00
N23    N     0.31810   0.70586   0.60916   0.01267  Uiso   1.00
N24    N     0.29040   0.65730   0.60270   0.01267  Uiso   1.00
N25    N     0.65287   0.05284   0.76011   0.01267  Uiso   1.00
N26    N     0.63081   0.02083   0.78004   0.01267  Uiso   1.00
N27    N     0.65978   0.08519   0.86717   0.01267  Uiso   1.00
N28    N     0.68515   0.13322   0.87437   0.01267  Uiso   1.00
N29    N     0.75295   0.22636   0.81231   0.01267  Uiso   1.00
N30    N     0.74870   0.20662   0.78632   0.01267  Uiso   1.00
N31    N     0.78605   0.69017   0.84482   0.01267  Uiso   1.00
N32    N     0.74292   0.66962   0.85274   0.01267  Uiso   1.00
N33    N     0.60021   0.56336   0.78837   0.01267  Uiso   1.00
N34    N     0.59074   0.54612   0.75826   0.01267  Uiso   1.00
N35    N     0.70373   0.58459   0.73692   0.01267  Uiso   1.00
N36    N     0.75150   0.62003   0.75813   0.01267  Uiso   1.00
N37    N     0.80511   0.18111   0.29162   0.01267  Uiso   1.00
N38    N     0.78316   0.13479   0.28175   0.01267  Uiso   1.00
N39    N     0.88743   0.22588   0.18631   0.01267  Uiso   1.00
N40    N     0.85581   0.22342   0.17583   0.01267  Uiso   1.00
N41    N     0.79931   0.19169   0.40020   0.01267  Uiso   1.00
N42    N     0.81909   0.22163   0.37992   0.01267  Uiso   1.00
N43    N     0.32106   0.63156   0.15882   0.01267  Uiso   1.00
N44    N     0.27000   0.58543   0.13783   0.01267  Uiso   1.00
N45    N     0.25190   0.52067   0.05677   0.01267  Uiso   1.00
N46    N     0.29640   0.54260   0.05100   0.01267  Uiso   1.00
N47    N     0.17090   0.55480   0.22710   0.01267  Uiso   1.00
N48    N     0.19580   0.55260   0.24420   0.01267  Uiso   1.00
N49    N     0.81926   0.42147   0.65013   0.01267  Uiso   1.00
N50    N     0.84632   0.42087   0.66599   0.01267  Uiso   1.00
N51    N     0.79080   0.34624   0.73504   0.01267  Uiso   1.00
N52    N     0.74751   0.32250   0.74341   0.01267  Uiso   1.00
N53    N     0.81800   0.62513   0.65273   0.01267  Uiso   1.00
N54    N     0.85100   0.67793   0.66173   0.01267  Uiso   1.00
N55    N     0.03040   0.07190   0.95870   0.01267  Uiso   1.00
N56    N     0.98200   0.02570   0.93610   0.01267  Uiso   1.00
N57    N     0.90660   0.88230   0.93130   0.01267  Uiso   1.00
N58    N     0.93340   0.88240   0.94740   0.01267  Uiso   1.00
N59    N     0.52450   0.01550   0.94240   0.01267  Uiso   1.00
N60    N     0.57250   0.06100   0.96690   0.01267  Uiso   1.00
C1     C     0.15310   0.56270   0.51360   0.01267  Uiso   1.00
C2     C     0.14580   0.57690   0.53950   0.01267  Uiso   1.00
C3     C     0.17880   0.61257   0.56817   0.01267  Uiso   1.00
C4     C     0.15219   0.61010   0.58149   0.01267  Uiso   1.00
C5     C     0.16830   0.63940   0.61270   0.01267  Uiso   1.00
C6     C     0.00210   0.54710   0.63060   0.01267  Uiso   1.00
C7     C     0.95660   0.50110   0.60290   0.01267  Uiso   1.00
C8     C     0.89950   0.45660   0.59950   0.01267  Uiso   1.00
C9     C     0.87500   0.42610   0.56970   0.01267  Uiso   1.00
C10    C     0.81500   0.37260   0.55340   0.01267  Uiso   1.00
C11    C     0.80120   0.28370   0.46590   0.01267  Uiso   1.00
C12    C     0.85760   0.32320   0.46500   0.01267  Uiso   1.00
C13    C     0.87810   0.31940   0.44890   0.01267  Uiso   1.00
C14    C     0.93500   0.37110   0.45750   0.01267  Uiso   1.00
C15    C     0.97770   0.38930   0.44840   0.01267  Uiso   1.00
C16    C     0.12580   0.33640   0.00940   0.01267  Uiso   1.00
C17    C     0.14200   0.36200   0.98400   0.01267  Uiso   1.00
C18    C     0.18420   0.41860   0.98720   0.01267  Uiso   1.00
C19    C     0.18270   0.42060   0.95750   0.01267  Uiso   1.00
C20    C     0.21740   0.46920   0.94480   0.01267  Uiso   1.00
C21    C     0.21400   0.42850   0.84830   0.01267  Uiso   1.00
C22    C     0.18240   0.37430   0.83890   0.01267  Uiso   1.00
C23    C     0.18390   0.35290   0.81720   0.01267  Uiso   1.00
C24    C     0.14120   0.29850   0.81810   0.01267  Uiso   1.00
C25    C     0.12350   0.25460   0.79870   0.01267  Uiso   1.00
C26    C     0.02500   0.11990   0.86030   0.01267  Uiso   1.00
C27    C     0.02420   0.13900   0.88880   0.01267  Uiso   1.00
C28    C     0.01800   0.12710   0.91570   0.01267  Uiso   1.00
C29    C     0.02100   0.15720   0.93180   0.01267  Uiso   1.00
C30    C     0.01550   0.16080   0.96450   0.01267  Uiso   1.00
C31    C     0.27620   0.38110   0.82070   0.01267  Uiso   1.00
C32    C     0.26320   0.39530   0.80130   0.01267  Uiso   1.00
C33    C     0.22350   0.38330   0.79940   0.01267  Uiso   1.00
C34    C     0.23210   0.40900   0.77930   0.01267  Uiso   1.00
C35    C     0.20250   0.41150   0.76780   0.01267  Uiso   1.00
C36    C     0.28650   0.52530   0.70000   0.01267  Uiso   1.00
C37    C     0.33170   0.54390   0.69540   0.01267  Uiso   1.00
C38    C     0.36920   0.58100   0.67980   0.01267  Uiso   1.00
C39    C     0.40190   0.58350   0.68260   0.01267  Uiso   1.00
C40    C     0.45000   0.61660   0.67100   0.01267  Uiso   1.00
C41    C     0.53440   0.59640   0.72220   0.01267  Uiso   1.00
C42    C     0.49650   0.55450   0.73940   0.01267  Uiso   1.00
C43    C     0.49820   0.53180   0.75700   0.01267  Uiso   1.00
C44    C     0.45367   0.49860   0.76887   0.01267  Uiso   1.00
C45    C     0.43310   0.46300   0.78870   0.01267  Uiso   1.00
C46    C     0.28340   0.54000   0.62420   0.01267  Uiso   1.00
C47    C     0.33820   0.59560   0.64360   0.01267  Uiso   1.00
C48    C     0.37530   0.61280   0.66610   0.01267  Uiso   1.00
C49    C     0.41910   0.66990   0.67640   0.01267  Uiso   1.00
C50    C     0.47200   0.71090   0.70130   0.01267  Uiso   1.00
C51    C     0.57120   0.88230   0.72230   0.01267  Uiso   1.00
C52    C     0.53940   0.87960   0.70440   0.01267  Uiso   1.00
C53    C     0.54350   0.91300   0.70830   0.01267  Uiso   1.00
C54    C     0.50300   0.88890   0.68390   0.01267  Uiso   1.00
C55    C     0.48940   0.90920   0.67720   0.01267  Uiso   1.00
C56    C     0.30200   0.74400   0.60040   0.01267  Uiso   1.00
C57    C     0.28220   0.69720   0.59700   0.01267  Uiso   1.00
C58    C     0.22980   0.63990   0.58230   0.01267  Uiso   1.00
C59    C     0.23760   0.61734   0.58654   0.01267  Uiso   1.00
C60    C     0.19750   0.55880   0.57710   0.01267  Uiso   1.00
C61    C     0.63910   0.03920   0.70330   0.01267  Uiso   1.00
C62    C     0.62540   0.01830   0.73150   0.01267  Uiso   1.00
C63    C     0.58280   0.96280   0.73400   0.01267  Uiso   1.00
C64    C     0.58930   0.96820   0.76410   0.01267  Uiso   1.00
C65    C     0.55700   0.92560   0.78040   0.01267  Uiso   1.00
C66    C     0.59250   0.99980   0.88170   0.01267  Uiso   1.00
C67    C     0.62640   0.05500   0.88420   0.01267  Uiso   1.00
C68    C     0.63130   0.08440   0.90430   0.01267  Uiso   1.00
C69    C     0.66770   0.13170   0.89720   0.01267  Uiso   1.00
C70    C     0.69110   0.18130   0.91100   0.01267  Uiso   1.00
C71    C     0.76650   0.28840   0.83450   0.01267  Uiso   1.00
C72    C     0.76068   0.26098   0.80926   0.01267  Uiso   1.00
C73    C     0.76070   0.26400   0.77990   0.01267  Uiso   1.00
C74    C     0.75390   0.22860   0.76590   0.01267  Uiso   1.00
C75    C     0.74810   0.21410   0.73380   0.01267  Uiso   1.00
C76    C     0.88720   0.77170   0.86250   0.01267  Uiso   1.00
C77    C     0.83340   0.73930   0.86490   0.01267  Uiso   1.00
C78    C     0.82170   0.75050   0.88500   0.01267  Uiso   1.00
C79    C     0.76610   0.70750   0.87700   0.01267  Uiso   1.00
C80    C     0.72930   0.69570   0.89040   0.01267  Uiso   1.00
C81    C     0.57240   0.57780   0.82160   0.01267  Uiso   1.00
C82    C     0.56870   0.55960   0.79110   0.01267  Uiso   1.00
C83    C     0.53840   0.54240   0.76260   0.01267  Uiso   1.00
C84    C     0.55351   0.53420   0.74231   0.01267  Uiso   1.00
C85    C     0.53620   0.51650   0.70830   0.01267  Uiso   1.00
C86    C     0.66640   0.54510   0.68050   0.01267  Uiso   1.00
C87    C     0.71070   0.58070   0.70940   0.01267  Uiso   1.00
C88    C     0.76500   0.61550   0.71310   0.01267  Uiso   1.00
C89    C     0.78830   0.63950   0.74480   0.01267  Uiso   1.00
C90    C     0.84470   0.68000   0.76310   0.01267  Uiso   1.00
C91    C     0.85220   0.26060   0.27520   0.01267  Uiso   1.00
C92    C     0.82539   0.20790   0.26989   0.01267  Uiso   1.00
C93    C     0.81860   0.18100   0.24560   0.01267  Uiso   1.00
C94    C     0.79050   0.13480   0.25350   0.01267  Uiso   1.00
C95    C     0.77020   0.08820   0.23660   0.01267  Uiso   1.00
C96    C     0.90690   0.21300   0.23030   0.01267  Uiso   1.00
C97    C     0.87884   0.21207   0.21271   0.01267  Uiso   1.00
C98    C     0.83980   0.19840   0.21860   0.01267  Uiso   1.00
C99    C     0.82720   0.20620   0.19540   0.01267  Uiso   1.00
C100   C     0.78860   0.19930   0.18970   0.01267  Uiso   1.00
C101   C     0.80050   0.19870   0.45440   0.01267  Uiso   1.00
C102   C     0.81580   0.22110   0.42730   0.01267  Uiso   1.00
C103   C     0.84940   0.27302   0.42502   0.01267  Uiso   1.00
C104   C     0.84836   0.26943   0.39459   0.01267  Uiso   1.00
C105   C     0.87560   0.31270   0.37850   0.01267  Uiso   1.00
C106   C     0.35920   0.68330   0.21270   0.01267  Uiso   1.00
C107   C     0.31300   0.63750   0.18470   0.01267  Uiso   1.00
C108   C     0.25750   0.59440   0.18130   0.01267  Uiso   1.00
C109   C     0.23110   0.56210   0.15080   0.01267  Uiso   1.00
C110   C     0.17340   0.51160   0.13420   0.01267  Uiso   1.00
C111   C     0.15180   0.43890   0.03490   0.01267  Uiso   1.00
C112   C     0.20690   0.47320   0.03530   0.01267  Uiso   1.00
C113   C     0.22030   0.46405   0.01495   0.01267  Uiso   1.00
C114   C     0.27640   0.50760   0.02620   0.01267  Uiso   1.00
C115   C     0.31490   0.51990   0.01560   0.01267  Uiso   1.00
C116   C     0.17430   0.57900   0.18150   0.01267  Uiso   1.00
C117   C     0.19150   0.57100   0.20250   0.01267  Uiso   1.00
C118   C     0.22910   0.58040   0.20370   0.01267  Uiso   1.00
C119   C     0.22960   0.56750   0.22990   0.01267  Uiso   1.00
C120   C     0.26060   0.56790   0.24310   0.01267  Uiso   1.00
C121   C     0.81830   0.44370   0.60260   0.01267  Uiso   1.00
C122   C     0.83790   0.43660   0.62470   0.01267  Uiso   1.00
C123   C     0.87440   0.44410   0.62410   0.01267  Uiso   1.00
C124   C     0.87610   0.43140   0.64970   0.01267  Uiso   1.00
C125   C     0.90760   0.43230   0.66150   0.01267  Uiso   1.00
C126   C     0.84980   0.35210   0.74290   0.01267  Uiso   1.00
C127   C     0.80390   0.33200   0.74810   0.01267  Uiso   1.00
C128   C     0.76530   0.29350   0.76340   0.01267  Uiso   1.00
C129   C     0.73080   0.28940   0.76060   0.01267  Uiso   1.00
C130   C     0.68230   0.25650   0.77300   0.01267  Uiso   1.00
C131   C     0.74050   0.53810   0.66540   0.01267  Uiso   1.00
C132   C     0.78281   0.59634   0.67015   0.01267  Uiso   1.00
C133   C     0.79340   0.62940   0.69100   0.01267  Uiso   1.00
C134   C     0.83730   0.68100   0.68510   0.01267  Uiso   1.00
C135   C     0.86560   0.73230   0.70030   0.01267  Uiso   1.00
C136   C     0.10220   0.17060   0.97360   0.01267  Uiso   1.00
C137   C     0.04710   0.11330   0.95260   0.01267  Uiso   1.00
C138   C     0.01220   0.09520   0.92800   0.01267  Uiso   1.00
C139   C     0.97250   0.03960   0.91750   0.01267  Uiso   1.00
C140   C     0.92370   0.99860   0.89030   0.01267  Uiso   1.00
C141   C     0.83290   0.83000   0.88690   0.01267  Uiso   1.00
C142   C     0.86480   0.83670   0.90790   0.01267  Uiso   1.00
C143   C     0.86150   0.80380   0.90750   0.01267  Uiso   1.00
C144   C     0.90440   0.83320   0.93280   0.01267  Uiso   1.00
C145   C     0.92210   0.81920   0.94570   0.01267  Uiso   1.00
C146   C     0.49890   0.97740   0.88870   0.01267  Uiso   1.00
C147   C     0.54150   0.01950   0.91800   0.01267  Uiso   1.00
C148   C     0.59920   0.06490   0.92590   0.01267  Uiso   1.00
C149   C     0.61390   0.08710   0.95620   0.01267  Uiso   1.00
C150   C     0.67205   0.13840   0.97765   0.01267  Uiso   1.00
Ag1    Ag    0.02293   0.48265   0.50532   0.01267  Uiso   1.00
Ag2    Ag    0.03375   0.53835   0.56679   0.01267  Uiso   1.00
Ag3    Ag    0.90644   0.41496   0.51764   0.01267  Uiso   1.00
Ag4    Ag    0.06778   0.25711   0.93323   0.01267  Uiso   1.00
Ag5    Ag    0.13435   0.34713   0.89328   0.01267  Uiso   1.00
Ag6    Ag    0.06641   0.22609   0.86068   0.01267  Uiso   1.00
Ag7    Ag    0.36004   0.46295   0.77067   0.01267  Uiso   1.00
Ag8    Ag    0.30744   0.47895   0.73731   0.01267  Uiso   1.00
Ag9    Ag    0.42065   0.54431   0.72020   0.01267  Uiso   1.00
Ag10   Ag    0.32578   0.64869   0.62021   0.01267  Uiso   1.00
Ag11   Ag    0.45328   0.76059   0.66677   0.01267  Uiso   1.00
Ag12   Ag    0.39824   0.77588   0.63582   0.01267  Uiso   1.00
Ag13   Ag    0.70672   0.13187   0.77513   0.01267  Uiso   1.00
Ag14   Ag    0.65105   0.05645   0.82442   0.01267  Uiso   1.00
Ag15   Ag    0.72579   0.18359   0.84546   0.01267  Uiso   1.00
Ag16   Ag    0.76704   0.65168   0.80280   0.01267  Uiso   1.00
Ag17   Ag    0.67001   0.61064   0.82027   0.01267  Uiso   1.00
Ag18   Ag    0.64370   0.56034   0.74698   0.01267  Uiso   1.00
Ag19   Ag    0.80959   0.19877   0.33564   0.01267  Uiso   1.00
Ag20   Ag    0.75476   0.08827   0.31039   0.01267  Uiso   1.00
Ag21   Ag    0.75702   0.11696   0.38424   0.01267  Uiso   1.00
Ag22   Ag    0.38671   0.66573   0.14964   0.01267  Uiso   1.00
Ag23   Ag    0.26433   0.55760   0.09631   0.01267  Uiso   1.00
Ag24   Ag    0.37058   0.60759   0.08343   0.01267  Uiso   1.00
Ag25   Ag    0.75891   0.39237   0.66404   0.01267  Uiso   1.00
Ag26   Ag    0.82068   0.38796   0.70246   0.01267  Uiso   1.00
Ag27   Ag    0.70831   0.32349   0.72016   0.01267  Uiso   1.00
Ag28   Ag    0.06505   0.07062   0.98685   0.01267  Uiso   1.00
Ag29   Ag    0.94380   0.95449   0.93609   0.01267  Uiso   1.00
Ag30   Ag    0.45106   0.97085   0.94589   0.01267  Uiso   1.00
H1     H     0.12080   0.53560   0.49680   0.01267  Uiso   1.00
H2     H     0.15940   0.54850   0.52010   0.01267  Uiso   1.00
H3     H     0.18380   0.59480   0.50740   0.01267  Uiso   1.00
H4     H     0.20360   0.66240   0.62380   0.01267  Uiso   1.00
H5     H     0.14170   0.61310   0.62320   0.01267  Uiso   1.00
H6     H     0.16990   0.66140   0.61090   0.01267  Uiso   1.00
H7     H     0.03630   0.57140   0.62630   0.01267  Uiso   1.00
H8     H     0.99850   0.53300   0.64670   0.01267  Uiso   1.00
H9     H     0.00070   0.56650   0.63640   0.01267  Uiso   1.00
H10    H     0.81050   0.36150   0.53260   0.01267  Uiso   1.00
H11    H     0.79780   0.37690   0.55390   0.01267  Uiso   1.00
H12    H     0.79840   0.34520   0.56320   0.01267  Uiso   1.00
H13    H     0.77550   0.24900   0.45170   0.01267  Uiso   1.00
H14    H     0.79370   0.29710   0.46060   0.01267  Uiso   1.00
H15    H     0.79790   0.27940   0.48610   0.01267  Uiso   1.00
H16    H     0.01290   0.42770   0.45820   0.01267  Uiso   1.00
H17    H     0.97100   0.38290   0.42670   0.01267  Uiso   1.00
H18    H     0.97700   0.36930   0.45450   0.01267  Uiso   1.00
H19    H     0.09650   0.29780   0.00130   0.01267  Uiso   1.00
H20    H     0.11390   0.34200   0.02130   0.01267  Uiso   1.00
H21    H     0.15660   0.35280   0.02220   0.01267  Uiso   1.00
H22    H     0.20650   0.45720   0.92290   0.01267  Uiso   1.00
H23    H     0.25530   0.49620   0.95250   0.01267  Uiso   1.00
H24    H     0.21210   0.48500   0.95090   0.01267  Uiso   1.00
H25    H     0.20210   0.42930   0.86420   0.01267  Uiso   1.00
H26    H     0.20820   0.43520   0.83120   0.01267  Uiso   1.00
H27    H     0.25220   0.45630   0.85570   0.01267  Uiso   1.00
H28    H     0.09290   0.22090   0.80380   0.01267  Uiso   1.00
H29    H     0.15340   0.26620   0.80280   0.01267  Uiso   1.00
H30    H     0.11330   0.24950   0.77760   0.01267  Uiso   1.00
H31    H     0.01960   0.09540   0.86360   0.01267  Uiso   1.00
H32    H     0.05950   0.15090   0.85600   0.01267  Uiso   1.00
H33    H     0.99610   0.10120   0.84330   0.01267  Uiso   1.00
H34    H     0.01920   0.18480   0.96900   0.01267  Uiso   1.00
H35    H     0.04350   0.17470   0.97900   0.01267  Uiso   1.00
H36    H     0.98010   0.12490   0.96540   0.01267  Uiso   1.00
H37    H     0.30670   0.39620   0.81670   0.01267  Uiso   1.00
H38    H     0.28530   0.39590   0.84180   0.01267  Uiso   1.00
H39    H     0.24500   0.34200   0.81600   0.01267  Uiso   1.00
H40    H     0.21930   0.43350   0.75380   0.01267  Uiso   1.00
H41    H     0.16500   0.37530   0.75770   0.01267  Uiso   1.00
H42    H     0.20450   0.42740   0.78470   0.01267  Uiso   1.00
H43    H     0.26650   0.49890   0.71140   0.01267  Uiso   1.00
H44    H     0.30170   0.55610   0.71100   0.01267  Uiso   1.00
H45    H     0.26240   0.50900   0.68060   0.01267  Uiso   1.00
H46    H     0.46290   0.60830   0.67660   0.01267  Uiso   1.00
H47    H     0.43960   0.60810   0.64930   0.01267  Uiso   1.00
H48    H     0.47860   0.65480   0.68000   0.01267  Uiso   1.00
H49    H     0.52010   0.60170   0.71240   0.01267  Uiso   1.00
H50    H     0.56990   0.63040   0.73610   0.01267  Uiso   1.00
H51    H     0.53760   0.58380   0.70700   0.01267  Uiso   1.00
H52    H     0.40170   0.44560   0.79310   0.01267  Uiso   1.00
H53    H     0.42330   0.43570   0.77840   0.01267  Uiso   1.00
H54    H     0.46130   0.48480   0.80730   0.01267  Uiso   1.00
H55    H     0.26830   0.54210   0.61060   0.01267  Uiso   1.00
H56    H     0.28660   0.52460   0.61260   0.01267  Uiso   1.00
H57    H     0.25980   0.51730   0.63690   0.01267  Uiso   1.00
H58    H     0.49470   0.74700   0.70350   0.01267  Uiso   1.00
H59    H     0.46380   0.70180   0.72020   0.01267  Uiso   1.00
H60    H     0.49090   0.70970   0.69600   0.01267  Uiso   1.00
H61    H     0.59920   0.91450   0.73950   0.01267  Uiso   1.00
H62    H     0.54690   0.85040   0.72950   0.01267  Uiso   1.00
H63    H     0.58790   0.88400   0.70950   0.01267  Uiso   1.00
H64    H     0.45930   0.88430   0.65900   0.01267  Uiso   1.00
H65    H     0.47950   0.91100   0.69410   0.01267  Uiso   1.00
H66    H     0.52070   0.94480   0.67410   0.01267  Uiso   1.00
H67    H     0.33970   0.77660   0.61210   0.01267  Uiso   1.00
H68    H     0.29860   0.74780   0.58060   0.01267  Uiso   1.00
H69    H     0.28070   0.73830   0.61060   0.01267  Uiso   1.00
H70    H     0.16260   0.53660   0.56600   0.01267  Uiso   1.00
H71    H     0.21020   0.55500   0.56440   0.01267  Uiso   1.00
H72    H     0.19400   0.54740   0.59500   0.01267  Uiso   1.00
H73    H     0.66980   0.07830   0.70950   0.01267  Uiso   1.00
H74    H     0.60810   0.02280   0.69090   0.01267  Uiso   1.00
H75    H     0.64800   0.02980   0.69180   0.01267  Uiso   1.00
H76    H     0.57180   0.94240   0.80200   0.01267  Uiso   1.00
H77    H     0.55860   0.90620   0.77560   0.01267  Uiso   1.00
H78    H     0.51970   0.90040   0.77430   0.01267  Uiso   1.00
H79    H     0.59780   0.99080   0.86560   0.01267  Uiso   1.00
H80    H     0.55450   0.97310   0.87720   0.01267  Uiso   1.00
H81    H     0.60320   0.99970   0.90050   0.01267  Uiso   1.00
H82    H     0.67560   0.17480   0.92720   0.01267  Uiso   1.00
H83    H     0.68260   0.18780   0.89560   0.01267  Uiso   1.00
H84    H     0.73010   0.21270   0.91900   0.01267  Uiso   1.00
H85    H     0.76490   0.27810   0.85240   0.01267  Uiso   1.00
H86    H     0.73730   0.27780   0.82930   0.01267  Uiso   1.00
H87    H     0.80100   0.32730   0.83830   0.01267  Uiso   1.00
H88    H     0.74410   0.18980   0.73070   0.01267  Uiso   1.00
H89    H     0.78000   0.24670   0.72830   0.01267  Uiso   1.00
H90    H     0.71630   0.19620   0.72110   0.01267  Uiso   1.00
H91    H     0.88050   0.75150   0.84540   0.01267  Uiso   1.00
H92    H     0.90490   0.77760   0.88090   0.01267  Uiso   1.00
H93    H     0.91030   0.80630   0.85960   0.01267  Uiso   1.00
H94    H     0.69210   0.66120   0.87850   0.01267  Uiso   1.00
H95    H     0.73910   0.72410   0.89060   0.01267  Uiso   1.00
H96    H     0.73310   0.69410   0.91100   0.01267  Uiso   1.00
H97    H     0.59680   0.58780   0.83700   0.01267  Uiso   1.00
H98    H     0.53670   0.54840   0.82490   0.01267  Uiso   1.00
H99    H     0.58580   0.60870   0.82250   0.01267  Uiso   1.00
H100   H     0.55440   0.51530   0.70110   0.01267  Uiso   1.00
H101   H     0.54560   0.54190   0.70070   0.01267  Uiso   1.00
H102   H     0.49730   0.48070   0.70120   0.01267  Uiso   1.00
H103   H     0.63430   0.52630   0.68500   0.01267  Uiso   1.00
H104   H     0.65810   0.51880   0.67050   0.01267  Uiso   1.00
H105   H     0.67810   0.56710   0.66740   0.01267  Uiso   1.00
H106   H     0.84820   0.68800   0.78420   0.01267  Uiso   1.00
H107   H     0.87080   0.71290   0.75670   0.01267  Uiso   1.00
H108   H     0.85130   0.66500   0.75990   0.01267  Uiso   1.00
H109   H     0.85010   0.26810   0.29440   0.01267  Uiso   1.00
H110   H     0.88980   0.29020   0.27520   0.01267  Uiso   1.00
H111   H     0.83360   0.25670   0.25910   0.01267  Uiso   1.00
H112   H     0.75270   0.06290   0.24860   0.01267  Uiso   1.00
H113   H     0.74460   0.06960   0.21740   0.01267  Uiso   1.00
H114   H     0.80070   0.10280   0.23330   0.01267  Uiso   1.00
H115   H     0.93120   0.22360   0.22000   0.01267  Uiso   1.00
H116   H     0.92760   0.23870   0.24990   0.01267  Uiso   1.00
H117   H     0.88070   0.17710   0.23260   0.01267  Uiso   1.00
H118   H     0.79010   0.20880   0.17150   0.01267  Uiso   1.00
H119   H     0.75210   0.16200   0.18770   0.01267  Uiso   1.00
H120   H     0.79930   0.22290   0.20660   0.01267  Uiso   1.00
H121   H     0.77680   0.16190   0.44810   0.01267  Uiso   1.00
H122   H     0.83300   0.22100   0.46960   0.01267  Uiso   1.00
H123   H     0.78190   0.19870   0.46260   0.01267  Uiso   1.00
H124   H     0.86790   0.29940   0.35730   0.01267  Uiso   1.00
H125   H     0.86140   0.32020   0.38020   0.01267  Uiso   1.00
H126   H     0.91430   0.34550   0.38760   0.01267  Uiso   1.00
H127   H     0.39340   0.70760   0.20820   0.01267  Uiso   1.00
H128   H     0.35840   0.70300   0.21920   0.01267  Uiso   1.00
H129   H     0.35560   0.66870   0.22850   0.01267  Uiso   1.00
H130   H     0.16940   0.50010   0.11370   0.01267  Uiso   1.00
H131   H     0.15490   0.48380   0.14430   0.01267  Uiso   1.00
H132   H     0.15770   0.51770   0.13380   0.01267  Uiso   1.00
H133   H     0.15530   0.45630   0.05180   0.01267  Uiso   1.00
H134   H     0.13640   0.43480   0.01620   0.01267  Uiso   1.00
H135   H     0.12820   0.40350   0.03650   0.01267  Uiso   1.00
H136   H     0.35140   0.55410   0.02850   0.01267  Uiso   1.00
H137   H     0.30450   0.49120   0.01630   0.01267  Uiso   1.00
H138   H     0.31360   0.52210   0.99490   0.01267  Uiso   1.00
H139   H     0.14750   0.56860   0.18750   0.01267  Uiso   1.00
H140   H     0.20530   0.61670   0.18160   0.01267  Uiso   1.00
H141   H     0.15860   0.55670   0.16130   0.01267  Uiso   1.00
H142   H     0.25270   0.55800   0.26190   0.01267  Uiso   1.00
H143   H     0.25000   0.54200   0.22900   0.01267  Uiso   1.00
H144   H     0.29910   0.60380   0.24690   0.01267  Uiso   1.00
H145   H     0.79300   0.43510   0.60950   0.01267  Uiso   1.00
H146   H     0.80030   0.41940   0.58270   0.01267  Uiso   1.00
H147   H     0.84910   0.48080   0.60150   0.01267  Uiso   1.00
H148   H     0.90040   0.42200   0.68020   0.01267  Uiso   1.00
H149   H     0.94600   0.46850   0.66530   0.01267  Uiso   1.00
H150   H     0.89720   0.40700   0.64680   0.01267  Uiso   1.00
H151   H     0.86850   0.37780   0.73110   0.01267  Uiso   1.00
H152   H     0.83560   0.32180   0.73220   0.01267  Uiso   1.00
H153   H     0.87490   0.36970   0.76220   0.01267  Uiso   1.00
H154   H     0.66790   0.26290   0.76640   0.01267  Uiso   1.00
H155   H     0.69410   0.26760   0.79490   0.01267  Uiso   1.00
H156   H     0.65450   0.21820   0.76570   0.01267  Uiso   1.00
H157   H     0.71960   0.52450   0.67970   0.01267  Uiso   1.00
H158   H     0.75740   0.53350   0.66810   0.01267  Uiso   1.00
H159   H     0.71660   0.51800   0.64500   0.01267  Uiso   1.00
H160   H     0.89410   0.76050   0.69120   0.01267  Uiso   1.00
H161   H     0.88120   0.74320   0.72160   0.01267  Uiso   1.00
H162   H     0.83970   0.72620   0.69770   0.01267  Uiso   1.00
H163   H     0.11530   0.16840   0.98910   0.01267  Uiso   1.00
H164   H     0.09770   0.18590   0.98300   0.01267  Uiso   1.00
H165   H     0.12800   0.19340   0.96200   0.01267  Uiso   1.00
H166   H     0.90320   0.96360   0.88840   0.01267  Uiso   1.00
H167   H     0.93550   0.00990   0.87240   0.01267  Uiso   1.00
H168   H     0.90100   0.99590   0.89290   0.01267  Uiso   1.00
H169   H     0.84570   0.86040   0.89370   0.01267  Uiso   1.00
H170   H     0.79500   0.79660   0.88620   0.01267  Uiso   1.00
H171   H     0.83710   0.82860   0.86690   0.01267  Uiso   1.00
H172   H     0.95330   0.84850   0.96320   0.01267  Uiso   1.00
H173   H     0.93160   0.81420   0.93060   0.01267  Uiso   1.00
H174   H     0.89260   0.78610   0.95170   0.01267  Uiso   1.00
H175   H     0.46350   0.95210   0.89140   0.01267  Uiso   1.00
H176   H     0.50000   0.95790   0.88190   0.01267  Uiso   1.00
H177   H     0.50550   0.99470   0.87360   0.01267  Uiso   1.00
H178   H     0.67070   0.14460   0.99770   0.01267  Uiso   1.00
H179   H     0.69330   0.16950   0.97020   0.01267  Uiso   1.00
H180   H     0.68870   0.13350   0.97860   0.01267  Uiso   1.00
N61    N     0.51923   0.56426   0.96549   0.01267  Uiso   1.00
N62    N     0.51356   0.54182   0.93858   0.01267  Uiso   1.00
N63    N     0.42103   0.38807   0.92430   0.01267  Uiso   1.00
N64    N     0.39399   0.35781   0.94420   0.01267  Uiso   1.00
N65    N     0.39074   0.41554   0.01588   0.01267  Uiso   1.00
N66    N     0.42631   0.46894   0.02085   0.01267  Uiso   1.00
N67    N     0.88000   0.16403   0.54543   0.01267  Uiso   1.00
N68    N     0.93250   0.20570   0.56200   0.01267  Uiso   1.00
N69    N     0.98362   0.29020   0.64802   0.01267  Uiso   1.00
N70    N     0.94880   0.27710   0.66130   0.01267  Uiso   1.00
N71    N     0.78538   0.14283   0.61221   0.01267  Uiso   1.00
N72    N     0.76770   0.11180   0.58370   0.01267  Uiso   1.00
N73    N     0.14376   0.51164   0.71680   0.01267  Uiso   1.00
N74    N     0.16590   0.50550   0.73120   0.01267  Uiso   1.00
N75    N     0.31926   0.63399   0.79145   0.01267  Uiso   1.00
N76    N     0.35218   0.68595   0.79953   0.01267  Uiso   1.00
N77    N     0.29428   0.71284   0.75792   0.01267  Uiso   1.00
N78    N     0.24222   0.66770   0.73952   0.01267  Uiso   1.00
N79    N     0.49919   0.71870   0.85949   0.01267  Uiso   1.00
N80    N     0.52444   0.74790   0.83874   0.01267  Uiso   1.00
N81    N     0.65732   0.81784   0.82096   0.01267  Uiso   1.00
N82    N     0.67482   0.80712   0.83254   0.01267  Uiso   1.00
N83    N     0.59670   0.70894   0.89084   0.01267  Uiso   1.00
N84    N     0.55460   0.68770   0.89730   0.01267  Uiso   1.00
N85    N     0.79273   0.89276   0.73989   0.01267  Uiso   1.00
N86    N     0.74079   0.85077   0.71996   0.01267  Uiso   1.00
N87    N     0.71802   0.79261   0.63283   0.01267  Uiso   1.00
N88    N     0.75885   0.81078   0.62563   0.01267  Uiso   1.00
N89    N     0.91405   0.94064   0.68769   0.01267  Uiso   1.00
N90    N     0.92030   0.96238   0.71368   0.01267  Uiso   1.00
N91    N     0.34535   0.94123   0.65518   0.01267  Uiso   1.00
N92    N     0.31688   0.89018   0.64726   0.01267  Uiso   1.00
N93    N     0.27499   0.81184   0.71163   0.01267  Uiso   1.00
N94    N     0.28786   0.83248   0.74174   0.01267  Uiso   1.00
N95    N     0.34767   0.96681   0.76308   0.01267  Uiso   1.00
N96    N     0.36190   0.99337   0.74187   0.01267  Uiso   1.00
N97    N     0.38949   0.51349   0.20838   0.01267  Uiso   1.00
N98    N     0.35304   0.50141   0.21825   0.01267  Uiso   1.00
N99    N     0.53957   0.70112   0.31369   0.01267  Uiso   1.00
N100   N     0.54759   0.67998   0.32417   0.01267  Uiso   1.00
N101   N     0.29149   0.39911   0.09980   0.01267  Uiso   1.00
N102   N     0.34171   0.43917   0.12008   0.01267  Uiso   1.00
N103   N     0.97274   0.16224   0.34118   0.01267  Uiso   1.00
N104   N     0.94760   0.13217   0.36217   0.01267  Uiso   1.00
N105   N     0.96390   0.19513   0.44323   0.01267  Uiso   1.00
N106   N     0.99160   0.24540   0.44900   0.01267  Uiso   1.00
N107   N     0.82770   0.94380   0.27290   0.01267  Uiso   1.00
N108   N     0.80840   0.95160   0.25580   0.01267  Uiso   1.00
N109   N     0.27134   0.16913   0.84987   0.01267  Uiso   1.00
N110   N     0.25488   0.18033   0.83401   0.01267  Uiso   1.00
N111   N     0.11120   0.05576   0.76496   0.01267  Uiso   1.00
N112   N     0.07909   0.00410   0.75659   0.01267  Uiso   1.00
N113   N     0.47240   0.16527   0.84727   0.01267  Uiso   1.00
N114   N     0.51620   0.18927   0.83827   0.01267  Uiso   1.00
N115   N     0.61320   0.07170   0.54130   0.01267  Uiso   1.00
N116   N     0.58960   0.04590   0.56390   0.01267  Uiso   1.00
N117   N     0.45100   0.97530   0.56870   0.01267  Uiso   1.00
N118   N     0.43500   0.98600   0.55260   0.01267  Uiso   1.00
N119   N     0.57310   0.58210   0.55760   0.01267  Uiso   1.00
N120   N     0.59410   0.60560   0.53310   0.01267  Uiso   1.00
C151   C     0.54910   0.63950   0.98640   0.01267  Uiso   1.00
C152   C     0.53740   0.60630   0.96050   0.01267  Uiso   1.00
C153   C     0.54440   0.61063   0.93183   0.01267  Uiso   1.00
C154   C     0.52861   0.57070   0.91851   0.01267  Uiso   1.00
C155   C     0.52670   0.55560   0.88730   0.01267  Uiso   1.00
C156   C     0.41650   0.37150   0.86940   0.01267  Uiso   1.00
C157   C     0.39820   0.35370   0.89710   0.01267  Uiso   1.00
C158   C     0.35710   0.30000   0.90050   0.01267  Uiso   1.00
C159   C     0.35640   0.30530   0.93030   0.01267  Uiso   1.00
C160   C     0.31920   0.26160   0.94660   0.01267  Uiso   1.00
C161   C     0.31780   0.33530   0.03410   0.01267  Uiso   1.00
C162   C     0.35820   0.39260   0.03500   0.01267  Uiso   1.00
C163   C     0.37050   0.42920   0.05110   0.01267  Uiso   1.00
C164   C     0.41360   0.47750   0.04250   0.01267  Uiso   1.00
C165   C     0.44090   0.52930   0.05160   0.01267  Uiso   1.00
C166   C     0.82700   0.11640   0.49060   0.01267  Uiso   1.00
C167   C     0.87800   0.15800   0.51600   0.01267  Uiso   1.00
C168   C     0.93140   0.19700   0.51280   0.01267  Uiso   1.00
C169   C     0.96310   0.22520   0.54250   0.01267  Uiso   1.00
C170   C     0.02440   0.27260   0.55520   0.01267  Uiso   1.00
C171   C     0.08020   0.36570   0.65170   0.01267  Uiso   1.00
C172   C     0.03540   0.34350   0.66110   0.01267  Uiso   1.00
C173   C     0.03570   0.36670   0.68280   0.01267  Uiso   1.00
C174   C     0.98040   0.32310   0.68190   0.01267  Uiso   1.00
C175   C     0.95590   0.32480   0.70130   0.01267  Uiso   1.00
C176   C     0.75960   0.16470   0.63970   0.01267  Uiso   1.00
C177   C     0.75020   0.13540   0.61120   0.01267  Uiso   1.00
C178   C     0.71140   0.10230   0.58430   0.01267  Uiso   1.00
C179   C     0.72540   0.08920   0.56820   0.01267  Uiso   1.00
C180   C     0.69630   0.05100   0.53550   0.01267  Uiso   1.00
C181   C     0.06040   0.45550   0.67930   0.01267  Uiso   1.00
C182   C     0.09400   0.46190   0.69870   0.01267  Uiso   1.00
C183   C     0.08390   0.42410   0.70060   0.01267  Uiso   1.00
C184   C     0.12970   0.45280   0.72070   0.01267  Uiso   1.00
C185   C     0.14370   0.43470   0.73220   0.01267  Uiso   1.00
C186   C     0.32530   0.58650   0.80000   0.01267  Uiso   1.00
C187   C     0.34850   0.63630   0.80460   0.01267  Uiso   1.00
C188   C     0.40120   0.68940   0.82020   0.01267  Uiso   1.00
C189   C     0.40090   0.71930   0.81740   0.01267  Uiso   1.00
C190   C     0.44560   0.77900   0.82900   0.01267  Uiso   1.00
C191   C     0.37420   0.81220   0.77780   0.01267  Uiso   1.00
C192   C     0.31510   0.75710   0.76060   0.01267  Uiso   1.00
C193   C     0.27480   0.74120   0.74300   0.01267  Uiso   1.00
C194   C     0.22973   0.68480   0.73113   0.01267  Uiso   1.00
C195   C     0.17430   0.64440   0.71130   0.01267  Uiso   1.00
C196   C     0.41580   0.65920   0.87580   0.01267  Uiso   1.00
C197   C     0.45200   0.69460   0.85640   0.01267  Uiso   1.00
C198   C     0.44670   0.70920   0.83390   0.01267  Uiso   1.00
C199   C     0.49350   0.74270   0.82360   0.01267  Uiso   1.00
C200   C     0.50960   0.77070   0.79870   0.01267  Uiso   1.00
C201   C     0.66000   0.84890   0.77770   0.01267  Uiso   1.00
C202   C     0.67520   0.83500   0.79560   0.01267  Uiso   1.00
C203   C     0.70470   0.83520   0.79170   0.01267  Uiso   1.00
C204   C     0.70500   0.81910   0.81610   0.01267  Uiso   1.00
C205   C     0.73200   0.81220   0.82280   0.01267  Uiso   1.00
C206   C     0.64360   0.70160   0.89960   0.01267  Uiso   1.00
C207   C     0.60020   0.68520   0.90300   0.01267  Uiso   1.00
C208   C     0.55760   0.64750   0.91770   0.01267  Uiso   1.00
C209   C     0.53080   0.65106   0.91346   0.01267  Uiso   1.00
C210   C     0.48170   0.62040   0.92290   0.01267  Uiso   1.00
C211   C     0.83590   0.93580   0.79670   0.01267  Uiso   1.00
C212   C     0.78680   0.89390   0.76850   0.01267  Uiso   1.00
C213   C     0.72880   0.84880   0.76600   0.01267  Uiso   1.00
C214   C     0.70410   0.82520   0.73590   0.01267  Uiso   1.00
C215   C     0.64520   0.77660   0.71960   0.01267  Uiso   1.00
C216   C     0.61810   0.71080   0.61830   0.01267  Uiso   1.00
C217   C     0.67080   0.74220   0.61580   0.01267  Uiso   1.00
C218   C     0.68010   0.72700   0.59570   0.01267  Uiso   1.00
C219   C     0.73450   0.77050   0.60280   0.01267  Uiso   1.00
C220   C     0.77030   0.78010   0.58900   0.01267  Uiso   1.00
C221   C     0.95390   0.93200   0.66550   0.01267  Uiso   1.00
C222   C     0.95172   0.95142   0.69074   0.01267  Uiso   1.00
C223   C     0.98410   0.98080   0.72010   0.01267  Uiso   1.00
C224   C     0.96270   0.98800   0.73410   0.01267  Uiso   1.00
C225   C     0.98030   0.01430   0.76620   0.01267  Uiso   1.00
C226   C     0.40920   0.02470   0.63750   0.01267  Uiso   1.00
C227   C     0.37440   0.96850   0.63510   0.01267  Uiso   1.00
C228   C     0.36550   0.93670   0.61500   0.01267  Uiso   1.00
C229   C     0.33050   0.88910   0.62300   0.01267  Uiso   1.00
C230   C     0.30530   0.83890   0.60960   0.01267  Uiso   1.00
C231   C     0.25620   0.75080   0.67840   0.01267  Uiso   1.00
C232   C     0.26850   0.77760   0.70890   0.01267  Uiso   1.00
C233   C     0.27980   0.77580   0.73740   0.01267  Uiso   1.00
C234   C     0.29189   0.81120   0.75769   0.01267  Uiso   1.00
C235   C     0.30820   0.82790   0.79170   0.01267  Uiso   1.00
C236   C     0.36460   0.98590   0.81950   0.01267  Uiso   1.00
C237   C     0.37130   0.00130   0.79060   0.01267  Uiso   1.00
C238   C     0.40240   0.05190   0.78690   0.01267  Uiso   1.00
C239   C     0.39470   0.04350   0.75520   0.01267  Uiso   1.00
C240   C     0.41690   0.08160   0.73690   0.01267  Uiso   1.00
C241   C     0.48540   0.57700   0.22480   0.01267  Uiso   1.00
C242   C     0.43801   0.55550   0.23011   0.01267  Uiso   1.00
C243   C     0.43540   0.57300   0.25440   0.01267  Uiso   1.00
C244   C     0.38130   0.53700   0.24650   0.01267  Uiso   1.00
C245   C     0.35160   0.53360   0.26340   0.01267  Uiso   1.00
C246   C     0.48270   0.67660   0.26970   0.01267  Uiso   1.00
C247   C     0.49936   0.66613   0.28729   0.01267  Uiso   1.00
C248   C     0.47980   0.62120   0.28140   0.01267  Uiso   1.00
C249   C     0.51080   0.63180   0.30460   0.01267  Uiso   1.00
C250   C     0.50960   0.59890   0.31030   0.01267  Uiso   1.00
C251   C     0.24430   0.34610   0.04560   0.01267  Uiso   1.00
C252   C     0.29380   0.38850   0.07270   0.01267  Uiso   1.00
C253   C     0.34800   0.42438   0.07498   0.01267  Uiso   1.00
C254   C     0.37484   0.45377   0.10541   0.01267  Uiso   1.00
C255   C     0.43420   0.49710   0.12150   0.01267  Uiso   1.00
C256   C     0.97060   0.14650   0.28730   0.01267  Uiso   1.00
C257   C     0.95280   0.12830   0.31530   0.01267  Uiso   1.00
C258   C     0.91310   0.07620   0.31870   0.01267  Uiso   1.00
C259   C     0.91130   0.08030   0.34920   0.01267  Uiso   1.00
C260   C     0.87740   0.03920   0.36580   0.01267  Uiso   1.00
C261   C     0.90400   0.11690   0.46510   0.01267  Uiso   1.00
C262   C     0.93790   0.17160   0.46470   0.01267  Uiso   1.00
C263   C     0.94910   0.20535   0.48505   0.01267  Uiso   1.00
C264   C     0.98140   0.25020   0.47380   0.01267  Uiso   1.00
C265   C     0.00430   0.29930   0.48440   0.01267  Uiso   1.00
C266   C     0.89750   0.99280   0.31850   0.01267  Uiso   1.00
C267   C     0.86850   0.98900   0.29750   0.01267  Uiso   1.00
C268   C     0.87670   0.02540   0.29630   0.01267  Uiso   1.00
C269   C     0.83760   0.99970   0.27010   0.01267  Uiso   1.00
C270   C     0.82480   0.01750   0.25690   0.01267  Uiso   1.00
C271   C     0.34110   0.21570   0.89740   0.01267  Uiso   1.00
C272   C     0.31190   0.21320   0.87530   0.01267  Uiso   1.00
C273   C     0.32000   0.25030   0.87590   0.01267  Uiso   1.00
C274   C     0.28170   0.22640   0.85030   0.01267  Uiso   1.00
C275   C     0.27080   0.24610   0.83850   0.01267  Uiso   1.00
C276   C     0.10920   0.10690   0.75710   0.01267  Uiso   1.00
C277   C     0.08390   0.05580   0.75190   0.01267  Uiso   1.00
C278   C     0.03010   0.00190   0.73660   0.01267  Uiso   1.00
C279   C     0.02880   0.97020   0.73940   0.01267  Uiso   1.00
C280   C     0.98350   0.90930   0.72700   0.01267  Uiso   1.00
C281   C     0.37270   0.07510   0.83460   0.01267  Uiso   1.00
C282   C     0.42619   0.11266   0.82985   0.01267  Uiso   1.00
C283   C     0.43840   0.10240   0.80900   0.01267  Uiso   1.00
C284   C     0.49590   0.15220   0.81490   0.01267  Uiso   1.00
C285   C     0.53200   0.16530   0.79970   0.01267  Uiso   1.00
C286   C     0.69700   0.12860   0.52640   0.01267  Uiso   1.00
C287   C     0.66070   0.09450   0.54740   0.01267  Uiso   1.00
C288   C     0.66720   0.08420   0.57200   0.01267  Uiso   1.00
C289   C     0.62210   0.05500   0.58250   0.01267  Uiso   1.00
C290   C     0.60830   0.03340   0.60970   0.01267  Uiso   1.00
C291   C     0.44310   0.94600   0.61310   0.01267  Uiso   1.00
C292   C     0.42880   0.95690   0.59210   0.01267  Uiso   1.00
C293   C     0.39630   0.95400   0.59250   0.01267  Uiso   1.00
C294   C     0.40040   0.97160   0.56720   0.01267  Uiso   1.00
C295   C     0.37350   0.97640   0.55430   0.01267  Uiso   1.00
C296   C     0.58870   0.61020   0.61130   0.01267  Uiso   1.00
C297   C     0.60150   0.62350   0.58200   0.01267  Uiso   1.00
C298   C     0.63900   0.67330   0.57410   0.01267  Uiso   1.00
C299   C     0.63090   0.65770   0.54380   0.01267  Uiso   1.00
C300   C     0.66075   0.69440   0.52235   0.01267  Uiso   1.00
Ag31   Ag    0.47733   0.51761   0.99468   0.01267  Uiso   1.00
Ag32   Ag    0.47157   0.46696   0.93321   0.01267  Uiso   1.00
Ag33   Ag    0.39732   0.38880   0.98236   0.01267  Uiso   1.00
Ag34   Ag    0.82388   0.13455   0.56677   0.01267  Uiso   1.00
Ag35   Ag    0.95385   0.24107   0.60672   0.01267  Uiso   1.00
Ag36   Ag    0.86541   0.20573   0.63932   0.01267  Uiso   1.00
Ag37   Ag    0.19228   0.58937   0.72933   0.01267  Uiso   1.00
Ag38   Ag    0.24164   0.57013   0.76269   0.01267  Uiso   1.00
Ag39   Ag    0.32411   0.70045   0.77980   0.01267  Uiso   1.00
Ag40   Ag    0.52848   0.70557   0.87979   0.01267  Uiso   1.00
Ag41   Ag    0.59382   0.78651   0.83323   0.01267  Uiso   1.00
Ag42   Ag    0.64006   0.76242   0.86418   0.01267  Uiso   1.00
Ag43   Ag    0.85674   0.93159   0.72487   0.01267  Uiso   1.00
Ag44   Ag    0.73203   0.82663   0.67558   0.01267  Uiso   1.00
Ag45   Ag    0.83813   0.88033   0.65454   0.01267  Uiso   1.00
Ag46   Ag    0.34888   0.96424   0.69720   0.01267  Uiso   1.00
Ag47   Ag    0.29037   0.84974   0.67973   0.01267  Uiso   1.00
Ag48   Ag    0.31336   0.89672   0.75302   0.01267  Uiso   1.00
Ag49   Ag    0.36313   0.47395   0.16436   0.01267  Uiso   1.00
Ag50   Ag    0.27788   0.44437   0.18961   0.01267  Uiso   1.00
Ag51   Ag    0.23272   0.37278   0.11576   0.01267  Uiso   1.00
Ag52   Ag    0.01609   0.23707   0.35036   0.01267  Uiso   1.00
Ag53   Ag    0.96129   0.16802   0.40369   0.01267  Uiso   1.00
Ag54   Ag    0.02416   0.28715   0.41657   0.01267  Uiso   1.00
Ag55   Ag    0.22833   0.09487   0.83596   0.01267  Uiso   1.00
Ag56   Ag    0.18550   0.11822   0.79754   0.01267  Uiso   1.00
Ag57   Ag    0.10333   0.98815   0.77984   0.01267  Uiso   1.00
Ag58   Ag    0.58377   0.07820   0.51315   0.01267  Uiso   1.00
Ag59   Ag    0.51840   0.00771   0.56391   0.01267  Uiso   1.00
Ag60   Ag    0.52496   0.50517   0.55411   0.01267  Uiso   1.00
H181   H     0.53880   0.62400   0.00320   0.01267  Uiso   1.00
H182   H     0.52840   0.63930   0.97990   0.01267  Uiso   1.00
H183   H     0.58740   0.67640   0.99260   0.01267  Uiso   1.00
H184   H     0.53860   0.57980   0.87620   0.01267  Uiso   1.00
H185   H     0.48990   0.51850   0.87680   0.01267  Uiso   1.00
H186   H     0.55050   0.55900   0.88910   0.01267  Uiso   1.00
H187   H     0.44510   0.41000   0.87370   0.01267  Uiso   1.00
H188   H     0.38630   0.35180   0.85330   0.01267  Uiso   1.00
H189   H     0.43010   0.36430   0.86360   0.01267  Uiso   1.00
H190   H     0.32890   0.27790   0.96740   0.01267  Uiso   1.00
H191   H     0.32300   0.24390   0.94610   0.01267  Uiso   1.00
H192   H     0.28200   0.23520   0.93680   0.01267  Uiso   1.00
H193   H     0.29730   0.32380   0.04830   0.01267  Uiso   1.00
H194   H     0.33650   0.33310   0.03940   0.01267  Uiso   1.00
H195   H     0.29330   0.31180   0.01390   0.01267  Uiso   1.00
H196   H     0.46950   0.55470   0.04180   0.01267  Uiso   1.00
H197   H     0.45620   0.54430   0.07330   0.01267  Uiso   1.00
H198   H     0.41480   0.52250   0.04550   0.01267  Uiso   1.00
H199   H     0.79650   0.09520   0.49870   0.01267  Uiso   1.00
H200   H     0.82070   0.09260   0.47870   0.01267  Uiso   1.00
H201   H     0.83060   0.13440   0.47780   0.01267  Uiso   1.00
H202   H     0.03430   0.28360   0.57710   0.01267  Uiso   1.00
H203   H     0.04370   0.30280   0.54750   0.01267  Uiso   1.00
H204   H     0.03410   0.26120   0.54910   0.01267  Uiso   1.00
H205   H     0.06510   0.33790   0.63580   0.01267  Uiso   1.00
H206   H     0.10400   0.37700   0.66880   0.01267  Uiso   1.00
H207   H     0.10060   0.39650   0.64430   0.01267  Uiso   1.00
H208   H     0.91710   0.28910   0.69620   0.01267  Uiso   1.00
H209   H     0.96340   0.35060   0.69720   0.01267  Uiso   1.00
H210   H     0.97190   0.33570   0.72240   0.01267  Uiso   1.00
H211   H     0.73180   0.15600   0.63640   0.01267  Uiso   1.00
H212   H     0.79490   0.20350   0.64400   0.01267  Uiso   1.00
H213   H     0.75790   0.15280   0.65670   0.01267  Uiso   1.00
H214   H     0.71580   0.05020   0.53100   0.01267  Uiso   1.00
H215   H     0.69570   0.06450   0.52100   0.01267  Uiso   1.00
H216   H     0.65950   0.01470   0.53460   0.01267  Uiso   1.00
H217   H     0.07950   0.49000   0.68330   0.01267  Uiso   1.00
H218   H     0.05410   0.44350   0.65820   0.01267  Uiso   1.00
H219   H     0.02600   0.42900   0.68400   0.01267  Uiso   1.00
H220   H     0.17970   0.46550   0.74620   0.01267  Uiso   1.00
H221   H     0.11760   0.40730   0.74230   0.01267  Uiso   1.00
H222   H     0.14270   0.41980   0.71530   0.01267  Uiso   1.00
H223   H     0.28750   0.55510   0.78860   0.01267  Uiso   1.00
H224   H     0.34510   0.59070   0.78900   0.01267  Uiso   1.00
H225   H     0.32840   0.58180   0.81940   0.01267  Uiso   1.00
H226   H     0.43170   0.78630   0.82340   0.01267  Uiso   1.00
H227   H     0.45880   0.79030   0.85070   0.01267  Uiso   1.00
H228   H     0.47480   0.79860   0.82000   0.01267  Uiso   1.00
H229   H     0.38930   0.80770   0.78760   0.01267  Uiso   1.00
H230   H     0.39430   0.83380   0.76390   0.01267  Uiso   1.00
H231   H     0.37680   0.83060   0.79300   0.01267  Uiso   1.00
H232   H     0.15250   0.60860   0.70690   0.01267  Uiso   1.00
H233   H     0.15730   0.64490   0.72160   0.01267  Uiso   1.00
H234   H     0.17750   0.65400   0.69270   0.01267  Uiso   1.00
H235   H     0.43150   0.65770   0.88940   0.01267  Uiso   1.00
H236   H     0.41200   0.67400   0.88740   0.01267  Uiso   1.00
H237   H     0.38040   0.62290   0.86310   0.01267  Uiso   1.00
H238   H     0.54350   0.79120   0.79650   0.01267  Uiso   1.00
H239   H     0.48160   0.74360   0.77980   0.01267  Uiso   1.00
H240   H     0.51370   0.79490   0.80400   0.01267  Uiso   1.00
H241   H     0.67500   0.85970   0.76050   0.01267  Uiso   1.00
H242   H     0.62090   0.81740   0.77050   0.01267  Uiso   1.00
H243   H     0.67450   0.87840   0.79050   0.01267  Uiso   1.00
H244   H     0.72530   0.80030   0.84100   0.01267  Uiso   1.00
H245   H     0.71690   0.78540   0.80590   0.01267  Uiso   1.00
H246   H     0.77070   0.84660   0.82590   0.01267  Uiso   1.00
H247   H     0.66450   0.72760   0.88790   0.01267  Uiso   1.00
H248   H     0.66720   0.71800   0.91940   0.01267  Uiso   1.00
H249   H     0.62770   0.67010   0.88940   0.01267  Uiso   1.00
H250   H     0.47060   0.59660   0.93400   0.01267  Uiso   1.00
H251   H     0.49060   0.64580   0.93560   0.01267  Uiso   1.00
H252   H     0.45240   0.59900   0.90500   0.01267  Uiso   1.00
H253   H     0.86880   0.96030   0.79050   0.01267  Uiso   1.00
H254   H     0.83190   0.91720   0.80910   0.01267  Uiso   1.00
H255   H     0.83800   0.95620   0.80820   0.01267  Uiso   1.00
H256   H     0.64040   0.76980   0.69800   0.01267  Uiso   1.00
H257   H     0.63060   0.78300   0.72440   0.01267  Uiso   1.00
H258   H     0.62610   0.74540   0.72570   0.01267  Uiso   1.00
H259   H     0.62520   0.73220   0.63440   0.01267  Uiso   1.00
H260   H     0.59590   0.67730   0.62280   0.01267  Uiso   1.00
H261   H     0.59920   0.70270   0.59950   0.01267  Uiso   1.00
H262   H     0.74760   0.74840   0.57280   0.01267  Uiso   1.00
H263   H     0.79220   0.78700   0.60440   0.01267  Uiso   1.00
H264   H     0.79370   0.81110   0.58100   0.01267  Uiso   1.00
H265   H     0.92570   0.91250   0.64760   0.01267  Uiso   1.00
H266   H     0.94850   0.90800   0.67070   0.01267  Uiso   1.00
H267   H     0.98900   0.96270   0.66170   0.01267  Uiso   1.00
H268   H     0.95910   0.01340   0.76930   0.01267  Uiso   1.00
H269   H     0.01840   0.05170   0.77170   0.01267  Uiso   1.00
H270   H     0.97510   0.99520   0.77890   0.01267  Uiso   1.00
H271   H     0.40610   0.03510   0.65460   0.01267  Uiso   1.00
H272   H     0.39670   0.02400   0.61910   0.01267  Uiso   1.00
H273   H     0.44670   0.05070   0.64040   0.01267  Uiso   1.00
H274   H     0.28270   0.81360   0.62150   0.01267  Uiso   1.00
H275   H     0.33350   0.84850   0.60940   0.01267  Uiso   1.00
H276   H     0.28310   0.82210   0.58900   0.01267  Uiso   1.00
H277   H     0.25080   0.75980   0.66300   0.01267  Uiso   1.00
H278   H     0.22350   0.71180   0.67510   0.01267  Uiso   1.00
H279   H     0.28620   0.76330   0.67750   0.01267  Uiso   1.00
H280   H     0.31420   0.85330   0.79890   0.01267  Uiso   1.00
H281   H     0.34120   0.84490   0.79930   0.01267  Uiso   1.00
H282   H     0.27950   0.79610   0.79880   0.01267  Uiso   1.00
H283   H     0.34130   0.94930   0.81500   0.01267  Uiso   1.00
H284   H     0.34830   0.98760   0.82950   0.01267  Uiso   1.00
H285   H     0.39970   0.01070   0.83260   0.01267  Uiso   1.00
H286   H     0.40380   0.06400   0.71580   0.01267  Uiso   1.00
H287   H     0.45620   0.11410   0.74330   0.01267  Uiso   1.00
H288   H     0.40510   0.09140   0.74010   0.01267  Uiso   1.00
H289   H     0.47370   0.55570   0.20560   0.01267  Uiso   1.00
H290   H     0.51500   0.61460   0.22480   0.01267  Uiso   1.00
H291   H     0.49760   0.57450   0.24090   0.01267  Uiso   1.00
H292   H     0.31430   0.50410   0.25140   0.01267  Uiso   1.00
H293   H     0.35220   0.52720   0.28260   0.01267  Uiso   1.00
H294   H     0.36950   0.56740   0.26670   0.01267  Uiso   1.00
H295   H     0.50360   0.71120   0.28000   0.01267  Uiso   1.00
H296   H     0.48880   0.67770   0.25010   0.01267  Uiso   1.00
H297   H     0.44450   0.64810   0.26740   0.01267  Uiso   1.00
H298   H     0.53730   0.61860   0.32850   0.01267  Uiso   1.00
H299   H     0.47430   0.56440   0.31230   0.01267  Uiso   1.00
H300   H     0.51630   0.59270   0.29340   0.01267  Uiso   1.00
H301   H     0.21380   0.32870   0.05190   0.01267  Uiso   1.00
H302   H     0.25140   0.36340   0.03040   0.01267  Uiso   1.00
H303   H     0.23610   0.31930   0.03740   0.01267  Uiso   1.00
H304   H     0.44210   0.51060   0.14270   0.01267  Uiso   1.00
H305   H     0.44000   0.48120   0.11980   0.01267  Uiso   1.00
H306   H     0.45790   0.52670   0.11240   0.01267  Uiso   1.00
H307   H     0.99940   0.18520   0.29180   0.01267  Uiso   1.00
H308   H     0.98380   0.13920   0.28080   0.01267  Uiso   1.00
H309   H     0.94020   0.12710   0.27150   0.01267  Uiso   1.00
H310   H     0.88640   0.05570   0.38630   0.01267  Uiso   1.00
H311   H     0.83950   0.01060   0.35570   0.01267  Uiso   1.00
H312   H     0.88390   0.02390   0.36620   0.01267  Uiso   1.00
H313   H     0.90450   0.10350   0.44820   0.01267  Uiso   1.00
H314   H     0.91860   0.12020   0.48380   0.01267  Uiso   1.00
H315   H     0.86700   0.09170   0.46350   0.01267  Uiso   1.00
H316   H     0.02560   0.32290   0.47150   0.01267  Uiso   1.00
H317   H     0.97490   0.28820   0.48370   0.01267  Uiso   1.00
H318   H     0.02720   0.31870   0.50510   0.01267  Uiso   1.00
H319   H     0.88110   0.96000   0.31250   0.01267  Uiso   1.00
H320   H     0.93510   0.02370   0.31840   0.01267  Uiso   1.00
H321   H     0.89540   0.99730   0.33870   0.01267  Uiso   1.00
H322   H     0.79610   0.99080   0.23810   0.01267  Uiso   1.00
H323   H     0.81300   0.02100   0.27100   0.01267  Uiso   1.00
H324   H     0.85690   0.05220   0.25310   0.01267  Uiso   1.00
H325   H     0.32560   0.18350   0.89050   0.01267  Uiso   1.00
H326   H     0.33670   0.21760   0.91730   0.01267  Uiso   1.00
H327   H     0.37930   0.24760   0.89850   0.01267  Uiso   1.00
H328   H     0.24180   0.22020   0.81980   0.01267  Uiso   1.00
H329   H     0.30320   0.28070   0.83470   0.01267  Uiso   1.00
H330   H     0.26020   0.25040   0.85320   0.01267  Uiso   1.00
H331   H     0.14670   0.13740   0.76890   0.01267  Uiso   1.00
H332   H     0.08960   0.10340   0.76780   0.01267  Uiso   1.00
H333   H     0.10750   0.11270   0.73780   0.01267  Uiso   1.00
H334   H     0.99650   0.90150   0.73360   0.01267  Uiso   1.00
H335   H     0.97270   0.89920   0.70510   0.01267  Uiso   1.00
H336   H     0.95250   0.88880   0.73430   0.01267  Uiso   1.00
H337   H     0.34480   0.03990   0.82030   0.01267  Uiso   1.00
H338   H     0.36540   0.08930   0.83190   0.01267  Uiso   1.00
H339   H     0.37300   0.07160   0.85500   0.01267  Uiso   1.00
H340   H     0.56930   0.20290   0.80880   0.01267  Uiso   1.00
H341   H     0.52160   0.15960   0.77840   0.01267  Uiso   1.00
H342   H     0.52850   0.14200   0.80230   0.01267  Uiso   1.00
H343   H     0.67930   0.12620   0.51090   0.01267  Uiso   1.00
H344   H     0.70290   0.11470   0.51700   0.01267  Uiso   1.00
H345   H     0.73140   0.16600   0.53800   0.01267  Uiso   1.00
H346   H     0.57520   0.01480   0.61160   0.01267  Uiso   1.00
H347   H     0.63750   0.06310   0.62760   0.01267  Uiso   1.00
H348   H     0.60300   0.00810   0.60710   0.01267  Uiso   1.00
H349   H     0.46670   0.95200   0.60630   0.01267  Uiso   1.00
H350   H     0.41040   0.90880   0.61380   0.01267  Uiso   1.00
H351   H     0.46170   0.97020   0.63310   0.01267  Uiso   1.00
H352   H     0.38530   0.99010   0.53680   0.01267  Uiso   1.00
H353   H     0.38360   0.00100   0.56940   0.01267  Uiso   1.00
H354   H     0.33440   0.94090   0.54830   0.01267  Uiso   1.00
H355   H     0.56070   0.57210   0.60860   0.01267  Uiso   1.00
H356   H     0.57600   0.61810   0.61810   0.01267  Uiso   1.00
H357   H     0.62110   0.63190   0.62640   0.01267  Uiso   1.00
H358   H     0.64690   0.67300   0.50230   0.01267  Uiso   1.00
H359   H     0.69930   0.72310   0.52980   0.01267  Uiso   1.00
H360   H     0.65490   0.71010   0.52140   0.01267  Uiso   1.00
N121   N     0.05374   0.01923   0.45497   0.01267  Uiso   1.00
N122   N     0.07498   0.01356   0.47174   0.01267  Uiso   1.00
N123   N     0.99673   0.92103   0.53296   0.01267  Uiso   1.00
N124   N     0.94979   0.89399   0.53618   0.01267  Uiso   1.00
N125   N     0.87486   0.89074   0.47520   0.01267  Uiso   1.00
N126   N     0.90546   0.92631   0.45737   0.01267  Uiso   1.00
N127   N     0.83457   0.38000   0.21597   0.01267  Uiso   1.00
N128   N     0.87050   0.43250   0.22680   0.01267  Uiso   1.00
N129   N     0.83560   0.48362   0.19342   0.01267  Uiso   1.00
N130   N     0.78750   0.44880   0.17170   0.01267  Uiso   1.00
N131   N     0.67317   0.28538   0.14255   0.01267  Uiso   1.00
N132   N     0.68400   0.26770   0.15590   0.01267  Uiso   1.00
N133   N     0.92696   0.64376   0.13212   0.01267  Uiso   1.00
N134   N     0.93470   0.66590   0.16040   0.01267  Uiso   1.00
N135   N     0.02781   0.81926   0.18527   0.01267  Uiso   1.00
N136   N     0.05265   0.85218   0.16623   0.01267  Uiso   1.00
N137   N     0.03636   0.79428   0.08144   0.01267  Uiso   1.00
N138   N     0.00270   0.74222   0.07452   0.01267  Uiso   1.00
N139   N     0.13970   0.99919   0.28049   0.01267  Uiso   1.00
N140   N     0.18570   0.02444   0.27654   0.01267  Uiso   1.00
N141   N     0.33636   0.15732   0.33948   0.01267  Uiso   1.00
N142   N     0.34228   0.17482   0.36770   0.01267  Uiso   1.00
N143   N     0.20586   0.09670   0.38776   0.01267  Uiso   1.00
N144   N     0.15730   0.05460   0.36690   0.01267  Uiso   1.00
N145   N     0.55284   0.29273   0.39997   0.01267  Uiso   1.00
N146   N     0.52083   0.24079   0.39002   0.01267  Uiso   1.00
N147   N     0.58519   0.21802   0.42541   0.01267  Uiso   1.00
N148   N     0.63322   0.25885   0.44807   0.01267  Uiso   1.00
N149   N     0.72636   0.41405   0.47341   0.01267  Uiso   1.00
N150   N     0.70662   0.42030   0.45792   0.01267  Uiso   1.00
N151   N     0.19017   0.84535   0.90412   0.01267  Uiso   1.00
N152   N     0.16962   0.81688   0.92670   0.01267  Uiso   1.00
N153   N     0.06336   0.77499   0.96315   0.01267  Uiso   1.00
N154   N     0.04612   0.78786   0.95538   0.01267  Uiso   1.00
N155   N     0.08459   0.84767   0.88086   0.01267  Uiso   1.00
N156   N     0.12003   0.86190   0.86853   0.01267  Uiso   1.00
N157   N     0.68111   0.88949   0.37600   0.01267  Uiso   1.00
N158   N     0.63479   0.85304   0.35163   0.01267  Uiso   1.00
N159   N     0.72588   0.03957   0.33845   0.01267  Uiso   1.00
N160   N     0.72342   0.04759   0.36761   0.01267  Uiso   1.00
N161   N     0.69169   0.79149   0.39238   0.01267  Uiso   1.00
N162   N     0.72163   0.84171   0.40254   0.01267  Uiso   1.00
N163   N     0.13156   0.47274   0.31050   0.01267  Uiso   1.00
N164   N     0.08543   0.44760   0.31543   0.01267  Uiso   1.00
N165   N     0.02067   0.46390   0.26877   0.01267  Uiso   1.00
N166   N     0.04260   0.49160   0.24620   0.01267  Uiso   1.00
N167   N     0.05480   0.32770   0.38390   0.01267  Uiso   1.00
N168   N     0.05260   0.30840   0.35680   0.01267  Uiso   1.00
N169   N     0.92147   0.77134   0.60221   0.01267  Uiso   1.00
N170   N     0.92087   0.75488   0.57455   0.01267  Uiso   1.00
N171   N     0.84624   0.61120   0.55544   0.01267  Uiso   1.00
N172   N     0.82250   0.57909   0.57499   0.01267  Uiso   1.00
N173   N     0.12513   0.97240   0.80713   0.01267  Uiso   1.00
N174   N     0.17793   0.01620   0.82693   0.01267  Uiso   1.00
N175   N     0.57190   0.11320   0.04150   0.01267  Uiso   1.00
N176   N     0.52570   0.08960   0.04370   0.01267  Uiso   1.00
N177   N     0.38230   0.95100   0.97570   0.01267  Uiso   1.00
N178   N     0.38240   0.93500   0.94900   0.01267  Uiso   1.00
N179   N     0.51550   0.07310   0.49100   0.01267  Uiso   1.00
N180   N     0.56100   0.09410   0.48850   0.01267  Uiso   1.00
C301   C     0.06270   0.04910   0.40960   0.01267  Uiso   1.00
C302   C     0.07690   0.03740   0.43110   0.01267  Uiso   1.00
C303   C     0.11257   0.04440   0.43377   0.01267  Uiso   1.00
C304   C     0.11010   0.02861   0.45791   0.01267  Uiso   1.00
C305   C     0.13940   0.02670   0.47110   0.01267  Uiso   1.00
C306   C     0.04710   0.91650   0.54500   0.01267  Uiso   1.00
C307   C     0.00110   0.89820   0.54450   0.01267  Uiso   1.00
C308   C     0.95660   0.85710   0.55710   0.01267  Uiso   1.00
C309   C     0.92610   0.85640   0.55110   0.01267  Uiso   1.00
C310   C     0.87260   0.81920   0.55760   0.01267  Uiso   1.00
C311   C     0.78370   0.81780   0.48250   0.01267  Uiso   1.00
C312   C     0.82320   0.85820   0.46560   0.01267  Uiso   1.00
C313   C     0.81940   0.87050   0.44130   0.01267  Uiso   1.00
C314   C     0.87110   0.91360   0.43610   0.01267  Uiso   1.00
C315   C     0.88930   0.94090   0.41160   0.01267  Uiso   1.00
C316   C     0.83640   0.32700   0.21060   0.01267  Uiso   1.00
C317   C     0.86200   0.37800   0.22000   0.01267  Uiso   1.00
C318   C     0.91860   0.43140   0.23440   0.01267  Uiso   1.00
C319   C     0.92060   0.46310   0.23790   0.01267  Uiso   1.00
C320   C     0.96920   0.52440   0.25180   0.01267  Uiso   1.00
C321   C     0.92850   0.58020   0.21450   0.01267  Uiso   1.00
C322   C     0.87430   0.53540   0.19190   0.01267  Uiso   1.00
C323   C     0.85290   0.53570   0.16900   0.01267  Uiso   1.00
C324   C     0.79850   0.48040   0.15730   0.01267  Uiso   1.00
C325   C     0.75460   0.45590   0.13110   0.01267  Uiso   1.00
C326   C     0.61990   0.25960   0.09490   0.01267  Uiso   1.00
C327   C     0.63900   0.25020   0.11480   0.01267  Uiso   1.00
C328   C     0.62710   0.21140   0.10910   0.01267  Uiso   1.00
C329   C     0.65720   0.22540   0.13620   0.01267  Uiso   1.00
C330   C     0.66080   0.19630   0.14530   0.01267  Uiso   1.00
C331   C     0.88110   0.56040   0.10490   0.01267  Uiso   1.00
C332   C     0.89530   0.59400   0.13210   0.01267  Uiso   1.00
C333   C     0.88330   0.58390   0.15980   0.01267  Uiso   1.00
C334   C     0.90900   0.62970   0.17690   0.01267  Uiso   1.00
C335   C     0.91150   0.64370   0.20900   0.01267  Uiso   1.00
C336   C     0.02530   0.82530   0.23880   0.01267  Uiso   1.00
C337   C     0.04390   0.84850   0.21220   0.01267  Uiso   1.00
C338   C     0.08100   0.90120   0.21180   0.01267  Uiso   1.00
C339   C     0.08350   0.90090   0.18160   0.01267  Uiso   1.00
C340   C     0.11660   0.94560   0.16660   0.01267  Uiso   1.00
C341   C     0.09640   0.87420   0.06200   0.01267  Uiso   1.00
C342   C     0.05450   0.81510   0.05800   0.01267  Uiso   1.00
C343   C     0.03180   0.77480   0.03360   0.01267  Uiso   1.00
C344   C     0.99860   0.72973   0.04493   0.01267  Uiso   1.00
C345   C     0.96300   0.67430   0.02990   0.01267  Uiso   1.00
C346   C     0.04000   0.91580   0.25660   0.01267  Uiso   1.00
C347   C     0.09560   0.95200   0.25740   0.01267  Uiso   1.00
C348   C     0.11280   0.94670   0.23750   0.01267  Uiso   1.00
C349   C     0.16990   0.99350   0.25080   0.01267  Uiso   1.00
C350   C     0.21090   0.00960   0.23890   0.01267  Uiso   1.00
C351   C     0.38230   0.16000   0.31110   0.01267  Uiso   1.00
C352   C     0.37960   0.17520   0.34020   0.01267  Uiso   1.00
C353   C     0.41300   0.20470   0.36950   0.01267  Uiso   1.00
C354   C     0.38890   0.20500   0.38590   0.01267  Uiso   1.00
C355   C     0.40920   0.23200   0.41980   0.01267  Uiso   1.00
C356   C     0.24400   0.14360   0.44200   0.01267  Uiso   1.00
C357   C     0.19720   0.10020   0.41500   0.01267  Uiso   1.00
C358   C     0.13990   0.05760   0.41010   0.01267  Uiso   1.00
C359   C     0.11734   0.03080   0.37974   0.01267  Uiso   1.00
C360   C     0.05880   0.98170   0.36130   0.01267  Uiso   1.00
C361   C     0.53920   0.33590   0.40010   0.01267  Uiso   1.00
C362   C     0.51830   0.28680   0.39290   0.01267  Uiso   1.00
C363   C     0.46280   0.22880   0.38000   0.01267  Uiso   1.00
C364   C     0.46820   0.20410   0.37890   0.01267  Uiso   1.00
C365   C     0.42560   0.14520   0.36860   0.01267  Uiso   1.00
C366   C     0.49980   0.11810   0.40730   0.01267  Uiso   1.00
C367   C     0.55500   0.17080   0.42860   0.01267  Uiso   1.00
C368   C     0.58440   0.18010   0.45310   0.01267  Uiso   1.00
C369   C     0.63170   0.23450   0.46400   0.01267  Uiso   1.00
C370   C     0.68130   0.27030   0.49020   0.01267  Uiso   1.00
C371   C     0.78840   0.45390   0.52190   0.01267  Uiso   1.00
C372   C     0.76098   0.45172   0.50030   0.01267  Uiso   1.00
C373   C     0.76400   0.48410   0.50330   0.01267  Uiso   1.00
C374   C     0.72860   0.46270   0.47470   0.01267  Uiso   1.00
C375   C     0.71410   0.48030   0.46600   0.01267  Uiso   1.00
C376   C     0.27170   0.90920   0.88450   0.01267  Uiso   1.00
C377   C     0.23930   0.87440   0.90590   0.01267  Uiso   1.00
C378   C     0.25050   0.86550   0.92880   0.01267  Uiso   1.00
C379   C     0.20750   0.83050   0.94140   0.01267  Uiso   1.00
C380   C     0.19570   0.80530   0.96640   0.01267  Uiso   1.00
C381   C     0.07780   0.75620   0.00540   0.01267  Uiso   1.00
C382   C     0.05960   0.76850   0.99090   0.01267  Uiso   1.00
C383   C     0.04240   0.77980   0.00400   0.01267  Uiso   1.00
C384   C     0.03420   0.79189   0.98069   0.01267  Uiso   1.00
C385   C     0.01650   0.80820   0.98030   0.01267  Uiso   1.00
C386   C     0.04510   0.86460   0.87870   0.01267  Uiso   1.00
C387   C     0.08070   0.87130   0.87000   0.01267  Uiso   1.00
C388   C     0.11550   0.90240   0.85050   0.01267  Uiso   1.00
C389   C     0.13950   0.89470   0.85120   0.01267  Uiso   1.00
C390   C     0.18000   0.91690   0.83530   0.01267  Uiso   1.00
C391   C     0.76060   0.98540   0.40840   0.01267  Uiso   1.00
C392   C     0.70790   0.93801   0.38251   0.01267  Uiso   1.00
C393   C     0.68100   0.93540   0.36240   0.01267  Uiso   1.00
C394   C     0.63480   0.88130   0.34430   0.01267  Uiso   1.00
C395   C     0.58820   0.85160   0.31800   0.01267  Uiso   1.00
C396   C     0.71300   0.98270   0.30610   0.01267  Uiso   1.00
C397   C     0.71207   0.99936   0.33323   0.01267  Uiso   1.00
C398   C     0.69840   0.97980   0.35860   0.01267  Uiso   1.00
C399   C     0.70620   0.01080   0.37900   0.01267  Uiso   1.00
C400   C     0.69930   0.00960   0.41070   0.01267  Uiso   1.00
C401   C     0.69870   0.74430   0.39820   0.01267  Uiso   1.00
C402   C     0.72110   0.79380   0.40530   0.01267  Uiso   1.00
C403   C     0.77302   0.84800   0.42362   0.01267  Uiso   1.00
C404   C     0.76943   0.87484   0.42107   0.01267  Uiso   1.00
C405   C     0.81270   0.93420   0.43710   0.01267  Uiso   1.00
C406   C     0.18330   0.47060   0.32410   0.01267  Uiso   1.00
C407   C     0.13750   0.45280   0.32450   0.01267  Uiso   1.00
C408   C     0.09440   0.41310   0.33690   0.01267  Uiso   1.00
C409   C     0.06210   0.41130   0.33100   0.01267  Uiso   1.00
C410   C     0.01160   0.37740   0.33820   0.01267  Uiso   1.00
C411   C     0.93890   0.40400   0.28710   0.01267  Uiso   1.00
C412   C     0.97320   0.43790   0.26630   0.01267  Uiso   1.00
C413   C     0.96405   0.44910   0.24375   0.01267  Uiso   1.00
C414   C     0.00760   0.48140   0.23120   0.01267  Uiso   1.00
C415   C     0.01990   0.50430   0.20500   0.01267  Uiso   1.00
C416   C     0.07900   0.39750   0.40470   0.01267  Uiso   1.00
C417   C     0.07100   0.36850   0.37950   0.01267  Uiso   1.00
C418   C     0.08040   0.37670   0.35130   0.01267  Uiso   1.00
C419   C     0.06750   0.33760   0.33790   0.01267  Uiso   1.00
C420   C     0.06790   0.32480   0.30730   0.01267  Uiso   1.00
C421   C     0.94370   0.84110   0.62540   0.01267  Uiso   1.00
C422   C     0.93660   0.81190   0.59870   0.01267  Uiso   1.00
C423   C     0.94410   0.82000   0.56970   0.01267  Uiso   1.00
C424   C     0.93140   0.78170   0.55530   0.01267  Uiso   1.00
C425   C     0.93230   0.77080   0.52470   0.01267  Uiso   1.00
C426   C     0.85210   0.60920   0.50230   0.01267  Uiso   1.00
C427   C     0.83200   0.58390   0.52810   0.01267  Uiso   1.00
C428   C     0.79350   0.53010   0.52820   0.01267  Uiso   1.00
C429   C     0.78940   0.52880   0.55860   0.01267  Uiso   1.00
C430   C     0.75650   0.48350   0.57420   0.01267  Uiso   1.00
C431   C     0.03810   0.87270   0.79760   0.01267  Uiso   1.00
C432   C     0.09634   0.92619   0.81353   0.01267  Uiso   1.00
C433   C     0.12940   0.93840   0.83600   0.01267  Uiso   1.00
C434   C     0.18100   0.99590   0.84370   0.01267  Uiso   1.00
C435   C     0.23230   0.03200   0.86670   0.01267  Uiso   1.00
C436   C     0.67060   0.19700   0.06840   0.01267  Uiso   1.00
C437   C     0.61330   0.16070   0.06620   0.01267  Uiso   1.00
C438   C     0.59520   0.16720   0.08300   0.01267  Uiso   1.00
C439   C     0.53960   0.12210   0.06710   0.01267  Uiso   1.00
C440   C     0.49860   0.10830   0.07490   0.01267  Uiso   1.00
C441   C     0.33000   0.94310   0.99710   0.01267  Uiso   1.00
C442   C     0.33670   0.92880   0.97190   0.01267  Uiso   1.00
C443   C     0.30380   0.89630   0.94230   0.01267  Uiso   1.00
C444   C     0.33320   0.90040   0.92880   0.01267  Uiso   1.00
C445   C     0.31920   0.87350   0.89710   0.01267  Uiso   1.00
C446   C     0.47740   0.08870   0.47850   0.01267  Uiso   1.00
C447   C     0.51950   0.10150   0.47800   0.01267  Uiso   1.00
C448   C     0.56490   0.13900   0.46570   0.01267  Uiso   1.00
C449   C     0.58710   0.13090   0.47320   0.01267  Uiso   1.00
C450   C     0.63840   0.16075   0.46635   0.01267  Uiso   1.00
Ag61   Ag    0.98265   0.97733   0.45972   0.01267  Uiso   1.00
Ag62   Ag    0.03836   0.97157   0.50460   0.01267  Uiso   1.00
Ag63   Ag    0.91496   0.89732   0.50852   0.01267  Uiso   1.00
Ag64   Ag    0.75711   0.32388   0.18933   0.01267  Uiso   1.00
Ag65   Ag    0.84713   0.45385   0.21278   0.01267  Uiso   1.00
Ag66   Ag    0.72609   0.36541   0.15968   0.01267  Uiso   1.00
Ag67   Ag    0.96295   0.69228   0.10291   0.01267  Uiso   1.00
Ag68   Ag    0.97895   0.74164   0.17151   0.01267  Uiso   1.00
Ag69   Ag    0.04431   0.82411   0.12366   0.01267  Uiso   1.00
Ag70   Ag    0.14869   0.02848   0.32291   0.01267  Uiso   1.00
Ag71   Ag    0.26059   0.09382   0.30731   0.01267  Uiso   1.00
Ag72   Ag    0.27588   0.14006   0.37764   0.01267  Uiso   1.00
Ag73   Ag    0.63187   0.35674   0.42515   0.01267  Uiso   1.00
Ag74   Ag    0.55645   0.23203   0.40540   0.01267  Uiso   1.00
Ag75   Ag    0.68359   0.33813   0.45780   0.01267  Uiso   1.00
Ag76   Ag    0.15168   0.84888   0.88464   0.01267  Uiso   1.00
Ag77   Ag    0.11064   0.79037   0.94063   0.01267  Uiso   1.00
Ag78   Ag    0.06034   0.81336   0.91664   0.01267  Uiso   1.00
Ag79   Ag    0.69877   0.86313   0.38918   0.01267  Uiso   1.00
Ag80   Ag    0.58827   0.77788   0.33351   0.01267  Uiso   1.00
Ag81   Ag    0.61696   0.73272   0.35994   0.01267  Uiso   1.00
Ag82   Ag    0.16573   0.51609   0.27902   0.01267  Uiso   1.00
Ag83   Ag    0.05760   0.46129   0.29327   0.01267  Uiso   1.00
Ag84   Ag    0.10759   0.52416   0.23701   0.01267  Uiso   1.00
Ag85   Ag    0.89237   0.72833   0.63346   0.01267  Uiso   1.00
Ag86   Ag    0.88796   0.68550   0.56728   0.01267  Uiso   1.00
Ag87   Ag    0.82349   0.60333   0.61518   0.01267  Uiso   1.00
Ag88   Ag    0.57062   0.08377   0.00557   0.01267  Uiso   1.00
Ag89   Ag    0.45449   0.01840   0.01069   0.01267  Uiso   1.00
Ag90   Ag    0.47085   0.02496   0.51979   0.01267  Uiso   1.00
H361   H     0.03560   0.03880   0.41480   0.01267  Uiso   1.00
H362   H     0.04850   0.02840   0.38910   0.01267  Uiso   1.00
H363   H     0.09480   0.08740   0.41100   0.01267  Uiso   1.00
H364   H     0.16240   0.03860   0.45880   0.01267  Uiso   1.00
H365   H     0.11310   0.98990   0.47140   0.01267  Uiso   1.00
H366   H     0.16140   0.05050   0.49150   0.01267  Uiso   1.00
H367   H     0.07140   0.94510   0.53510   0.01267  Uiso   1.00
H368   H     0.03300   0.88630   0.53450   0.01267  Uiso   1.00
H369   H     0.06650   0.93010   0.56580   0.01267  Uiso   1.00
H370   H     0.86150   0.82890   0.55100   0.01267  Uiso   1.00
H371   H     0.87690   0.82300   0.57910   0.01267  Uiso   1.00
H372   H     0.84520   0.78200   0.54680   0.01267  Uiso   1.00
H373   H     0.74900   0.79730   0.47350   0.01267  Uiso   1.00
H374   H     0.79710   0.83650   0.50340   0.01267  Uiso   1.00
H375   H     0.77940   0.79330   0.48150   0.01267  Uiso   1.00
H376   H     0.92770   0.96950   0.41480   0.01267  Uiso   1.00
H377   H     0.88290   0.95620   0.41190   0.01267  Uiso   1.00
H378   H     0.86930   0.91480   0.39230   0.01267  Uiso   1.00
H379   H     0.79780   0.29650   0.20130   0.01267  Uiso   1.00
H380   H     0.84200   0.32070   0.22810   0.01267  Uiso   1.00
H381   H     0.85280   0.33060   0.19620   0.01267  Uiso   1.00
H382   H     0.95720   0.53430   0.25070   0.01267  Uiso   1.00
H383   H     0.99620   0.54370   0.24090   0.01267  Uiso   1.00
H384   H     0.98500   0.53410   0.27290   0.01267  Uiso   1.00
H385   H     0.92930   0.56510   0.22720   0.01267  Uiso   1.00
H386   H     0.93520   0.60400   0.22700   0.01267  Uiso   1.00
H387   H     0.95630   0.60060   0.20410   0.01267  Uiso   1.00
H388   H     0.72090   0.41710   0.12800   0.01267  Uiso   1.00
H389   H     0.76620   0.46340   0.11280   0.01267  Uiso   1.00
H390   H     0.74950   0.47190   0.13620   0.01267  Uiso   1.00
H391   H     0.59540   0.23180   0.07580   0.01267  Uiso   1.00
H392   H     0.65090   0.29490   0.09140   0.01267  Uiso   1.00
H393   H     0.60120   0.25790   0.10510   0.01267  Uiso   1.00
H394   H     0.68480   0.21580   0.16560   0.01267  Uiso   1.00
H395   H     0.67470   0.19570   0.13120   0.01267  Uiso   1.00
H396   H     0.62490   0.15950   0.14480   0.01267  Uiso   1.00
H397   H     0.89620   0.57950   0.08950   0.01267  Uiso   1.00
H398   H     0.89590   0.55410   0.11060   0.01267  Uiso   1.00
H399   H     0.84200   0.52600   0.09700   0.01267  Uiso   1.00
H400   H     0.93350   0.67970   0.21420   0.01267  Uiso   1.00
H401   H     0.87530   0.61760   0.21030   0.01267  Uiso   1.00
H402   H     0.92740   0.64270   0.22290   0.01267  Uiso   1.00
H403   H     0.99890   0.78750   0.23240   0.01267  Uiso   1.00
H404   H     0.05610   0.84510   0.25440   0.01267  Uiso   1.00
H405   H     0.00900   0.82840   0.24660   0.01267  Uiso   1.00
H406   H     0.10830   0.93170   0.14540   0.01267  Uiso   1.00
H407   H     0.10810   0.95880   0.16850   0.01267  Uiso   1.00
H408   H     0.15480   0.97480   0.17620   0.01267  Uiso   1.00
H409   H     0.10170   0.88930   0.08160   0.01267  Uiso   1.00
H410   H     0.13040   0.89430   0.06050   0.01267  Uiso   1.00
H411   H     0.08380   0.87680   0.04620   0.01267  Uiso   1.00
H412   H     0.94560   0.65250   0.04390   0.01267  Uiso   1.00
H413   H     0.93570   0.65730   0.01240   0.01267  Uiso   1.00
H414   H     0.98480   0.67750   0.02350   0.01267  Uiso   1.00
H415   H     0.04210   0.93150   0.27380   0.01267  Uiso   1.00
H416   H     0.02460   0.91200   0.23800   0.01267  Uiso   1.00
H417   H     0.01730   0.88040   0.25750   0.01267  Uiso   1.00
H418   H     0.24700   0.04350   0.25230   0.01267  Uiso   1.00
H419   H     0.20180   0.98160   0.23800   0.01267  Uiso   1.00
H420   H     0.20970   0.01370   0.21880   0.01267  Uiso   1.00
H421   H     0.41450   0.17500   0.31530   0.01267  Uiso   1.00
H422   H     0.35040   0.12090   0.30350   0.01267  Uiso   1.00
H423   H     0.38400   0.17450   0.29610   0.01267  Uiso   1.00
H424   H     0.38430   0.22530   0.42500   0.01267  Uiso   1.00
H425   H     0.41100   0.21690   0.43150   0.01267  Uiso   1.00
H426   H     0.44480   0.27070   0.42410   0.01267  Uiso   1.00
H427   H     0.27660   0.16450   0.43690   0.01267  Uiso   1.00
H428   H     0.24780   0.16720   0.44920   0.01267  Uiso   1.00
H429   H     0.23830   0.12770   0.45760   0.01267  Uiso   1.00
H430   H     0.03660   0.97060   0.37400   0.01267  Uiso   1.00
H431   H     0.05500   0.99060   0.34480   0.01267  Uiso   1.00
H432   H     0.04740   0.95240   0.35340   0.01267  Uiso   1.00
H433   H     0.57830   0.36880   0.40850   0.01267  Uiso   1.00
H434   H     0.52280   0.33190   0.41470   0.01267  Uiso   1.00
H435   H     0.52980   0.33800   0.38180   0.01267  Uiso   1.00
H436   H     0.44240   0.14040   0.37060   0.01267  Uiso   1.00
H437   H     0.40620   0.13060   0.34760   0.01267  Uiso   1.00
H438   H     0.40040   0.12610   0.38070   0.01267  Uiso   1.00
H439   H     0.49080   0.12520   0.39300   0.01267  Uiso   1.00
H440   H     0.47310   0.09590   0.41860   0.01267  Uiso   1.00
H441   H     0.49970   0.09920   0.39650   0.01267  Uiso   1.00
H442   H     0.67480   0.24760   0.49920   0.01267  Uiso   1.00
H443   H     0.68780   0.29220   0.50520   0.01267  Uiso   1.00
H444   H     0.71270   0.29370   0.48260   0.01267  Uiso   1.00
H445   H     0.77810   0.42570   0.51320   0.01267  Uiso   1.00
H446   H     0.77780   0.44850   0.54050   0.01267  Uiso   1.00
H447   H     0.82730   0.48900   0.52630   0.01267  Uiso   1.00
H448   H     0.68980   0.45910   0.44570   0.01267  Uiso   1.00
H449   H     0.74670   0.51840   0.46670   0.01267  Uiso   1.00
H450   H     0.69620   0.47510   0.47990   0.01267  Uiso   1.00
H451   H     0.25150   0.90610   0.87100   0.01267  Uiso   1.00
H452   H     0.27760   0.89670   0.87270   0.01267  Uiso   1.00
H453   H     0.30630   0.94670   0.89600   0.01267  Uiso   1.00
H454   H     0.16120   0.78270   0.96910   0.01267  Uiso   1.00
H455   H     0.22410   0.83350   0.98500   0.01267  Uiso   1.00
H456   H     0.19410   0.78310   0.96100   0.01267  Uiso   1.00
H457   H     0.08780   0.75080   0.99100   0.01267  Uiso   1.00
H458   H     0.04840   0.72350   0.01170   0.01267  Uiso   1.00
H459   H     0.10870   0.78620   0.02290   0.01267  Uiso   1.00
H460   H     0.01530   0.81420   0.96090   0.01267  Uiso   1.00
H461   H     0.04190   0.84120   0.99630   0.01267  Uiso   1.00
H462   H     0.98070   0.77950   0.98340   0.01267  Uiso   1.00
H463   H     0.02630   0.84130   0.89200   0.01267  Uiso   1.00
H464   H     0.01880   0.84830   0.86070   0.01267  Uiso   1.00
H465   H     0.06710   0.89970   0.88900   0.01267  Uiso   1.00
H466   H     0.18800   0.90380   0.83980   0.01267  Uiso   1.00
H467   H     0.21290   0.95620   0.84210   0.01267  Uiso   1.00
H468   H     0.16500   0.90510   0.81370   0.01267  Uiso   1.00
H469   H     0.76810   0.97370   0.41800   0.01267  Uiso   1.00
H470   H     0.79020   0.01500   0.40040   0.01267  Uiso   1.00
H471   H     0.75670   0.99760   0.42310   0.01267  Uiso   1.00
H472   H     0.56290   0.81430   0.31020   0.01267  Uiso   1.00
H473   H     0.56960   0.85220   0.32500   0.01267  Uiso   1.00
H474   H     0.60280   0.86950   0.30210   0.01267  Uiso   1.00
H475   H     0.72360   0.00360   0.29240   0.01267  Uiso   1.00
H476   H     0.73870   0.98880   0.31110   0.01267  Uiso   1.00
H477   H     0.67710   0.94450   0.29640   0.01267  Uiso   1.00
H478   H     0.70880   0.03730   0.41870   0.01267  Uiso   1.00
H479   H     0.66200   0.97430   0.40990   0.01267  Uiso   1.00
H480   H     0.72290   0.01630   0.42360   0.01267  Uiso   1.00
H481   H     0.66190   0.71380   0.38510   0.01267  Uiso   1.00
H482   H     0.72100   0.75140   0.38800   0.01267  Uiso   1.00
H483   H     0.69870   0.73610   0.41680   0.01267  Uiso   1.00
H484   H     0.79940   0.94210   0.43150   0.01267  Uiso   1.00
H485   H     0.82020   0.94000   0.45880   0.01267  Uiso   1.00
H486   H     0.84550   0.95790   0.43120   0.01267  Uiso   1.00
H487   H     0.20760   0.49940   0.31420   0.01267  Uiso   1.00
H488   H     0.20300   0.48380   0.34460   0.01267  Uiso   1.00
H489   H     0.16870   0.44020   0.31310   0.01267  Uiso   1.00
H490   H     0.00010   0.38640   0.33070   0.01267  Uiso   1.00
H491   H     0.98380   0.33950   0.32890   0.01267  Uiso   1.00
H492   H     0.01770   0.38390   0.36000   0.01267  Uiso   1.00
H493   H     0.95630   0.40450   0.30100   0.01267  Uiso   1.00
H494   H     0.93480   0.41860   0.29840   0.01267  Uiso   1.00
H495   H     0.90350   0.36700   0.27530   0.01267  Uiso   1.00
H496   H     0.05410   0.52560   0.20270   0.01267  Uiso   1.00
H497   H     0.99120   0.47490   0.18670   0.01267  Uiso   1.00
H498   H     0.02210   0.52720   0.20850   0.01267  Uiso   1.00
H499   H     0.06860   0.38110   0.42110   0.01267  Uiso   1.00
H500   H     0.11670   0.43510   0.41140   0.01267  Uiso   1.00
H501   H     0.05670   0.39540   0.39810   0.01267  Uiso   1.00
H502   H     0.05800   0.29610   0.30530   0.01267  Uiso   1.00
H503   H     0.04200   0.31300   0.29200   0.01267  Uiso   1.00
H504   H     0.10380   0.35690   0.30470   0.01267  Uiso   1.00
H505   H     0.93510   0.82560   0.64210   0.01267  Uiso   1.00
H506   H     0.91940   0.83670   0.61910   0.01267  Uiso   1.00
H507   H     0.98080   0.87930   0.63170   0.01267  Uiso   1.00
H508   H     0.92200   0.74180   0.52160   0.01267  Uiso   1.00
H509   H     0.96850   0.80320   0.52250   0.01267  Uiso   1.00
H510   H     0.90700   0.76020   0.50980   0.01267  Uiso   1.00
H511   H     0.87780   0.64670   0.50930   0.01267  Uiso   1.00
H512   H     0.82180   0.58960   0.48620   0.01267  Uiso   1.00
H513   H     0.86970   0.60750   0.49480   0.01267  Uiso   1.00
H514   H     0.76290   0.49650   0.59500   0.01267  Uiso   1.00
H515   H     0.76760   0.47270   0.57350   0.01267  Uiso   1.00
H516   H     0.71820   0.45250   0.56370   0.01267  Uiso   1.00
H517   H     0.02450   0.84480   0.80490   0.01267  Uiso   1.00
H518   H     0.03350   0.86540   0.77610   0.01267  Uiso   1.00
H519   H     0.01800   0.87300   0.80140   0.01267  Uiso   1.00
H520   H     0.26050   0.06930   0.86640   0.01267  Uiso   1.00
H521   H     0.24320   0.02160   0.86200   0.01267  Uiso   1.00
H522   H     0.22620   0.02850   0.88650   0.01267  Uiso   1.00
H523   H     0.66840   0.17930   0.05310   0.01267  Uiso   1.00
H524   H     0.68590   0.20290   0.08820   0.01267  Uiso   1.00
H525   H     0.69340   0.23140   0.06540   0.01267  Uiso   1.00
H526   H     0.46360   0.07520   0.06040   0.01267  Uiso   1.00
H527   H     0.50990   0.13750   0.07440   0.01267  Uiso   1.00
H528   H     0.49590   0.10300   0.09490   0.01267  Uiso   1.00
H529   H     0.36040   0.96670   0.01470   0.01267  Uiso   1.00
H530   H     0.29660   0.91040   0.00160   0.01267  Uiso   1.00
H531   H     0.32860   0.96170   0.99150   0.01267  Uiso   1.00
H532   H     0.34850   0.88530   0.89520   0.01267  Uiso   1.00
H533   H     0.31420   0.88360   0.88260   0.01267  Uiso   1.00
H534   H     0.28610   0.83440   0.89350   0.01267  Uiso   1.00
H535   H     0.45210   0.06070   0.48860   0.01267  Uiso   1.00
H536   H     0.45790   0.07600   0.45790   0.01267  Uiso   1.00
H537   H     0.49470   0.12110   0.48920   0.01267  Uiso   1.00
H538   H     0.64460   0.14690   0.47390   0.01267  Uiso   1.00
H539   H     0.66950   0.19930   0.47620   0.01267  Uiso   1.00
H540   H     0.63350   0.15490   0.44480   0.01267  Uiso   1.00
N181   N     0.06426   0.59877   0.04503   0.01267  Uiso   1.00
N182   N     0.04182   0.60324   0.02826   0.01267  Uiso   1.00
N183   N     0.88807   0.46377   0.96704   0.01267  Uiso   1.00
N184   N     0.85781   0.41361   0.96382   0.01267  Uiso   1.00
N185   N     0.91554   0.39966   0.02480   0.01267  Uiso   1.00
N186   N     0.96894   0.44809   0.04263   0.01267  Uiso   1.00
N187   N     0.66403   0.61860   0.28403   0.01267  Uiso   1.00
N188   N     0.70570   0.64370   0.27320   0.01267  Uiso   1.00
N189   N     0.79020   0.64218   0.30658   0.01267  Uiso   1.00
N190   N     0.77710   0.61580   0.32830   0.01267  Uiso   1.00
N191   N     0.64283   0.53062   0.35745   0.01267  Uiso   1.00
N192   N     0.61180   0.52810   0.34410   0.01267  Uiso   1.00
N193   N     0.01164   0.79484   0.36788   0.01267  Uiso   1.00
N194   N     0.00550   0.77430   0.33960   0.01267  Uiso   1.00
N195   N     0.13399   0.84254   0.31473   0.01267  Uiso   1.00
N196   N     0.18595   0.88642   0.33377   0.01267  Uiso   1.00
N197   N     0.21284   0.95492   0.41856   0.01267  Uiso   1.00
N198   N     0.16770   0.92818   0.42548   0.01267  Uiso   1.00
N199   N     0.21870   0.85921   0.21951   0.01267  Uiso   1.00
N200   N     0.24790   0.90916   0.22346   0.01267  Uiso   1.00
N201   N     0.31784   0.99688   0.16052   0.01267  Uiso   1.00
N202   N     0.30712   0.97458   0.13230   0.01267  Uiso   1.00
N203   N     0.20894   0.81810   0.11224   0.01267  Uiso   1.00
N204   N     0.18770   0.79040   0.13310   0.01267  Uiso   1.00
N205   N     0.39276   0.15287   0.10003   0.01267  Uiso   1.00
N206   N     0.35077   0.13081   0.10998   0.01267  Uiso   1.00
N207   N     0.29261   0.15978   0.07459   0.01267  Uiso   1.00
N208   N     0.31078   0.18515   0.05193   0.01267  Uiso   1.00
N209   N     0.44064   0.25295   0.02659   0.01267  Uiso   1.00
N210   N     0.46238   0.24870   0.04208   0.01267  Uiso   1.00
N211   N     0.44123   0.28605   0.59588   0.01267  Uiso   1.00
N212   N     0.39018   0.24292   0.57330   0.01267  Uiso   1.00
N213   N     0.31184   0.10021   0.53685   0.01267  Uiso   1.00
N214   N     0.33248   0.09074   0.54462   0.01267  Uiso   1.00
N215   N     0.46681   0.20373   0.61914   0.01267  Uiso   1.00
N216   N     0.49337   0.25150   0.63147   0.01267  Uiso   1.00
N217   N     0.01349   0.30511   0.12400   0.01267  Uiso   1.00
N218   N     0.00141   0.28316   0.14837   0.01267  Uiso   1.00
N219   N     0.20112   0.38743   0.16155   0.01267  Uiso   1.00
N220   N     0.17998   0.35581   0.13239   0.01267  Uiso   1.00
N221   N     0.89911   0.29931   0.10762   0.01267  Uiso   1.00
N222   N     0.93917   0.31909   0.09746   0.01267  Uiso   1.00
N223   N     0.66224   0.82106   0.18950   0.01267  Uiso   1.00
N224   N     0.63217   0.77000   0.18457   0.01267  Uiso   1.00
N225   N     0.69513   0.75190   0.23123   0.01267  Uiso   1.00
N226   N     0.74540   0.79640   0.25380   0.01267  Uiso   1.00
N227   N     0.44380   0.67090   0.11610   0.01267  Uiso   1.00
N228   N     0.45160   0.69580   0.14320   0.01267  Uiso   1.00
N229   N     0.66913   0.31926   0.89779   0.01267  Uiso   1.00
N230   N     0.68033   0.34632   0.92545   0.01267  Uiso   1.00
N231   N     0.55576   0.29080   0.94456   0.01267  Uiso   1.00
N232   N     0.50410   0.24751   0.92501   0.01267  Uiso   1.00
N233   N     0.66527   0.31800   0.69287   0.01267  Uiso   1.00
N234   N     0.68927   0.35100   0.67307   0.01267  Uiso   1.00
N235   N     0.57170   0.53040   0.45850   0.01267  Uiso   1.00
N236   N     0.54590   0.48200   0.45630   0.01267  Uiso   1.00
N237   N     0.47530   0.40660   0.52430   0.01267  Uiso   1.00
N238   N     0.48600   0.43340   0.55100   0.01267  Uiso   1.00
N239   N     0.08210   0.02450   0.00900   0.01267  Uiso   1.00
N240   N     0.10560   0.07250   0.01150   0.01267  Uiso   1.00
C451   C     0.13950   0.65310   0.09040   0.01267  Uiso   1.00
C452   C     0.10630   0.64580   0.06890   0.01267  Uiso   1.00
C453   C     0.11063   0.67880   0.06623   0.01267  Uiso   1.00
C454   C     0.07070   0.65219   0.04209   0.01267  Uiso   1.00
C455   C     0.05560   0.66830   0.02890   0.01267  Uiso   1.00
C456   C     0.87150   0.50210   0.95500   0.01267  Uiso   1.00
C457   C     0.85370   0.45660   0.95550   0.01267  Uiso   1.00
C458   C     0.80000   0.39950   0.94290   0.01267  Uiso   1.00
C459   C     0.80530   0.37500   0.94890   0.01267  Uiso   1.00
C460   C     0.76160   0.31500   0.94240   0.01267  Uiso   1.00
C461   C     0.83530   0.30120   0.01750   0.01267  Uiso   1.00
C462   C     0.89260   0.35760   0.03440   0.01267  Uiso   1.00
C463   C     0.92920   0.37810   0.05870   0.01267  Uiso   1.00
C464   C     0.97750   0.43500   0.06390   0.01267  Uiso   1.00
C465   C     0.02930   0.47770   0.08840   0.01267  Uiso   1.00
C466   C     0.61640   0.62580   0.28940   0.01267  Uiso   1.00
C467   C     0.65800   0.64200   0.28000   0.01267  Uiso   1.00
C468   C     0.69700   0.68420   0.26560   0.01267  Uiso   1.00
C469   C     0.72520   0.68270   0.26210   0.01267  Uiso   1.00
C470   C     0.77260   0.71740   0.24820   0.01267  Uiso   1.00
C471   C     0.86570   0.71400   0.28550   0.01267  Uiso   1.00
C472   C     0.84350   0.68240   0.30810   0.01267  Uiso   1.00
C473   C     0.86670   0.68390   0.33100   0.01267  Uiso   1.00
C474   C     0.82310   0.64120   0.34270   0.01267  Uiso   1.00
C475   C     0.82480   0.62350   0.36890   0.01267  Uiso   1.00
C476   C     0.66470   0.52500   0.40510   0.01267  Uiso   1.00
C477   C     0.63540   0.52420   0.38520   0.01267  Uiso   1.00
C478   C     0.60230   0.51800   0.39090   0.01267  Uiso   1.00
C479   C     0.58920   0.52100   0.36380   0.01267  Uiso   1.00
C480   C     0.55100   0.51550   0.35470   0.01267  Uiso   1.00
C481   C     0.95550   0.77620   0.39510   0.01267  Uiso   1.00
C482   C     0.96190   0.76320   0.36790   0.01267  Uiso   1.00
C483   C     0.92410   0.72350   0.34020   0.01267  Uiso   1.00
C484   C     0.95280   0.73210   0.32310   0.01267  Uiso   1.00
C485   C     0.93470   0.70250   0.29100   0.01267  Uiso   1.00
C486   C     0.08650   0.78650   0.26120   0.01267  Uiso   1.00
C487   C     0.13630   0.83170   0.28780   0.01267  Uiso   1.00
C488   C     0.18940   0.86920   0.28820   0.01267  Uiso   1.00
C489   C     0.21930   0.90190   0.31840   0.01267  Uiso   1.00
C490   C     0.27900   0.95000   0.33340   0.01267  Uiso   1.00
C491   C     0.31220   0.03440   0.43800   0.01267  Uiso   1.00
C492   C     0.25710   0.99650   0.44200   0.01267  Uiso   1.00
C493   C     0.24120   0.99820   0.46640   0.01267  Uiso   1.00
C494   C     0.18480   0.95367   0.45507   0.01267  Uiso   1.00
C495   C     0.14440   0.93310   0.47010   0.01267  Uiso   1.00
C496   C     0.15920   0.78340   0.24340   0.01267  Uiso   1.00
C497   C     0.19460   0.83820   0.24260   0.01267  Uiso   1.00
C498   C     0.20920   0.87530   0.26250   0.01267  Uiso   1.00
C499   C     0.24270   0.91910   0.24920   0.01267  Uiso   1.00
C500   C     0.27070   0.97200   0.26110   0.01267  Uiso   1.00
C501   C     0.34890   0.07120   0.18890   0.01267  Uiso   1.00
C502   C     0.33500   0.03940   0.15980   0.01267  Uiso   1.00
C503   C     0.33520   0.04350   0.13050   0.01267  Uiso   1.00
C504   C     0.31910   0.00300   0.11410   0.01267  Uiso   1.00
C505   C     0.31220   0.98940   0.08020   0.01267  Uiso   1.00
C506   C     0.20160   0.80200   0.05800   0.01267  Uiso   1.00
C507   C     0.18520   0.78220   0.08500   0.01267  Uiso   1.00
C508   C     0.14750   0.72980   0.08990   0.01267  Uiso   1.00
C509   C     0.15106   0.73760   0.12026   0.01267  Uiso   1.00
C510   C     0.12040   0.69750   0.13870   0.01267  Uiso   1.00
C511   C     0.43580   0.13910   0.09990   0.01267  Uiso   1.00
C512   C     0.39390   0.12540   0.10710   0.01267  Uiso   1.00
C513   C     0.34880   0.08280   0.12000   0.01267  Uiso   1.00
C514   C     0.32520   0.08930   0.12110   0.01267  Uiso   1.00
C515   C     0.27660   0.05700   0.13140   0.01267  Uiso   1.00
C516   C     0.21080   0.09250   0.09270   0.01267  Uiso   1.00
C517   C     0.24220   0.12640   0.07140   0.01267  Uiso   1.00
C518   C     0.22700   0.13130   0.04690   0.01267  Uiso   1.00
C519   C     0.27050   0.16770   0.03600   0.01267  Uiso   1.00
C520   C     0.28010   0.19110   0.00980   0.01267  Uiso   1.00
C521   C     0.43200   0.26650   0.97810   0.01267  Uiso   1.00
C522   C     0.45142   0.26068   0.99970   0.01267  Uiso   1.00
C523   C     0.48080   0.26070   0.99670   0.01267  Uiso   1.00
C524   C     0.48800   0.25390   0.02530   0.01267  Uiso   1.00
C525   C     0.51430   0.24810   0.03400   0.01267  Uiso   1.00
C526   C     0.52470   0.38720   0.61550   0.01267  Uiso   1.00
C527   C     0.46850   0.33340   0.59410   0.01267  Uiso   1.00
C528   C     0.43670   0.32170   0.57120   0.01267  Uiso   1.00
C529   C     0.38910   0.26610   0.55860   0.01267  Uiso   1.00
C530   C     0.33890   0.22930   0.53360   0.01267  Uiso   1.00
C531   C     0.25080   0.07240   0.49460   0.01267  Uiso   1.00
C532   C     0.27760   0.06870   0.50910   0.01267  Uiso   1.00
C533   C     0.27580   0.03840   0.49600   0.01267  Uiso   1.00
C534   C     0.31120   0.05351   0.51931   0.01267  Uiso   1.00
C535   C     0.32790   0.03620   0.51970   0.01267  Uiso   1.00
C536   C     0.48590   0.16640   0.62130   0.01267  Uiso   1.00
C537   C     0.50130   0.21070   0.63000   0.01267  Uiso   1.00
C538   C     0.55190   0.26500   0.64950   0.01267  Uiso   1.00
C539   C     0.54350   0.28830   0.64880   0.01267  Uiso   1.00
C540   C     0.58160   0.34470   0.66470   0.01267  Uiso   1.00
C541   C     0.07700   0.35220   0.09160   0.01267  Uiso   1.00
C542   C     0.05550   0.32539   0.11749   0.01267  Uiso   1.00
C543   C     0.07300   0.31860   0.13760   0.01267  Uiso   1.00
C544   C     0.03700   0.29050   0.15570   0.01267  Uiso   1.00
C545   C     0.03360   0.27020   0.18200   0.01267  Uiso   1.00
C546   C     0.17660   0.40690   0.19390   0.01267  Uiso   1.00
C547   C     0.16613   0.37884   0.16677   0.01267  Uiso   1.00
C548   C     0.12120   0.33980   0.14140   0.01267  Uiso   1.00
C549   C     0.13180   0.32720   0.12100   0.01267  Uiso   1.00
C550   C     0.09890   0.28860   0.08930   0.01267  Uiso   1.00
C551   C     0.84610   0.30050   0.10180   0.01267  Uiso   1.00
C552   C     0.88850   0.31580   0.09470   0.01267  Uiso   1.00
C553   C     0.92438   0.34940   0.07638   0.01267  Uiso   1.00
C554   C     0.95377   0.34836   0.07893   0.01267  Uiso   1.00
C555   C     0.99710   0.37560   0.06290   0.01267  Uiso   1.00
C556   C     0.64650   0.85920   0.17590   0.01267  Uiso   1.00
C557   C     0.62830   0.81300   0.17550   0.01267  Uiso   1.00
C558   C     0.57620   0.75750   0.16310   0.01267  Uiso   1.00
C559   C     0.58030   0.73110   0.16900   0.01267  Uiso   1.00
C560   C     0.53920   0.67340   0.16180   0.01267  Uiso   1.00
C561   C     0.61690   0.65180   0.21290   0.01267  Uiso   1.00
C562   C     0.67160   0.70690   0.23370   0.01267  Uiso   1.00
C563   C     0.70535   0.72030   0.25625   0.01267  Uiso   1.00
C564   C     0.75020   0.77640   0.26880   0.01267  Uiso   1.00
C565   C     0.79930   0.81490   0.29500   0.01267  Uiso   1.00
C566   C     0.49280   0.67430   0.09530   0.01267  Uiso   1.00
C567   C     0.48900   0.69150   0.12050   0.01267  Uiso   1.00
C568   C     0.52540   0.72910   0.14870   0.01267  Uiso   1.00
C569   C     0.49970   0.72960   0.16210   0.01267  Uiso   1.00
C570   C     0.51750   0.76060   0.19270   0.01267  Uiso   1.00
C571   C     0.71570   0.31830   0.87460   0.01267  Uiso   1.00
C572   C     0.71320   0.33790   0.90130   0.01267  Uiso   1.00
C573   C     0.75030   0.37440   0.93030   0.01267  Uiso   1.00
C574   C     0.72640   0.37610   0.94470   0.01267  Uiso   1.00
C575   C     0.74610   0.40760   0.97530   0.01267  Uiso   1.00
C576   C     0.60690   0.34980   0.99770   0.01267  Uiso   1.00
C577   C     0.55580   0.30390   0.97190   0.01267  Uiso   1.00
C578   C     0.50190   0.26530   0.97180   0.01267  Uiso   1.00
C579   C     0.47020   0.23080   0.94140   0.01267  Uiso   1.00
C580   C     0.40930   0.18230   0.92580   0.01267  Uiso   1.00
C581   C     0.57510   0.24050   0.70240   0.01267  Uiso   1.00
C582   C     0.61266   0.28281   0.68647   0.01267  Uiso   1.00
C583   C     0.60240   0.29340   0.66400   0.01267  Uiso   1.00
C584   C     0.65220   0.33730   0.65630   0.01267  Uiso   1.00
C585   C     0.66530   0.36560   0.63330   0.01267  Uiso   1.00
C586   C     0.62860   0.60220   0.43160   0.01267  Uiso   1.00
C587   C     0.59450   0.54710   0.43380   0.01267  Uiso   1.00
C588   C     0.58420   0.51220   0.41700   0.01267  Uiso   1.00
C589   C     0.55500   0.47250   0.43290   0.01267  Uiso   1.00
C590   C     0.53340   0.42370   0.42510   0.01267  Uiso   1.00
C591   C     0.44600   0.33290   0.50290   0.01267  Uiso   1.00
C592   C     0.45690   0.36480   0.52810   0.01267  Uiso   1.00
C593   C     0.45400   0.36150   0.55770   0.01267  Uiso   1.00
C594   C     0.47160   0.40440   0.57120   0.01267  Uiso   1.00
C595   C     0.47640   0.42210   0.60290   0.01267  Uiso   1.00
C596   C     0.11020   0.99890   0.02150   0.01267  Uiso   1.00
C597   C     0.12350   0.04150   0.02200   0.01267  Uiso   1.00
C598   C     0.17330   0.09920   0.03430   0.01267  Uiso   1.00
C599   C     0.15770   0.11390   0.02680   0.01267  Uiso   1.00
C600   C     0.19440   0.17205   0.03365   0.01267  Uiso   1.00
Ag91   Ag    0.01761   0.52293   0.04028   0.01267  Uiso   1.00
Ag92   Ag    0.96696   0.53375   0.99540   0.01267  Uiso   1.00
Ag93   Ag    0.88880   0.40644   0.99148   0.01267  Uiso   1.00
Ag94   Ag    0.63455   0.56778   0.31067   0.01267  Uiso   1.00
Ag95   Ag    0.74107   0.63435   0.28722   0.01267  Uiso   1.00
Ag96   Ag    0.70573   0.56641   0.34032   0.01267  Uiso   1.00
Ag97   Ag    0.08937   0.86004   0.39709   0.01267  Uiso   1.00
Ag98   Ag    0.07013   0.80744   0.32849   0.01267  Uiso   1.00
Ag99   Ag    0.20045   0.92065   0.37634   0.01267  Uiso   1.00
Ag100  Ag    0.20557   0.82578   0.17709   0.01267  Uiso   1.00
Ag101  Ag    0.28651   0.95328   0.19269   0.01267  Uiso   1.00
Ag102  Ag    0.26242   0.89824   0.12236   0.01267  Uiso   1.00
Ag103  Ag    0.43159   0.20672   0.07485   0.01267  Uiso   1.00
Ag104  Ag    0.32663   0.15105   0.09460   0.01267  Uiso   1.00
Ag105  Ag    0.38033   0.22579   0.04220   0.01267  Uiso   1.00
Ag106  Ag    0.46424   0.26704   0.61536   0.01267  Uiso   1.00
Ag107  Ag    0.34974   0.17001   0.55937   0.01267  Uiso   1.00
Ag108  Ag    0.39672   0.14370   0.58336   0.01267  Uiso   1.00
Ag109  Ag    0.97395   0.30959   0.11082   0.01267  Uiso   1.00
Ag110  Ag    0.94437   0.25476   0.16649   0.01267  Uiso   1.00
Ag111  Ag    0.87278   0.25702   0.14006   0.01267  Uiso   1.00
Ag112  Ag    0.73707   0.88671   0.22098   0.01267  Uiso   1.00
Ag113  Ag    0.66802   0.76433   0.20673   0.01267  Uiso   1.00
Ag114  Ag    0.78715   0.87058   0.26299   0.01267  Uiso   1.00
Ag115  Ag    0.59487   0.25891   0.86654   0.01267  Uiso   1.00
Ag116  Ag    0.61822   0.32068   0.93272   0.01267  Uiso   1.00
Ag117  Ag    0.48815   0.20831   0.88482   0.01267  Uiso   1.00
Ag118  Ag    0.57820   0.56505   0.49443   0.01267  Uiso   1.00
Ag119  Ag    0.50771   0.44380   0.48931   0.01267  Uiso   1.00
Ag120  Ag    0.00517   0.95106   0.98021   0.01267  Uiso   1.00
H541   H     0.12400   0.62080   0.08520   0.01267  Uiso   1.00
H542   H     0.13930   0.65940   0.11090   0.01267  Uiso   1.00
H543   H     0.17640   0.68380   0.08900   0.01267  Uiso   1.00
H544   H     0.07980   0.70360   0.04120   0.01267  Uiso   1.00
H545   H     0.01850   0.64170   0.02860   0.01267  Uiso   1.00
H546   H     0.05900   0.66990   0.00850   0.01267  Uiso   1.00
H547   H     0.91000   0.53630   0.96490   0.01267  Uiso   1.00
H548   H     0.85180   0.49850   0.96550   0.01267  Uiso   1.00
H549   H     0.86430   0.50070   0.93420   0.01267  Uiso   1.00
H550   H     0.77790   0.31050   0.94900   0.01267  Uiso   1.00
H551   H     0.74390   0.29780   0.92090   0.01267  Uiso   1.00
H552   H     0.73520   0.29840   0.95320   0.01267  Uiso   1.00
H553   H     0.82380   0.27550   0.02650   0.01267  Uiso   1.00
H554   H     0.83310   0.29370   0.99660   0.01267  Uiso   1.00
H555   H     0.81180   0.29790   0.01850   0.01267  Uiso   1.00
H556   H     0.05470   0.51290   0.08520   0.01267  Uiso   1.00
H557   H     0.04430   0.47100   0.08810   0.01267  Uiso   1.00
H558   H     0.02250   0.47700   0.10770   0.01267  Uiso   1.00
H559   H     0.59520   0.59650   0.29870   0.01267  Uiso   1.00
H560   H     0.59260   0.61390   0.27190   0.01267  Uiso   1.00
H561   H     0.63440   0.65660   0.30380   0.01267  Uiso   1.00
H562   H     0.78360   0.70650   0.24930   0.01267  Uiso   1.00
H563   H     0.80280   0.75530   0.25910   0.01267  Uiso   1.00
H564   H     0.76120   0.71210   0.22710   0.01267  Uiso   1.00
H565   H     0.83790   0.70210   0.27280   0.01267  Uiso   1.00
H566   H     0.87700   0.70820   0.27300   0.01267  Uiso   1.00
H567   H     0.89650   0.75220   0.29590   0.01267  Uiso   1.00
H568   H     0.78910   0.59290   0.37200   0.01267  Uiso   1.00
H569   H     0.85060   0.65340   0.38720   0.01267  Uiso   1.00
H570   H     0.83570   0.61330   0.36380   0.01267  Uiso   1.00
H571   H     0.65600   0.51960   0.42420   0.01267  Uiso   1.00
H572   H     0.70350   0.55950   0.40860   0.01267  Uiso   1.00
H573   H     0.65280   0.49610   0.39490   0.01267  Uiso   1.00
H574   H     0.55020   0.51920   0.33440   0.01267  Uiso   1.00
H575   H     0.56450   0.54350   0.36880   0.01267  Uiso   1.00
H576   H     0.51470   0.48010   0.35520   0.01267  Uiso   1.00
H577   H     0.99000   0.80670   0.41050   0.01267  Uiso   1.00
H578   H     0.94350   0.78530   0.38940   0.01267  Uiso   1.00
H579   H     0.92900   0.74500   0.40300   0.01267  Uiso   1.00
H580   H     0.96550   0.71930   0.28580   0.01267  Uiso   1.00
H581   H     0.90730   0.66500   0.28970   0.01267  Uiso   1.00
H582   H     0.91980   0.70450   0.27710   0.01267  Uiso   1.00
H583   H     0.05510   0.76650   0.26760   0.01267  Uiso   1.00
H584   H     0.09070   0.80170   0.24560   0.01267  Uiso   1.00
H585   H     0.08180   0.76240   0.25340   0.01267  Uiso   1.00
H586   H     0.28630   0.96290   0.35460   0.01267  Uiso   1.00
H587   H     0.29030   0.93960   0.33150   0.01267  Uiso   1.00
H588   H     0.29860   0.97860   0.32380   0.01267  Uiso   1.00
H589   H     0.30770   0.02010   0.41840   0.01267  Uiso   1.00
H590   H     0.33380   0.06990   0.43950   0.01267  Uiso   1.00
H591   H     0.33060   0.03760   0.45380   0.01267  Uiso   1.00
H592   H     0.10860   0.90170   0.45610   0.01267  Uiso   1.00
H593   H     0.14490   0.92330   0.48760   0.01267  Uiso   1.00
H594   H     0.15400   0.96130   0.47650   0.01267  Uiso   1.00
H595   H     0.15770   0.76830   0.22620   0.01267  Uiso   1.00
H596   H     0.17400   0.78660   0.26200   0.01267  Uiso   1.00
H597   H     0.12290   0.75980   0.24250   0.01267  Uiso   1.00
H598   H     0.29120   0.99470   0.24770   0.01267  Uiso   1.00
H599   H     0.24360   0.96380   0.26200   0.01267  Uiso   1.00
H600   H     0.29490   0.99090   0.28120   0.01267  Uiso   1.00
H601   H     0.35970   0.09920   0.18470   0.01267  Uiso   1.00
H602   H     0.31740   0.04690   0.19650   0.01267  Uiso   1.00
H603   H     0.37840   0.08790   0.20390   0.01267  Uiso   1.00
H604   H     0.30030   0.95930   0.07500   0.01267  Uiso   1.00
H605   H     0.28540   0.97950   0.06850   0.01267  Uiso   1.00
H606   H     0.34660   0.02070   0.07590   0.01267  Uiso   1.00
H607   H     0.22760   0.83970   0.06310   0.01267  Uiso   1.00
H608   H     0.21800   0.79860   0.05080   0.01267  Uiso   1.00
H609   H     0.17010   0.78070   0.04240   0.01267  Uiso   1.00
H610   H     0.09660   0.66260   0.12600   0.01267  Uiso   1.00
H611   H     0.14580   0.71020   0.15520   0.01267  Uiso   1.00
H612   H     0.09900   0.69400   0.14660   0.01267  Uiso   1.00
H613   H     0.46030   0.16980   0.09150   0.01267  Uiso   1.00
H614   H     0.41720   0.10810   0.08530   0.01267  Uiso   1.00
H615   H     0.45620   0.14800   0.11820   0.01267  Uiso   1.00
H616   H     0.26980   0.07180   0.12940   0.01267  Uiso   1.00
H617   H     0.28300   0.05860   0.15240   0.01267  Uiso   1.00
H618   H     0.24540   0.01970   0.11930   0.01267  Uiso   1.00
H619   H     0.23220   0.09780   0.10700   0.01267  Uiso   1.00
H620   H     0.17730   0.05450   0.08140   0.01267  Uiso   1.00
H621   H     0.20270   0.10320   0.10350   0.01267  Uiso   1.00
H622   H     0.24840   0.17560   0.00080   0.01267  Uiso   1.00
H623   H     0.28700   0.18260   0.99480   0.01267  Uiso   1.00
H624   H     0.31110   0.23010   0.01740   0.01267  Uiso   1.00
H625   H     0.41250   0.26490   0.98680   0.01267  Uiso   1.00
H626   H     0.40800   0.23730   0.95950   0.01267  Uiso   1.00
H627   H     0.46270   0.30100   0.97370   0.01267  Uiso   1.00
H628   H     0.51340   0.24410   0.05430   0.01267  Uiso   1.00
H629   H     0.55170   0.28000   0.03330   0.01267  Uiso   1.00
H630   H     0.49520   0.21630   0.02010   0.01267  Uiso   1.00
H631   H     0.53510   0.38050   0.62900   0.01267  Uiso   1.00
H632   H     0.52400   0.40490   0.62730   0.01267  Uiso   1.00
H633   H     0.55070   0.41030   0.60400   0.01267  Uiso   1.00
H634   H     0.31360   0.19210   0.53090   0.01267  Uiso   1.00
H635   H     0.34850   0.23910   0.51500   0.01267  Uiso   1.00
H636   H     0.32210   0.23310   0.53900   0.01267  Uiso   1.00
H637   H     0.25980   0.09680   0.50900   0.01267  Uiso   1.00
H638   H     0.21180   0.03670   0.48830   0.01267  Uiso   1.00
H639   H     0.26330   0.08580   0.47710   0.01267  Uiso   1.00
H640   H     0.35330   0.05440   0.53910   0.01267  Uiso   1.00
H641   H     0.34490   0.04560   0.50370   0.01267  Uiso   1.00
H642   H     0.29610   0.99730   0.51660   0.01267  Uiso   1.00
H643   H     0.44930   0.13430   0.60800   0.01267  Uiso   1.00
H644   H     0.48760   0.15810   0.63930   0.01267  Uiso   1.00
H645   H     0.51070   0.17810   0.61100   0.01267  Uiso   1.00
H646   H     0.56400   0.34820   0.66020   0.01267  Uiso   1.00
H647   H     0.61410   0.37080   0.65790   0.01267  Uiso   1.00
H648   H     0.59140   0.35130   0.68630   0.01267  Uiso   1.00
H649   H     0.05570   0.35010   0.08200   0.01267  Uiso   1.00
H650   H     0.11460   0.38980   0.09960   0.01267  Uiso   1.00
H651   H     0.07450   0.33360   0.07690   0.01267  Uiso   1.00
H652   H     0.00410   0.25270   0.18980   0.01267  Uiso   1.00
H653   H     0.02720   0.24460   0.17500   0.01267  Uiso   1.00
H654   H     0.06740   0.30070   0.19790   0.01267  Uiso   1.00
H655   H     0.21120   0.43120   0.20760   0.01267  Uiso   1.00
H656   H     0.17770   0.42760   0.18890   0.01267  Uiso   1.00
H657   H     0.14810   0.38070   0.20360   0.01267  Uiso   1.00
H658   H     0.11860   0.29010   0.08130   0.01267  Uiso   1.00
H659   H     0.06440   0.25210   0.09010   0.01267  Uiso   1.00
H660   H     0.09270   0.29930   0.07640   0.01267  Uiso   1.00
H661   H     0.82870   0.27680   0.11490   0.01267  Uiso   1.00
H662   H     0.86340   0.33300   0.11200   0.01267  Uiso   1.00
H663   H     0.81930   0.28190   0.08320   0.01267  Uiso   1.00
H664   H     0.01060   0.36790   0.06850   0.01267  Uiso   1.00
H665   H     0.98120   0.36140   0.04120   0.01267  Uiso   1.00
H666   H     0.02670   0.41430   0.06880   0.01267  Uiso   1.00
H667   H     0.68520   0.89340   0.18580   0.01267  Uiso   1.00
H668   H     0.63920   0.85840   0.15540   0.01267  Uiso   1.00
H669   H     0.62710   0.85560   0.18690   0.01267  Uiso   1.00
H670   H     0.55570   0.66940   0.16930   0.01267  Uiso   1.00
H671   H     0.51060   0.65490   0.17110   0.01267  Uiso   1.00
H672   H     0.52390   0.65770   0.14000   0.01267  Uiso   1.00
H673   H     0.60350   0.65530   0.19900   0.01267  Uiso   1.00
H674   H     0.62020   0.63640   0.20160   0.01267  Uiso   1.00
H675   H     0.59170   0.62820   0.22470   0.01267  Uiso   1.00
H676   H     0.82290   0.85140   0.29730   0.01267  Uiso   1.00
H677   H     0.78820   0.80450   0.31330   0.01267  Uiso   1.00
H678   H     0.81870   0.81360   0.29150   0.01267  Uiso   1.00
H679   H     0.46000   0.64750   0.07890   0.01267  Uiso   1.00
H680   H     0.52370   0.70530   0.08860   0.01267  Uiso   1.00
H681   H     0.49730   0.65860   0.10190   0.01267  Uiso   1.00
H682   H     0.49080   0.75270   0.19470   0.01267  Uiso   1.00
H683   H     0.52100   0.75000   0.20800   0.01267  Uiso   1.00
H684   H     0.55220   0.79910   0.19530   0.01267  Uiso   1.00
H685   H     0.68350   0.29300   0.85790   0.01267  Uiso   1.00
H686   H     0.71760   0.30030   0.88090   0.01267  Uiso   1.00
H687   H     0.74760   0.34910   0.86830   0.01267  Uiso   1.00
H688   H     0.72020   0.40040   0.97840   0.01267  Uiso   1.00
H689   H     0.78070   0.44600   0.97750   0.01267  Uiso   1.00
H690   H     0.75040   0.39720   0.99020   0.01267  Uiso   1.00
H691   H     0.63740   0.36850   0.99070   0.01267  Uiso   1.00
H692   H     0.60340   0.33560   0.01380   0.01267  Uiso   1.00
H693   H     0.61270   0.37490   0.00520   0.01267  Uiso   1.00
H694   H     0.40150   0.16790   0.90500   0.01267  Uiso   1.00
H695   H     0.39920   0.19410   0.92650   0.01267  Uiso   1.00
H696   H     0.38880   0.15450   0.93630   0.01267  Uiso   1.00
H697   H     0.53990   0.21960   0.69510   0.01267  Uiso   1.00
H698   H     0.58930   0.25740   0.72390   0.01267  Uiso   1.00
H699   H     0.57160   0.21660   0.69860   0.01267  Uiso   1.00
H700   H     0.70290   0.39410   0.63360   0.01267  Uiso   1.00
H701   H     0.65960   0.38120   0.63800   0.01267  Uiso   1.00
H702   H     0.64200   0.33970   0.61350   0.01267  Uiso   1.00
H703   H     0.62620   0.61530   0.44690   0.01267  Uiso   1.00
H704   H     0.61470   0.59770   0.41180   0.01267  Uiso   1.00
H705   H     0.66600   0.62800   0.43460   0.01267  Uiso   1.00
H706   H     0.51480   0.40320   0.43960   0.01267  Uiso   1.00
H707   H     0.56310   0.43550   0.42560   0.01267  Uiso   1.00
H708   H     0.50810   0.40100   0.40510   0.01267  Uiso   1.00
H709   H     0.45200   0.34570   0.48530   0.01267  Uiso   1.00
H710   H     0.40880   0.29500   0.49840   0.01267  Uiso   1.00
H711   H     0.47020   0.33710   0.50850   0.01267  Uiso   1.00
H712   H     0.49010   0.45330   0.60480   0.01267  Uiso   1.00
H713   H     0.50100   0.43160   0.61740   0.01267  Uiso   1.00
H714   H     0.44090   0.39260   0.60650   0.01267  Uiso   1.00
H715   H     0.07210   0.96350   0.01140   0.01267  Uiso   1.00
H716   H     0.11810   0.00000   0.04210   0.01267  Uiso   1.00
H717   H     0.13190   0.00550   0.01080   0.01267  Uiso   1.00
H718   H     0.17300   0.17070   0.02610   0.01267  Uiso   1.00
H719   H     0.22310   0.19330   0.02380   0.01267  Uiso   1.00
H720   H     0.21010   0.18870   0.05520   0.01267  Uiso   1.00
N241   N     0.90123   0.44626   0.46549   0.01267  Uiso   1.00
N242   N     0.89676   0.42502   0.43858   0.01267  Uiso   1.00
N243   N     0.03623   0.50327   0.42430   0.01267  Uiso   1.00
N244   N     0.08639   0.55021   0.44420   0.01267  Uiso   1.00
N245   N     0.10034   0.62514   0.51588   0.01267  Uiso   1.00
N246   N     0.05191   0.59454   0.52085   0.01267  Uiso   1.00
N247   N     0.88140   0.66543   0.04543   0.01267  Uiso   1.00
N248   N     0.85630   0.62950   0.06200   0.01267  Uiso   1.00
N249   N     0.85782   0.66440   0.14802   0.01267  Uiso   1.00
N250   N     0.88420   0.71250   0.16130   0.01267  Uiso   1.00
N251   N     0.96938   0.82683   0.11221   0.01267  Uiso   1.00
N252   N     0.97190   0.81600   0.08370   0.01267  Uiso   1.00
N253   N     0.70516   0.57304   0.21680   0.01267  Uiso   1.00
N254   N     0.72570   0.56530   0.23120   0.01267  Uiso   1.00
N255   N     0.65746   0.47219   0.29145   0.01267  Uiso   1.00
N256   N     0.61358   0.44735   0.29953   0.01267  Uiso   1.00
N257   N     0.54508   0.46364   0.25792   0.01267  Uiso   1.00
N258   N     0.57182   0.49730   0.23952   0.01267  Uiso   1.00
N259   N     0.64079   0.36030   0.35949   0.01267  Uiso   1.00
N260   N     0.59084   0.31430   0.33874   0.01267  Uiso   1.00
N261   N     0.50312   0.16364   0.32096   0.01267  Uiso   1.00
N262   N     0.52542   0.15772   0.33254   0.01267  Uiso   1.00
N263   N     0.68190   0.29414   0.39084   0.01267  Uiso   1.00
N264   N     0.70960   0.34270   0.39730   0.01267  Uiso   1.00
N265   N     0.34713   0.94716   0.23989   0.01267  Uiso   1.00
N266   N     0.36919   0.97917   0.21996   0.01267  Uiso   1.00
N267   N     0.34022   0.91481   0.13283   0.01267  Uiso   1.00
N268   N     0.31485   0.86678   0.12563   0.01267  Uiso   1.00
N269   N     0.24705   0.77364   0.18769   0.01267  Uiso   1.00
N270   N     0.25130   0.79338   0.21368   0.01267  Uiso   1.00
N271   N     0.21395   0.30983   0.15518   0.01267  Uiso   1.00
N272   N     0.25708   0.33038   0.14726   0.01267  Uiso   1.00
N273   N     0.39979   0.43664   0.21163   0.01267  Uiso   1.00
N274   N     0.40926   0.45388   0.24174   0.01267  Uiso   1.00
N275   N     0.29627   0.41541   0.26308   0.01267  Uiso   1.00
N276   N     0.24850   0.37997   0.24187   0.01267  Uiso   1.00
N277   N     0.19489   0.81889   0.70838   0.01267  Uiso   1.00
N278   N     0.21684   0.86521   0.71825   0.01267  Uiso   1.00
N279   N     0.11257   0.77412   0.81369   0.01267  Uiso   1.00
N280   N     0.14419   0.77658   0.82417   0.01267  Uiso   1.00
N281   N     0.20069   0.80831   0.59980   0.01267  Uiso   1.00
N282   N     0.18091   0.77837   0.62008   0.01267  Uiso   1.00
N283   N     0.67894   0.36844   0.84118   0.01267  Uiso   1.00
N284   N     0.73000   0.41457   0.86217   0.01267  Uiso   1.00
N285   N     0.74810   0.47933   0.94323   0.01267  Uiso   1.00
N286   N     0.70360   0.45740   0.94900   0.01267  Uiso   1.00
N287   N     0.82910   0.44520   0.77290   0.01267  Uiso   1.00
N288   N     0.80420   0.44740   0.75580   0.01267  Uiso   1.00
N289   N     0.18074   0.57853   0.34987   0.01267  Uiso   1.00
N290   N     0.15368   0.57913   0.33401   0.01267  Uiso   1.00
N291   N     0.20920   0.65376   0.26496   0.01267  Uiso   1.00
N292   N     0.25249   0.67750   0.25659   0.01267  Uiso   1.00
N293   N     0.18200   0.37487   0.34727   0.01267  Uiso   1.00
N294   N     0.14900   0.32207   0.33827   0.01267  Uiso   1.00
N295   N     0.96960   0.92810   0.04130   0.01267  Uiso   1.00
N296   N     0.01800   0.97430   0.06390   0.01267  Uiso   1.00
N297   N     0.09340   0.11770   0.06870   0.01267  Uiso   1.00
N298   N     0.06660   0.11760   0.05260   0.01267  Uiso   1.00
N299   N     0.47550   0.98450   0.05760   0.01267  Uiso   1.00
N300   N     0.42750   0.93900   0.03310   0.01267  Uiso   1.00
C601   C     0.84690   0.43730   0.48640   0.01267  Uiso   1.00
C602   C     0.85420   0.42310   0.46050   0.01267  Uiso   1.00
C603   C     0.82120   0.38743   0.43183   0.01267  Uiso   1.00
C604   C     0.84781   0.38990   0.41851   0.01267  Uiso   1.00
C605   C     0.83170   0.36060   0.38730   0.01267  Uiso   1.00
C606   C     0.99790   0.45290   0.36940   0.01267  Uiso   1.00
C607   C     0.04340   0.49890   0.39710   0.01267  Uiso   1.00
C608   C     0.10050   0.54340   0.40050   0.01267  Uiso   1.00
C609   C     0.12500   0.57390   0.43030   0.01267  Uiso   1.00
C610   C     0.18500   0.62740   0.44660   0.01267  Uiso   1.00
C611   C     0.19880   0.71630   0.53410   0.01267  Uiso   1.00
C612   C     0.14240   0.67680   0.53500   0.01267  Uiso   1.00
C613   C     0.12190   0.68060   0.55110   0.01267  Uiso   1.00
C614   C     0.06500   0.62890   0.54250   0.01267  Uiso   1.00
C615   C     0.02230   0.61070   0.55160   0.01267  Uiso   1.00
C616   C     0.87420   0.66360   0.99060   0.01267  Uiso   1.00
C617   C     0.85800   0.63800   0.01600   0.01267  Uiso   1.00
C618   C     0.81580   0.58140   0.01280   0.01267  Uiso   1.00
C619   C     0.81730   0.57940   0.04250   0.01267  Uiso   1.00
C620   C     0.78260   0.53080   0.05520   0.01267  Uiso   1.00
C621   C     0.78600   0.57150   0.15170   0.01267  Uiso   1.00
C622   C     0.81760   0.62570   0.16110   0.01267  Uiso   1.00
C623   C     0.81610   0.64710   0.18280   0.01267  Uiso   1.00
C624   C     0.85880   0.70150   0.18190   0.01267  Uiso   1.00
C625   C     0.87650   0.74540   0.20130   0.01267  Uiso   1.00
C626   C     0.97500   0.88010   0.13970   0.01267  Uiso   1.00
C627   C     0.97580   0.86100   0.11120   0.01267  Uiso   1.00
C628   C     0.98200   0.87290   0.08430   0.01267  Uiso   1.00
C629   C     0.97900   0.84280   0.06820   0.01267  Uiso   1.00
C630   C     0.98450   0.83920   0.03550   0.01267  Uiso   1.00
C631   C     0.72380   0.61890   0.17930   0.01267  Uiso   1.00
C632   C     0.73680   0.60470   0.19870   0.01267  Uiso   1.00
C633   C     0.77650   0.61670   0.20060   0.01267  Uiso   1.00
C634   C     0.76790   0.59100   0.22070   0.01267  Uiso   1.00
C635   C     0.79750   0.58850   0.23220   0.01267  Uiso   1.00
C636   C     0.71350   0.47470   0.30000   0.01267  Uiso   1.00
C637   C     0.66830   0.45610   0.30460   0.01267  Uiso   1.00
C638   C     0.63080   0.41900   0.32020   0.01267  Uiso   1.00
C639   C     0.59810   0.41650   0.31740   0.01267  Uiso   1.00
C640   C     0.55000   0.38340   0.32900   0.01267  Uiso   1.00
C641   C     0.46560   0.40360   0.27780   0.01267  Uiso   1.00
C642   C     0.50350   0.44550   0.26060   0.01267  Uiso   1.00
C643   C     0.50180   0.46820   0.24300   0.01267  Uiso   1.00
C644   C     0.54633   0.50140   0.23113   0.01267  Uiso   1.00
C645   C     0.56690   0.53700   0.21130   0.01267  Uiso   1.00
C646   C     0.71660   0.46000   0.37580   0.01267  Uiso   1.00
C647   C     0.66180   0.40440   0.35640   0.01267  Uiso   1.00
C648   C     0.62470   0.38720   0.33390   0.01267  Uiso   1.00
C649   C     0.58090   0.33010   0.32360   0.01267  Uiso   1.00
C650   C     0.52800   0.28910   0.29870   0.01267  Uiso   1.00
C651   C     0.42880   0.11770   0.27770   0.01267  Uiso   1.00
C652   C     0.46060   0.12040   0.29560   0.01267  Uiso   1.00
C653   C     0.45650   0.08700   0.29170   0.01267  Uiso   1.00
C654   C     0.49700   0.11110   0.31610   0.01267  Uiso   1.00
C655   C     0.51060   0.09080   0.32280   0.01267  Uiso   1.00
C656   C     0.69800   0.25600   0.39960   0.01267  Uiso   1.00
C657   C     0.71780   0.30280   0.40300   0.01267  Uiso   1.00
C658   C     0.77020   0.36010   0.41770   0.01267  Uiso   1.00
C659   C     0.76240   0.38266   0.41346   0.01267  Uiso   1.00
C660   C     0.80250   0.44120   0.42290   0.01267  Uiso   1.00
C661   C     0.36090   0.96080   0.29670   0.01267  Uiso   1.00
C662   C     0.37460   0.98170   0.26850   0.01267  Uiso   1.00
C663   C     0.41720   0.03720   0.26600   0.01267  Uiso   1.00
C664   C     0.41070   0.03180   0.23590   0.01267  Uiso   1.00
C665   C     0.44300   0.07440   0.21960   0.01267  Uiso   1.00
C666   C     0.40750   0.00020   0.11830   0.01267  Uiso   1.00
C667   C     0.37360   0.94500   0.11580   0.01267  Uiso   1.00
C668   C     0.36870   0.91560   0.09570   0.01267  Uiso   1.00
C669   C     0.33230   0.86830   0.10280   0.01267  Uiso   1.00
C670   C     0.30890   0.81870   0.08900   0.01267  Uiso   1.00
C671   C     0.23350   0.71160   0.16550   0.01267  Uiso   1.00
C672   C     0.23932   0.73902   0.19074   0.01267  Uiso   1.00
C673   C     0.23930   0.73600   0.22010   0.01267  Uiso   1.00
C674   C     0.24610   0.77140   0.23410   0.01267  Uiso   1.00
C675   C     0.25190   0.78590   0.26620   0.01267  Uiso   1.00
C676   C     0.11280   0.22830   0.13750   0.01267  Uiso   1.00
C677   C     0.16660   0.26070   0.13510   0.01267  Uiso   1.00
C678   C     0.17830   0.24950   0.11500   0.01267  Uiso   1.00
C679   C     0.23390   0.29250   0.12300   0.01267  Uiso   1.00
C680   C     0.27070   0.30430   0.10960   0.01267  Uiso   1.00
C681   C     0.42760   0.42220   0.17840   0.01267  Uiso   1.00
C682   C     0.43130   0.44040   0.20890   0.01267  Uiso   1.00
C683   C     0.46160   0.45760   0.23740   0.01267  Uiso   1.00
C684   C     0.44649   0.46580   0.25769   0.01267  Uiso   1.00
C685   C     0.46380   0.48350   0.29170   0.01267  Uiso   1.00
C686   C     0.33360   0.45490   0.31950   0.01267  Uiso   1.00
C687   C     0.28930   0.41930   0.29060   0.01267  Uiso   1.00
C688   C     0.23500   0.38450   0.28690   0.01267  Uiso   1.00
C689   C     0.21170   0.36050   0.25520   0.01267  Uiso   1.00
C690   C     0.15530   0.32000   0.23690   0.01267  Uiso   1.00
C691   C     0.14780   0.73940   0.72480   0.01267  Uiso   1.00
C692   C     0.17461   0.79210   0.73011   0.01267  Uiso   1.00
C693   C     0.18140   0.81900   0.75440   0.01267  Uiso   1.00
C694   C     0.20950   0.86520   0.74650   0.01267  Uiso   1.00
C695   C     0.22980   0.91180   0.76340   0.01267  Uiso   1.00
C696   C     0.09310   0.78700   0.76970   0.01267  Uiso   1.00
C697   C     0.12116   0.78793   0.78729   0.01267  Uiso   1.00
C698   C     0.16020   0.80160   0.78140   0.01267  Uiso   1.00
C699   C     0.17280   0.79380   0.80460   0.01267  Uiso   1.00
C700   C     0.21140   0.80070   0.81030   0.01267  Uiso   1.00
C701   C     0.19950   0.80130   0.54560   0.01267  Uiso   1.00
C702   C     0.18420   0.77890   0.57270   0.01267  Uiso   1.00
C703   C     0.15060   0.72698   0.57498   0.01267  Uiso   1.00
C704   C     0.15164   0.73057   0.60541   0.01267  Uiso   1.00
C705   C     0.12440   0.68730   0.62150   0.01267  Uiso   1.00
C706   C     0.64080   0.31670   0.78730   0.01267  Uiso   1.00
C707   C     0.68700   0.36250   0.81530   0.01267  Uiso   1.00
C708   C     0.74250   0.40560   0.81870   0.01267  Uiso   1.00
C709   C     0.76890   0.43790   0.84920   0.01267  Uiso   1.00
C710   C     0.82660   0.48840   0.86580   0.01267  Uiso   1.00
C711   C     0.84820   0.56110   0.96510   0.01267  Uiso   1.00
C712   C     0.79310   0.52680   0.96470   0.01267  Uiso   1.00
C713   C     0.77970   0.53595   0.98505   0.01267  Uiso   1.00
C714   C     0.72360   0.49240   0.97380   0.01267  Uiso   1.00
C715   C     0.68510   0.48010   0.98440   0.01267  Uiso   1.00
C716   C     0.82570   0.42100   0.81850   0.01267  Uiso   1.00
C717   C     0.80850   0.42900   0.79750   0.01267  Uiso   1.00
C718   C     0.77090   0.41960   0.79630   0.01267  Uiso   1.00
C719   C     0.77040   0.43250   0.77010   0.01267  Uiso   1.00
C720   C     0.73940   0.43210   0.75690   0.01267  Uiso   1.00
C721   C     0.18170   0.55630   0.39740   0.01267  Uiso   1.00
C722   C     0.16210   0.56340   0.37530   0.01267  Uiso   1.00
C723   C     0.12560   0.55590   0.37590   0.01267  Uiso   1.00
C724   C     0.12390   0.56860   0.35030   0.01267  Uiso   1.00
C725   C     0.09240   0.56770   0.33850   0.01267  Uiso   1.00
C726   C     0.15020   0.64790   0.25710   0.01267  Uiso   1.00
C727   C     0.19610   0.66800   0.25190   0.01267  Uiso   1.00
C728   C     0.23470   0.70650   0.23660   0.01267  Uiso   1.00
C729   C     0.26920   0.71060   0.23940   0.01267  Uiso   1.00
C730   C     0.31770   0.74350   0.22700   0.01267  Uiso   1.00
C731   C     0.25950   0.46190   0.33460   0.01267  Uiso   1.00
C732   C     0.21719   0.40366   0.32985   0.01267  Uiso   1.00
C733   C     0.20660   0.37060   0.30900   0.01267  Uiso   1.00
C734   C     0.16270   0.31900   0.31490   0.01267  Uiso   1.00
C735   C     0.13440   0.26770   0.29970   0.01267  Uiso   1.00
C736   C     0.89780   0.82940   0.02640   0.01267  Uiso   1.00
C737   C     0.95290   0.88670   0.04740   0.01267  Uiso   1.00
C738   C     0.98780   0.90480   0.07200   0.01267  Uiso   1.00
C739   C     0.02750   0.96040   0.08250   0.01267  Uiso   1.00
C740   C     0.07630   0.00140   0.10970   0.01267  Uiso   1.00
C741   C     0.16710   0.17000   0.11310   0.01267  Uiso   1.00
C742   C     0.13520   0.16330   0.09210   0.01267  Uiso   1.00
C743   C     0.13850   0.19620   0.09250   0.01267  Uiso   1.00
C744   C     0.09560   0.16680   0.06720   0.01267  Uiso   1.00
C745   C     0.07790   0.18080   0.05430   0.01267  Uiso   1.00
C746   C     0.50110   0.02260   0.11130   0.01267  Uiso   1.00
C747   C     0.45850   0.98050   0.08200   0.01267  Uiso   1.00
C748   C     0.40080   0.93510   0.07410   0.01267  Uiso   1.00
C749   C     0.38610   0.91290   0.04380   0.01267  Uiso   1.00
C750   C     0.32795   0.86160   0.02235   0.01267  Uiso   1.00
Ag121  Ag    0.97707   0.51735   0.49468   0.01267  Uiso   1.00
Ag122  Ag    0.96625   0.46165   0.43321   0.01267  Uiso   1.00
Ag123  Ag    0.09356   0.58504   0.48236   0.01267  Uiso   1.00
Ag124  Ag    0.93222   0.74289   0.06677   0.01267  Uiso   1.00
Ag125  Ag    0.86565   0.65287   0.10672   0.01267  Uiso   1.00
Ag126  Ag    0.93359   0.77391   0.13932   0.01267  Uiso   1.00
Ag127  Ag    0.63996   0.53705   0.22933   0.01267  Uiso   1.00
Ag128  Ag    0.69256   0.52105   0.26269   0.01267  Uiso   1.00
Ag129  Ag    0.57935   0.45569   0.27980   0.01267  Uiso   1.00
Ag130  Ag    0.67422   0.35131   0.37979   0.01267  Uiso   1.00
Ag131  Ag    0.54672   0.23941   0.33323   0.01267  Uiso   1.00
Ag132  Ag    0.60176   0.22412   0.36418   0.01267  Uiso   1.00
Ag133  Ag    0.29328   0.86813   0.22487   0.01267  Uiso   1.00
Ag134  Ag    0.34895   0.94355   0.17558   0.01267  Uiso   1.00
Ag135  Ag    0.27421   0.81641   0.15454   0.01267  Uiso   1.00
Ag136  Ag    0.23296   0.34832   0.19720   0.01267  Uiso   1.00
Ag137  Ag    0.32999   0.38936   0.17973   0.01267  Uiso   1.00
Ag138  Ag    0.35630   0.43966   0.25302   0.01267  Uiso   1.00
Ag139  Ag    0.19041   0.80123   0.66436   0.01267  Uiso   1.00
Ag140  Ag    0.24524   0.91173   0.68961   0.01267  Uiso   1.00
Ag141  Ag    0.24298   0.88304   0.61576   0.01267  Uiso   1.00
Ag142  Ag    0.61329   0.33427   0.85036   0.01267  Uiso   1.00
Ag143  Ag    0.73567   0.44240   0.90369   0.01267  Uiso   1.00
Ag144  Ag    0.62942   0.39241   0.91657   0.01267  Uiso   1.00
Ag145  Ag    0.24109   0.60763   0.33596   0.01267  Uiso   1.00
Ag146  Ag    0.17932   0.61204   0.29754   0.01267  Uiso   1.00
Ag147  Ag    0.29169   0.67651   0.27984   0.01267  Uiso   1.00
Ag148  Ag    0.93495   0.92938   0.01315   0.01267  Uiso   1.00
Ag149  Ag    0.05620   0.04551   0.06391   0.01267  Uiso   1.00
Ag150  Ag    0.54894   0.02915   0.05411   0.01267  Uiso   1.00
H721   H     0.87920   0.46440   0.50320   0.01267  Uiso   1.00
H722   H     0.84060   0.45150   0.47990   0.01267  Uiso   1.00
H723   H     0.81620   0.40520   0.49260   0.01267  Uiso   1.00
H724   H     0.79640   0.33760   0.37620   0.01267  Uiso   1.00
H725   H     0.85830   0.38690   0.37680   0.01267  Uiso   1.00
H726   H     0.83010   0.33860   0.38910   0.01267  Uiso   1.00
H727   H     0.96370   0.42860   0.37370   0.01267  Uiso   1.00
H728   H     0.00150   0.46700   0.35330   0.01267  Uiso   1.00
H729   H     0.99930   0.43350   0.36360   0.01267  Uiso   1.00
H730   H     0.18950   0.63850   0.46740   0.01267  Uiso   1.00
H731   H     0.20220   0.62310   0.44610   0.01267  Uiso   1.00
H732   H     0.20160   0.65480   0.43680   0.01267  Uiso   1.00
H733   H     0.22450   0.75100   0.54830   0.01267  Uiso   1.00
H734   H     0.20630   0.70290   0.53940   0.01267  Uiso   1.00
H735   H     0.20210   0.72060   0.51390   0.01267  Uiso   1.00
H736   H     0.98710   0.57230   0.54180   0.01267  Uiso   1.00
H737   H     0.02900   0.61710   0.57330   0.01267  Uiso   1.00
H738   H     0.02300   0.63070   0.54550   0.01267  Uiso   1.00
H739   H     0.90350   0.70220   0.99870   0.01267  Uiso   1.00
H740   H     0.88610   0.65800   0.97870   0.01267  Uiso   1.00
H741   H     0.84340   0.64720   0.97780   0.01267  Uiso   1.00
H742   H     0.79350   0.54280   0.07710   0.01267  Uiso   1.00
H743   H     0.74470   0.50380   0.04750   0.01267  Uiso   1.00
H744   H     0.78790   0.51500   0.04910   0.01267  Uiso   1.00
H745   H     0.79790   0.57070   0.13580   0.01267  Uiso   1.00
H746   H     0.79180   0.56480   0.16880   0.01267  Uiso   1.00
H747   H     0.74780   0.54370   0.14430   0.01267  Uiso   1.00
H748   H     0.90710   0.77910   0.19620   0.01267  Uiso   1.00
H749   H     0.84660   0.73380   0.19720   0.01267  Uiso   1.00
H750   H     0.88670   0.75050   0.22240   0.01267  Uiso   1.00
H751   H     0.98040   0.90460   0.13640   0.01267  Uiso   1.00
H752   H     0.94050   0.84910   0.14400   0.01267  Uiso   1.00
H753   H     0.00390   0.89880   0.15670   0.01267  Uiso   1.00
H754   H     0.98080   0.81520   0.03100   0.01267  Uiso   1.00
H755   H     0.95650   0.82530   0.02100   0.01267  Uiso   1.00
H756   H     0.01990   0.87510   0.03460   0.01267  Uiso   1.00
H757   H     0.69330   0.60380   0.18330   0.01267  Uiso   1.00
H758   H     0.71470   0.60410   0.15820   0.01267  Uiso   1.00
H759   H     0.75500   0.65800   0.18400   0.01267  Uiso   1.00
H760   H     0.78070   0.56650   0.24620   0.01267  Uiso   1.00
H761   H     0.83500   0.62470   0.24230   0.01267  Uiso   1.00
H762   H     0.79550   0.57260   0.21530   0.01267  Uiso   1.00
H763   H     0.73350   0.50110   0.28860   0.01267  Uiso   1.00
H764   H     0.69830   0.44390   0.28900   0.01267  Uiso   1.00
H765   H     0.73760   0.49100   0.31940   0.01267  Uiso   1.00
H766   H     0.53710   0.39170   0.32340   0.01267  Uiso   1.00
H767   H     0.56040   0.39190   0.35070   0.01267  Uiso   1.00
H768   H     0.52140   0.34520   0.32000   0.01267  Uiso   1.00
H769   H     0.47990   0.39830   0.28760   0.01267  Uiso   1.00
H770   H     0.43010   0.36960   0.26390   0.01267  Uiso   1.00
H771   H     0.46240   0.41620   0.29300   0.01267  Uiso   1.00
H772   H     0.59830   0.55440   0.20690   0.01267  Uiso   1.00
H773   H     0.57670   0.56430   0.22160   0.01267  Uiso   1.00
H774   H     0.53870   0.51520   0.19270   0.01267  Uiso   1.00
H775   H     0.73170   0.45790   0.38940   0.01267  Uiso   1.00
H776   H     0.71340   0.47540   0.38740   0.01267  Uiso   1.00
H777   H     0.74020   0.48270   0.36310   0.01267  Uiso   1.00
H778   H     0.50530   0.25300   0.29650   0.01267  Uiso   1.00
H779   H     0.53620   0.29820   0.27980   0.01267  Uiso   1.00
H780   H     0.50910   0.29030   0.30400   0.01267  Uiso   1.00
H781   H     0.40080   0.08550   0.26050   0.01267  Uiso   1.00
H782   H     0.45310   0.14960   0.27050   0.01267  Uiso   1.00
H783   H     0.41210   0.11600   0.29050   0.01267  Uiso   1.00
H784   H     0.54070   0.11570   0.34100   0.01267  Uiso   1.00
H785   H     0.52050   0.08900   0.30590   0.01267  Uiso   1.00
H786   H     0.47930   0.05520   0.32590   0.01267  Uiso   1.00
H787   H     0.66030   0.22340   0.38790   0.01267  Uiso   1.00
H788   H     0.70140   0.25220   0.41940   0.01267  Uiso   1.00
H789   H     0.71930   0.26170   0.38940   0.01267  Uiso   1.00
H790   H     0.83740   0.46340   0.43400   0.01267  Uiso   1.00
H791   H     0.78980   0.44500   0.43560   0.01267  Uiso   1.00
H792   H     0.80600   0.45260   0.40500   0.01267  Uiso   1.00
H793   H     0.33020   0.92170   0.29050   0.01267  Uiso   1.00
H794   H     0.39190   0.97720   0.30910   0.01267  Uiso   1.00
H795   H     0.35200   0.97020   0.30820   0.01267  Uiso   1.00
H796   H     0.42820   0.05760   0.19800   0.01267  Uiso   1.00
H797   H     0.44140   0.09380   0.22440   0.01267  Uiso   1.00
H798   H     0.48030   0.09960   0.22570   0.01267  Uiso   1.00
H799   H     0.40220   0.00920   0.13440   0.01267  Uiso   1.00
H800   H     0.44550   0.02690   0.12280   0.01267  Uiso   1.00
H801   H     0.39680   0.00030   0.09950   0.01267  Uiso   1.00
H802   H     0.32440   0.82520   0.07280   0.01267  Uiso   1.00
H803   H     0.31740   0.81220   0.10440   0.01267  Uiso   1.00
H804   H     0.26990   0.78730   0.08100   0.01267  Uiso   1.00
H805   H     0.23510   0.72190   0.14760   0.01267  Uiso   1.00
H806   H     0.26270   0.72220   0.17070   0.01267  Uiso   1.00
H807   H     0.19900   0.67270   0.16170   0.01267  Uiso   1.00
H808   H     0.25590   0.81020   0.26930   0.01267  Uiso   1.00
H809   H     0.22000   0.75330   0.27170   0.01267  Uiso   1.00
H810   H     0.28370   0.80380   0.27890   0.01267  Uiso   1.00
H811   H     0.11950   0.24850   0.15460   0.01267  Uiso   1.00
H812   H     0.09510   0.22240   0.11910   0.01267  Uiso   1.00
H813   H     0.08970   0.19370   0.14040   0.01267  Uiso   1.00
H814   H     0.30790   0.33880   0.12150   0.01267  Uiso   1.00
H815   H     0.26090   0.27590   0.10940   0.01267  Uiso   1.00
H816   H     0.26690   0.30590   0.08900   0.01267  Uiso   1.00
H817   H     0.40320   0.41220   0.16300   0.01267  Uiso   1.00
H818   H     0.46330   0.45160   0.17510   0.01267  Uiso   1.00
H819   H     0.41420   0.39130   0.17750   0.01267  Uiso   1.00
H820   H     0.44560   0.48470   0.29890   0.01267  Uiso   1.00
H821   H     0.45440   0.45810   0.29930   0.01267  Uiso   1.00
H822   H     0.50270   0.51930   0.29880   0.01267  Uiso   1.00
H823   H     0.36570   0.47370   0.31500   0.01267  Uiso   1.00
H824   H     0.34190   0.48120   0.32950   0.01267  Uiso   1.00
H825   H     0.32190   0.43290   0.33260   0.01267  Uiso   1.00
H826   H     0.15180   0.31200   0.21580   0.01267  Uiso   1.00
H827   H     0.12920   0.28710   0.24330   0.01267  Uiso   1.00
H828   H     0.14870   0.33500   0.24010   0.01267  Uiso   1.00
H829   H     0.14990   0.73190   0.70560   0.01267  Uiso   1.00
H830   H     0.11020   0.70980   0.72480   0.01267  Uiso   1.00
H831   H     0.16640   0.74330   0.74090   0.01267  Uiso   1.00
H832   H     0.24730   0.93710   0.75140   0.01267  Uiso   1.00
H833   H     0.25540   0.93040   0.78260   0.01267  Uiso   1.00
H834   H     0.19930   0.89720   0.76670   0.01267  Uiso   1.00
H835   H     0.06880   0.77640   0.78000   0.01267  Uiso   1.00
H836   H     0.07240   0.76130   0.75010   0.01267  Uiso   1.00
H837   H     0.11930   0.82290   0.76740   0.01267  Uiso   1.00
H838   H     0.20990   0.79120   0.82850   0.01267  Uiso   1.00
H839   H     0.24790   0.83800   0.81230   0.01267  Uiso   1.00
H840   H     0.20070   0.77710   0.79340   0.01267  Uiso   1.00
H841   H     0.22320   0.83810   0.55190   0.01267  Uiso   1.00
H842   H     0.16700   0.77900   0.53040   0.01267  Uiso   1.00
H843   H     0.21810   0.80130   0.53740   0.01267  Uiso   1.00
H844   H     0.13210   0.70060   0.64270   0.01267  Uiso   1.00
H845   H     0.13860   0.67980   0.61980   0.01267  Uiso   1.00
H846   H     0.08570   0.65450   0.61240   0.01267  Uiso   1.00
H847   H     0.60660   0.29240   0.79180   0.01267  Uiso   1.00
H848   H     0.64160   0.29700   0.78080   0.01267  Uiso   1.00
H849   H     0.64440   0.33130   0.77150   0.01267  Uiso   1.00
H850   H     0.83060   0.49990   0.88630   0.01267  Uiso   1.00
H851   H     0.84510   0.51620   0.85570   0.01267  Uiso   1.00
H852   H     0.84230   0.48230   0.86620   0.01267  Uiso   1.00
H853   H     0.84470   0.54370   0.94820   0.01267  Uiso   1.00
H854   H     0.86360   0.56520   0.98380   0.01267  Uiso   1.00
H855   H     0.87180   0.59650   0.96350   0.01267  Uiso   1.00
H856   H     0.64860   0.44590   0.97150   0.01267  Uiso   1.00
H857   H     0.69550   0.50880   0.98370   0.01267  Uiso   1.00
H858   H     0.68640   0.47790   0.00510   0.01267  Uiso   1.00
H859   H     0.85250   0.43140   0.81250   0.01267  Uiso   1.00
H860   H     0.79470   0.38330   0.81840   0.01267  Uiso   1.00
H861   H     0.84140   0.44330   0.83870   0.01267  Uiso   1.00
H862   H     0.74730   0.44200   0.73810   0.01267  Uiso   1.00
H863   H     0.75000   0.45800   0.77100   0.01267  Uiso   1.00
H864   H     0.70090   0.39620   0.75310   0.01267  Uiso   1.00
H865   H     0.20700   0.56490   0.39050   0.01267  Uiso   1.00
H866   H     0.19970   0.58060   0.41730   0.01267  Uiso   1.00
H867   H     0.15090   0.51920   0.39850   0.01267  Uiso   1.00
H868   H     0.09960   0.57800   0.31980   0.01267  Uiso   1.00
H869   H     0.05400   0.53150   0.33470   0.01267  Uiso   1.00
H870   H     0.10280   0.59300   0.35320   0.01267  Uiso   1.00
H871   H     0.13150   0.62220   0.26890   0.01267  Uiso   1.00
H872   H     0.16440   0.67820   0.26780   0.01267  Uiso   1.00
H873   H     0.12510   0.63030   0.23780   0.01267  Uiso   1.00
H874   H     0.33210   0.73710   0.23360   0.01267  Uiso   1.00
H875   H     0.30590   0.73240   0.20510   0.01267  Uiso   1.00
H876   H     0.34550   0.78180   0.23430   0.01267  Uiso   1.00
H877   H     0.28040   0.47550   0.32030   0.01267  Uiso   1.00
H878   H     0.24260   0.46650   0.33190   0.01267  Uiso   1.00
H879   H     0.28340   0.48200   0.35500   0.01267  Uiso   1.00
H880   H     0.10590   0.23950   0.30880   0.01267  Uiso   1.00
H881   H     0.11880   0.25680   0.27840   0.01267  Uiso   1.00
H882   H     0.16030   0.27380   0.30230   0.01267  Uiso   1.00
H883   H     0.88470   0.83160   0.01090   0.01267  Uiso   1.00
H884   H     0.90230   0.81410   0.01700   0.01267  Uiso   1.00
H885   H     0.87200   0.80660   0.03800   0.01267  Uiso   1.00
H886   H     0.09680   0.03640   0.11160   0.01267  Uiso   1.00
H887   H     0.06450   0.99010   0.12760   0.01267  Uiso   1.00
H888   H     0.09900   0.00410   0.10710   0.01267  Uiso   1.00
H889   H     0.15430   0.13960   0.10630   0.01267  Uiso   1.00
H890   H     0.20500   0.20340   0.11380   0.01267  Uiso   1.00
H891   H     0.16290   0.17140   0.13310   0.01267  Uiso   1.00
H892   H     0.04670   0.15150   0.03680   0.01267  Uiso   1.00
H893   H     0.06840   0.18580   0.06940   0.01267  Uiso   1.00
H894   H     0.10740   0.21390   0.04830   0.01267  Uiso   1.00
H895   H     0.53650   0.04790   0.10860   0.01267  Uiso   1.00
H896   H     0.50000   0.04210   0.11810   0.01267  Uiso   1.00
H897   H     0.49450   0.00530   0.12640   0.01267  Uiso   1.00
H898   H     0.32930   0.85540   0.00230   0.01267  Uiso   1.00
H899   H     0.30670   0.83050   0.02980   0.01267  Uiso   1.00
H900   H     0.31130   0.86650   0.02140   0.01267  Uiso   1.00
N301   N     0.48077   0.43574   0.03451   0.01267  Uiso   1.00
N302   N     0.48644   0.45818   0.06142   0.01267  Uiso   1.00
N303   N     0.57897   0.61193   0.07570   0.01267  Uiso   1.00
N304   N     0.60601   0.64219   0.05580   0.01267  Uiso   1.00
N305   N     0.60926   0.58446   0.98412   0.01267  Uiso   1.00
N306   N     0.57369   0.53106   0.97915   0.01267  Uiso   1.00
N307   N     0.12000   0.83597   0.45457   0.01267  Uiso   1.00
N308   N     0.06750   0.79430   0.43800   0.01267  Uiso   1.00
N309   N     0.01638   0.70980   0.35198   0.01267  Uiso   1.00
N310   N     0.05120   0.72290   0.33870   0.01267  Uiso   1.00
N311   N     0.21462   0.85717   0.38779   0.01267  Uiso   1.00
N312   N     0.23230   0.88820   0.41630   0.01267  Uiso   1.00
N313   N     0.85624   0.48836   0.28320   0.01267  Uiso   1.00
N314   N     0.83410   0.49450   0.26880   0.01267  Uiso   1.00
N315   N     0.68074   0.36601   0.20855   0.01267  Uiso   1.00
N316   N     0.64782   0.31405   0.20047   0.01267  Uiso   1.00
N317   N     0.70572   0.28716   0.24208   0.01267  Uiso   1.00
N318   N     0.75778   0.33230   0.26048   0.01267  Uiso   1.00
N319   N     0.50081   0.28130   0.14051   0.01267  Uiso   1.00
N320   N     0.47556   0.25210   0.16126   0.01267  Uiso   1.00
N321   N     0.34268   0.18216   0.17904   0.01267  Uiso   1.00
N322   N     0.32518   0.19288   0.16746   0.01267  Uiso   1.00
N323   N     0.40330   0.29106   0.10916   0.01267  Uiso   1.00
N324   N     0.44540   0.31230   0.10270   0.01267  Uiso   1.00
N325   N     0.20727   0.10724   0.26011   0.01267  Uiso   1.00
N326   N     0.25921   0.14923   0.28004   0.01267  Uiso   1.00
N327   N     0.28198   0.20739   0.36717   0.01267  Uiso   1.00
N328   N     0.24115   0.18922   0.37437   0.01267  Uiso   1.00
N329   N     0.08595   0.05936   0.31231   0.01267  Uiso   1.00
N330   N     0.07970   0.03762   0.28632   0.01267  Uiso   1.00
N331   N     0.65465   0.05877   0.34482   0.01267  Uiso   1.00
N332   N     0.68312   0.10982   0.35274   0.01267  Uiso   1.00
N333   N     0.72501   0.18816   0.28837   0.01267  Uiso   1.00
N334   N     0.71214   0.16752   0.25826   0.01267  Uiso   1.00
N335   N     0.65233   0.03319   0.23692   0.01267  Uiso   1.00
N336   N     0.63810   0.00663   0.25813   0.01267  Uiso   1.00
N337   N     0.61051   0.48651   0.79162   0.01267  Uiso   1.00
N338   N     0.64696   0.49859   0.78175   0.01267  Uiso   1.00
N339   N     0.46043   0.29888   0.68631   0.01267  Uiso   1.00
N340   N     0.45241   0.32002   0.67583   0.01267  Uiso   1.00
N341   N     0.70851   0.60089   0.90020   0.01267  Uiso   1.00
N342   N     0.65829   0.56083   0.87992   0.01267  Uiso   1.00
N343   N     0.02726   0.83776   0.65882   0.01267  Uiso   1.00
N344   N     0.05240   0.86783   0.63783   0.01267  Uiso   1.00
N345   N     0.03610   0.80487   0.55677   0.01267  Uiso   1.00
N346   N     0.00840   0.75460   0.55100   0.01267  Uiso   1.00
N347   N     0.17230   0.05620   0.72710   0.01267  Uiso   1.00
N348   N     0.19160   0.04840   0.74420   0.01267  Uiso   1.00
N349   N     0.72866   0.83087   0.15013   0.01267  Uiso   1.00
N350   N     0.74512   0.81967   0.16599   0.01267  Uiso   1.00
N351   N     0.88880   0.94424   0.23504   0.01267  Uiso   1.00
N352   N     0.92091   0.99590   0.24341   0.01267  Uiso   1.00
N353   N     0.52760   0.83473   0.15273   0.01267  Uiso   1.00
N354   N     0.48380   0.81073   0.16173   0.01267  Uiso   1.00
N355   N     0.38680   0.92830   0.45870   0.01267  Uiso   1.00
N356   N     0.41040   0.95410   0.43610   0.01267  Uiso   1.00
N357   N     0.54900   0.02470   0.43130   0.01267  Uiso   1.00
N358   N     0.56500   0.01400   0.44740   0.01267  Uiso   1.00
N359   N     0.42690   0.41790   0.44240   0.01267  Uiso   1.00
N360   N     0.40590   0.39440   0.46690   0.01267  Uiso   1.00
C751   C     0.45090   0.36050   0.01360   0.01267  Uiso   1.00
C752   C     0.46260   0.39370   0.03950   0.01267  Uiso   1.00
C753   C     0.45560   0.38937   0.06817   0.01267  Uiso   1.00
C754   C     0.47139   0.42930   0.08149   0.01267  Uiso   1.00
C755   C     0.47330   0.44440   0.11270   0.01267  Uiso   1.00
C756   C     0.58350   0.62850   0.13060   0.01267  Uiso   1.00
C757   C     0.60180   0.64630   0.10290   0.01267  Uiso   1.00
C758   C     0.64290   0.70000   0.09950   0.01267  Uiso   1.00
C759   C     0.64360   0.69470   0.06970   0.01267  Uiso   1.00
C760   C     0.68080   0.73840   0.05340   0.01267  Uiso   1.00
C761   C     0.68220   0.66470   0.96590   0.01267  Uiso   1.00
C762   C     0.64180   0.60740   0.96500   0.01267  Uiso   1.00
C763   C     0.62950   0.57080   0.94890   0.01267  Uiso   1.00
C764   C     0.58640   0.52250   0.95750   0.01267  Uiso   1.00
C765   C     0.55910   0.47070   0.94840   0.01267  Uiso   1.00
C766   C     0.17300   0.88360   0.50940   0.01267  Uiso   1.00
C767   C     0.12200   0.84200   0.48400   0.01267  Uiso   1.00
C768   C     0.06860   0.80300   0.48720   0.01267  Uiso   1.00
C769   C     0.03690   0.77480   0.45750   0.01267  Uiso   1.00
C770   C     0.97560   0.72740   0.44480   0.01267  Uiso   1.00
C771   C     0.91980   0.63430   0.34830   0.01267  Uiso   1.00
C772   C     0.96460   0.65650   0.33890   0.01267  Uiso   1.00
C773   C     0.96430   0.63330   0.31720   0.01267  Uiso   1.00
C774   C     0.01960   0.67690   0.31810   0.01267  Uiso   1.00
C775   C     0.04410   0.67520   0.29870   0.01267  Uiso   1.00
C776   C     0.24040   0.83530   0.36030   0.01267  Uiso   1.00
C777   C     0.24980   0.86460   0.38880   0.01267  Uiso   1.00
C778   C     0.28860   0.89770   0.41570   0.01267  Uiso   1.00
C779   C     0.27460   0.91080   0.43180   0.01267  Uiso   1.00
C780   C     0.30370   0.94900   0.46450   0.01267  Uiso   1.00
C781   C     0.93960   0.54450   0.32070   0.01267  Uiso   1.00
C782   C     0.90600   0.53810   0.30130   0.01267  Uiso   1.00
C783   C     0.91610   0.57590   0.29940   0.01267  Uiso   1.00
C784   C     0.87030   0.54720   0.27930   0.01267  Uiso   1.00
C785   C     0.85630   0.56530   0.26780   0.01267  Uiso   1.00
C786   C     0.67470   0.41350   0.20000   0.01267  Uiso   1.00
C787   C     0.65150   0.36370   0.19540   0.01267  Uiso   1.00
C788   C     0.59880   0.31060   0.17980   0.01267  Uiso   1.00
C789   C     0.59910   0.28070   0.18260   0.01267  Uiso   1.00
C790   C     0.55440   0.22100   0.17100   0.01267  Uiso   1.00
C791   C     0.62580   0.18780   0.22220   0.01267  Uiso   1.00
C792   C     0.68490   0.24290   0.23940   0.01267  Uiso   1.00
C793   C     0.72520   0.25880   0.25700   0.01267  Uiso   1.00
C794   C     0.77027   0.31520   0.26887   0.01267  Uiso   1.00
C795   C     0.82570   0.35560   0.28870   0.01267  Uiso   1.00
C796   C     0.58420   0.34080   0.12420   0.01267  Uiso   1.00
C797   C     0.54800   0.30540   0.14360   0.01267  Uiso   1.00
C798   C     0.55330   0.29080   0.16610   0.01267  Uiso   1.00
C799   C     0.50650   0.25730   0.17640   0.01267  Uiso   1.00
C800   C     0.49040   0.22930   0.20130   0.01267  Uiso   1.00
C801   C     0.34000   0.15110   0.22230   0.01267  Uiso   1.00
C802   C     0.32480   0.16500   0.20440   0.01267  Uiso   1.00
C803   C     0.29530   0.16480   0.20830   0.01267  Uiso   1.00
C804   C     0.29500   0.18090   0.18390   0.01267  Uiso   1.00
C805   C     0.26800   0.18780   0.17720   0.01267  Uiso   1.00
C806   C     0.35640   0.29840   0.10040   0.01267  Uiso   1.00
C807   C     0.39980   0.31480   0.09700   0.01267  Uiso   1.00
C808   C     0.44240   0.35250   0.08230   0.01267  Uiso   1.00
C809   C     0.46920   0.34894   0.08654   0.01267  Uiso   1.00
C810   C     0.51830   0.37960   0.07710   0.01267  Uiso   1.00
C811   C     0.16410   0.06420   0.20330   0.01267  Uiso   1.00
C812   C     0.21320   0.10610   0.23150   0.01267  Uiso   1.00
C813   C     0.27120   0.15120   0.23400   0.01267  Uiso   1.00
C814   C     0.29590   0.17480   0.26410   0.01267  Uiso   1.00
C815   C     0.35480   0.22340   0.28040   0.01267  Uiso   1.00
C816   C     0.38190   0.28920   0.38170   0.01267  Uiso   1.00
C817   C     0.32920   0.25780   0.38420   0.01267  Uiso   1.00
C818   C     0.31990   0.27300   0.40430   0.01267  Uiso   1.00
C819   C     0.26550   0.22950   0.39720   0.01267  Uiso   1.00
C820   C     0.22970   0.21990   0.41100   0.01267  Uiso   1.00
C821   C     0.04610   0.06800   0.33450   0.01267  Uiso   1.00
C822   C     0.04828   0.04858   0.30926   0.01267  Uiso   1.00
C823   C     0.01590   0.01920   0.27990   0.01267  Uiso   1.00
C824   C     0.03730   0.01200   0.26590   0.01267  Uiso   1.00
C825   C     0.01970   0.98570   0.23380   0.01267  Uiso   1.00
C826   C     0.59080   0.97530   0.36250   0.01267  Uiso   1.00
C827   C     0.62560   0.03150   0.36490   0.01267  Uiso   1.00
C828   C     0.63450   0.06330   0.38500   0.01267  Uiso   1.00
C829   C     0.66950   0.11090   0.37700   0.01267  Uiso   1.00
C830   C     0.69470   0.16110   0.39040   0.01267  Uiso   1.00
C831   C     0.74380   0.24920   0.32160   0.01267  Uiso   1.00
C832   C     0.73150   0.22240   0.29110   0.01267  Uiso   1.00
C833   C     0.72020   0.22420   0.26260   0.01267  Uiso   1.00
C834   C     0.70811   0.18880   0.24231   0.01267  Uiso   1.00
C835   C     0.69180   0.17210   0.20830   0.01267  Uiso   1.00
C836   C     0.63540   0.01410   0.18050   0.01267  Uiso   1.00
C837   C     0.62870   0.99870   0.20940   0.01267  Uiso   1.00
C838   C     0.59760   0.94810   0.21310   0.01267  Uiso   1.00
C839   C     0.60530   0.95650   0.24480   0.01267  Uiso   1.00
C840   C     0.58310   0.91840   0.26310   0.01267  Uiso   1.00
C841   C     0.51460   0.42300   0.77520   0.01267  Uiso   1.00
C842   C     0.56199   0.44450   0.76989   0.01267  Uiso   1.00
C843   C     0.56460   0.42700   0.74560   0.01267  Uiso   1.00
C844   C     0.61870   0.46300   0.75350   0.01267  Uiso   1.00
C845   C     0.64840   0.46640   0.73660   0.01267  Uiso   1.00
C846   C     0.51730   0.32340   0.73030   0.01267  Uiso   1.00
C847   C     0.50064   0.33387   0.71271   0.01267  Uiso   1.00
C848   C     0.52020   0.37880   0.71860   0.01267  Uiso   1.00
C849   C     0.48920   0.36820   0.69540   0.01267  Uiso   1.00
C850   C     0.49040   0.40110   0.68970   0.01267  Uiso   1.00
C851   C     0.75570   0.65390   0.95440   0.01267  Uiso   1.00
C852   C     0.70620   0.61150   0.92730   0.01267  Uiso   1.00
C853   C     0.65200   0.57562   0.92502   0.01267  Uiso   1.00
C854   C     0.62516   0.54623   0.89459   0.01267  Uiso   1.00
C855   C     0.56580   0.50290   0.87850   0.01267  Uiso   1.00
C856   C     0.02940   0.85350   0.71270   0.01267  Uiso   1.00
C857   C     0.04720   0.87170   0.68470   0.01267  Uiso   1.00
C858   C     0.08690   0.92380   0.68130   0.01267  Uiso   1.00
C859   C     0.08870   0.91970   0.65080   0.01267  Uiso   1.00
C860   C     0.12260   0.96080   0.63420   0.01267  Uiso   1.00
C861   C     0.09600   0.88310   0.53490   0.01267  Uiso   1.00
C862   C     0.06210   0.82840   0.53530   0.01267  Uiso   1.00
C863   C     0.05090   0.79465   0.51495   0.01267  Uiso   1.00
C864   C     0.01860   0.74980   0.52620   0.01267  Uiso   1.00
C865   C     0.99570   0.70070   0.51560   0.01267  Uiso   1.00
C866   C     0.10250   0.00720   0.68150   0.01267  Uiso   1.00
C867   C     0.13150   0.01100   0.70250   0.01267  Uiso   1.00
C868   C     0.12330   0.97460   0.70370   0.01267  Uiso   1.00
C869   C     0.16240   0.00030   0.72990   0.01267  Uiso   1.00
C870   C     0.17520   0.98250   0.74310   0.01267  Uiso   1.00
C871   C     0.65890   0.78430   0.10260   0.01267  Uiso   1.00
C872   C     0.68810   0.78680   0.12470   0.01267  Uiso   1.00
C873   C     0.68000   0.74970   0.12410   0.01267  Uiso   1.00
C874   C     0.71830   0.77360   0.14970   0.01267  Uiso   1.00
C875   C     0.72920   0.75390   0.16150   0.01267  Uiso   1.00
C876   C     0.89080   0.89310   0.24290   0.01267  Uiso   1.00
C877   C     0.91610   0.94420   0.24810   0.01267  Uiso   1.00
C878   C     0.96990   0.99810   0.26340   0.01267  Uiso   1.00
C879   C     0.97120   0.02980   0.26060   0.01267  Uiso   1.00
C880   C     0.01650   0.09070   0.27300   0.01267  Uiso   1.00
C881   C     0.62730   0.92490   0.16540   0.01267  Uiso   1.00
C882   C     0.57381   0.88734   0.17015   0.01267  Uiso   1.00
C883   C     0.56160   0.89760   0.19100   0.01267  Uiso   1.00
C884   C     0.50410   0.84780   0.18510   0.01267  Uiso   1.00
C885   C     0.46800   0.83470   0.20030   0.01267  Uiso   1.00
C886   C     0.30300   0.87140   0.47360   0.01267  Uiso   1.00
C887   C     0.33930   0.90550   0.45260   0.01267  Uiso   1.00
C888   C     0.33280   0.91580   0.42800   0.01267  Uiso   1.00
C889   C     0.37790   0.94500   0.41750   0.01267  Uiso   1.00
C890   C     0.39170   0.96660   0.39030   0.01267  Uiso   1.00
C891   C     0.55690   0.05400   0.38690   0.01267  Uiso   1.00
C892   C     0.57120   0.04310   0.40790   0.01267  Uiso   1.00
C893   C     0.60370   0.04600   0.40750   0.01267  Uiso   1.00
C894   C     0.59960   0.02840   0.43280   0.01267  Uiso   1.00
C895   C     0.62650   0.02360   0.44570   0.01267  Uiso   1.00
C896   C     0.41130   0.38980   0.38870   0.01267  Uiso   1.00
C897   C     0.39850   0.37650   0.41800   0.01267  Uiso   1.00
C898   C     0.36100   0.32670   0.42590   0.01267  Uiso   1.00
C899   C     0.36910   0.34230   0.45620   0.01267  Uiso   1.00
C900   C     0.33925   0.30560   0.47765   0.01267  Uiso   1.00
Ag151  Ag    0.52267   0.48239   0.00532   0.01267  Uiso   1.00
Ag152  Ag    0.52843   0.53304   0.06679   0.01267  Uiso   1.00
Ag153  Ag    0.60268   0.61120   0.01764   0.01267  Uiso   1.00
Ag154  Ag    0.17612   0.86545   0.43323   0.01267  Uiso   1.00
Ag155  Ag    0.04615   0.75893   0.39328   0.01267  Uiso   1.00
Ag156  Ag    0.13459   0.79427   0.36068   0.01267  Uiso   1.00
Ag157  Ag    0.80772   0.41063   0.27067   0.01267  Uiso   1.00
Ag158  Ag    0.75836   0.42987   0.23731   0.01267  Uiso   1.00
Ag159  Ag    0.67589   0.29955   0.22020   0.01267  Uiso   1.00
Ag160  Ag    0.47152   0.29443   0.12021   0.01267  Uiso   1.00
Ag161  Ag    0.40618   0.21349   0.16677   0.01267  Uiso   1.00
Ag162  Ag    0.35994   0.23758   0.13582   0.01267  Uiso   1.00
Ag163  Ag    0.14326   0.06841   0.27513   0.01267  Uiso   1.00
Ag164  Ag    0.26797   0.17337   0.32442   0.01267  Uiso   1.00
Ag165  Ag    0.16187   0.11967   0.34546   0.01267  Uiso   1.00
Ag166  Ag    0.65112   0.03576   0.30280   0.01267  Uiso   1.00
Ag167  Ag    0.70963   0.15026   0.32027   0.01267  Uiso   1.00
Ag168  Ag    0.68664   0.10328   0.24698   0.01267  Uiso   1.00
Ag169  Ag    0.63687   0.52605   0.83564   0.01267  Uiso   1.00
Ag170  Ag    0.72212   0.55563   0.81039   0.01267  Uiso   1.00
Ag171  Ag    0.76728   0.62722   0.88424   0.01267  Uiso   1.00
Ag172  Ag    0.98391   0.76293   0.64964   0.01267  Uiso   1.00
Ag173  Ag    0.03871   0.83198   0.59631   0.01267  Uiso   1.00
Ag174  Ag    0.97584   0.71285   0.58343   0.01267  Uiso   1.00
Ag175  Ag    0.77167   0.90513   0.16404   0.01267  Uiso   1.00
Ag176  Ag    0.81450   0.88178   0.20246   0.01267  Uiso   1.00
Ag177  Ag    0.89667   0.01185   0.22016   0.01267  Uiso   1.00
Ag178  Ag    0.41623   0.92180   0.48685   0.01267  Uiso   1.00
Ag179  Ag    0.48160   0.99229   0.43609   0.01267  Uiso   1.00
Ag180  Ag    0.47504   0.49483   0.44589   0.01267  Uiso   1.00
H901   H     0.46120   0.37600   0.99680   0.01267  Uiso   1.00
H902   H     0.47160   0.36070   0.02010   0.01267  Uiso   1.00
H903   H     0.41260   0.32360   0.00740   0.01267  Uiso   1.00
H904   H     0.46140   0.42020   0.12380   0.01267  Uiso   1.00
H905   H     0.51010   0.48150   0.12320   0.01267  Uiso   1.00
H906   H     0.44950   0.44100   0.11090   0.01267  Uiso   1.00
H907   H     0.55490   0.59000   0.12630   0.01267  Uiso   1.00
H908   H     0.61370   0.64820   0.14670   0.01267  Uiso   1.00
H909   H     0.56990   0.63570   0.13640   0.01267  Uiso   1.00
H910   H     0.67110   0.72210   0.03260   0.01267  Uiso   1.00
H911   H     0.67700   0.75610   0.05390   0.01267  Uiso   1.00
H912   H     0.71800   0.76480   0.06320   0.01267  Uiso   1.00
H913   H     0.70270   0.67620   0.95170   0.01267  Uiso   1.00
H914   H     0.66350   0.66690   0.96060   0.01267  Uiso   1.00
H915   H     0.70670   0.68820   0.98610   0.01267  Uiso   1.00
H916   H     0.53050   0.44530   0.95820   0.01267  Uiso   1.00
H917   H     0.54380   0.45570   0.92670   0.01267  Uiso   1.00
H918   H     0.58520   0.47750   0.95450   0.01267  Uiso   1.00
H919   H     0.20350   0.90480   0.50130   0.01267  Uiso   1.00
H920   H     0.17930   0.90740   0.52130   0.01267  Uiso   1.00
H921   H     0.16940   0.86560   0.52220   0.01267  Uiso   1.00
H922   H     0.96570   0.71640   0.42290   0.01267  Uiso   1.00
H923   H     0.95630   0.69720   0.45250   0.01267  Uiso   1.00
H924   H     0.96590   0.73880   0.45090   0.01267  Uiso   1.00
H925   H     0.93490   0.66210   0.36420   0.01267  Uiso   1.00
H926   H     0.89600   0.62300   0.33120   0.01267  Uiso   1.00
H927   H     0.89940   0.60350   0.35570   0.01267  Uiso   1.00
H928   H     0.08290   0.71090   0.30380   0.01267  Uiso   1.00
H929   H     0.03660   0.64940   0.30280   0.01267  Uiso   1.00
H930   H     0.02810   0.66430   0.27760   0.01267  Uiso   1.00
H931   H     0.26820   0.84400   0.36360   0.01267  Uiso   1.00
H932   H     0.20510   0.79650   0.35600   0.01267  Uiso   1.00
H933   H     0.24210   0.84720   0.34330   0.01267  Uiso   1.00
H934   H     0.28420   0.94980   0.46900   0.01267  Uiso   1.00
H935   H     0.30430   0.93550   0.47900   0.01267  Uiso   1.00
H936   H     0.34050   0.98530   0.46540   0.01267  Uiso   1.00
H937   H     0.92050   0.51000   0.31670   0.01267  Uiso   1.00
H938   H     0.94590   0.55650   0.34180   0.01267  Uiso   1.00
H939   H     0.97400   0.57100   0.31600   0.01267  Uiso   1.00
H940   H     0.82030   0.53450   0.25380   0.01267  Uiso   1.00
H941   H     0.88240   0.59270   0.25770   0.01267  Uiso   1.00
H942   H     0.85730   0.58020   0.28470   0.01267  Uiso   1.00
H943   H     0.71250   0.44490   0.21140   0.01267  Uiso   1.00
H944   H     0.65490   0.40930   0.21100   0.01267  Uiso   1.00
H945   H     0.67160   0.41820   0.18060   0.01267  Uiso   1.00
H946   H     0.56830   0.21370   0.17660   0.01267  Uiso   1.00
H947   H     0.54120   0.20970   0.14930   0.01267  Uiso   1.00
H948   H     0.52520   0.20140   0.18000   0.01267  Uiso   1.00
H949   H     0.61070   0.19230   0.21240   0.01267  Uiso   1.00
H950   H     0.60570   0.16620   0.23610   0.01267  Uiso   1.00
H951   H     0.62320   0.16940   0.20700   0.01267  Uiso   1.00
H952   H     0.84750   0.39140   0.29310   0.01267  Uiso   1.00
H953   H     0.84270   0.35510   0.27840   0.01267  Uiso   1.00
H954   H     0.82250   0.34600   0.30730   0.01267  Uiso   1.00
H955   H     0.56850   0.34230   0.11060   0.01267  Uiso   1.00
H956   H     0.58800   0.32600   0.11260   0.01267  Uiso   1.00
H957   H     0.61960   0.37710   0.13690   0.01267  Uiso   1.00
H958   H     0.45650   0.20880   0.20350   0.01267  Uiso   1.00
H959   H     0.51840   0.25640   0.22020   0.01267  Uiso   1.00
H960   H     0.48630   0.20510   0.19600   0.01267  Uiso   1.00
H961   H     0.32500   0.14030   0.23950   0.01267  Uiso   1.00
H962   H     0.37910   0.18260   0.22950   0.01267  Uiso   1.00
H963   H     0.32550   0.12160   0.20950   0.01267  Uiso   1.00
H964   H     0.27470   0.19970   0.15900   0.01267  Uiso   1.00
H965   H     0.28310   0.21460   0.19410   0.01267  Uiso   1.00
H966   H     0.22930   0.15340   0.17410   0.01267  Uiso   1.00
H967   H     0.33550   0.27240   0.11210   0.01267  Uiso   1.00
H968   H     0.33280   0.28200   0.08060   0.01267  Uiso   1.00
H969   H     0.37230   0.32990   0.11060   0.01267  Uiso   1.00
H970   H     0.52940   0.40340   0.06600   0.01267  Uiso   1.00
H971   H     0.50940   0.35420   0.06440   0.01267  Uiso   1.00
H972   H     0.54760   0.40100   0.09500   0.01267  Uiso   1.00
H973   H     0.13120   0.03970   0.20950   0.01267  Uiso   1.00
H974   H     0.16810   0.08280   0.19090   0.01267  Uiso   1.00
H975   H     0.16200   0.04380   0.19180   0.01267  Uiso   1.00
H976   H     0.35960   0.23020   0.30200   0.01267  Uiso   1.00
H977   H     0.36940   0.21700   0.27560   0.01267  Uiso   1.00
H978   H     0.37390   0.25460   0.27430   0.01267  Uiso   1.00
H979   H     0.37480   0.26780   0.36560   0.01267  Uiso   1.00
H980   H     0.40410   0.32270   0.37720   0.01267  Uiso   1.00
H981   H     0.40080   0.29730   0.40050   0.01267  Uiso   1.00
H982   H     0.25240   0.25160   0.42720   0.01267  Uiso   1.00
H983   H     0.20780   0.21300   0.39560   0.01267  Uiso   1.00
H984   H     0.20630   0.18890   0.41900   0.01267  Uiso   1.00
H985   H     0.07430   0.08750   0.35240   0.01267  Uiso   1.00
H986   H     0.05150   0.09200   0.32930   0.01267  Uiso   1.00
H987   H     0.01100   0.03730   0.33830   0.01267  Uiso   1.00
H988   H     0.04090   0.98660   0.23070   0.01267  Uiso   1.00
H989   H     0.98160   0.94830   0.22830   0.01267  Uiso   1.00
H990   H     0.02490   0.00480   0.22110   0.01267  Uiso   1.00
H991   H     0.59390   0.96490   0.34540   0.01267  Uiso   1.00
H992   H     0.60330   0.97600   0.38090   0.01267  Uiso   1.00
H993   H     0.55330   0.94930   0.35960   0.01267  Uiso   1.00
H994   H     0.71730   0.18640   0.37850   0.01267  Uiso   1.00
H995   H     0.66650   0.15150   0.39060   0.01267  Uiso   1.00
H996   H     0.71690   0.17790   0.41100   0.01267  Uiso   1.00
H997   H     0.74920   0.24020   0.33700   0.01267  Uiso   1.00
H998   H     0.77650   0.28820   0.32490   0.01267  Uiso   1.00
H999   H     0.71380   0.23670   0.32250   0.01267  Uiso   1.00
H1000  H     0.68580   0.14670   0.20110   0.01267  Uiso   1.00
H1001  H     0.65880   0.15510   0.20070   0.01267  Uiso   1.00
H1002  H     0.72050   0.20390   0.20120   0.01267  Uiso   1.00
H1003  H     0.65870   0.05070   0.18500   0.01267  Uiso   1.00
H1004  H     0.65170   0.01240   0.17050   0.01267  Uiso   1.00
H1005  H     0.60030   0.98930   0.16740   0.01267  Uiso   1.00
H1006  H     0.59620   0.93600   0.28420   0.01267  Uiso   1.00
H1007  H     0.54380   0.88590   0.25670   0.01267  Uiso   1.00
H1008  H     0.59490   0.90860   0.25990   0.01267  Uiso   1.00
H1009  H     0.52630   0.44430   0.79440   0.01267  Uiso   1.00
H1010  H     0.48500   0.38540   0.77520   0.01267  Uiso   1.00
H1011  H     0.50240   0.42550   0.75910   0.01267  Uiso   1.00
H1012  H     0.68570   0.49590   0.74860   0.01267  Uiso   1.00
H1013  H     0.64780   0.47280   0.71740   0.01267  Uiso   1.00
H1014  H     0.63050   0.43260   0.73330   0.01267  Uiso   1.00
H1015  H     0.49640   0.28880   0.72000   0.01267  Uiso   1.00
H1016  H     0.51120   0.32230   0.74990   0.01267  Uiso   1.00
H1017  H     0.55550   0.35190   0.73260   0.01267  Uiso   1.00
H1018  H     0.46270   0.38140   0.67150   0.01267  Uiso   1.00
H1019  H     0.52570   0.43560   0.68770   0.01267  Uiso   1.00
H1020  H     0.48370   0.40730   0.70660   0.01267  Uiso   1.00
H1021  H     0.78620   0.67130   0.94810   0.01267  Uiso   1.00
H1022  H     0.74860   0.63660   0.96960   0.01267  Uiso   1.00
H1023  H     0.76390   0.68070   0.96260   0.01267  Uiso   1.00
H1024  H     0.55790   0.48940   0.85730   0.01267  Uiso   1.00
H1025  H     0.56000   0.51880   0.88020   0.01267  Uiso   1.00
H1026  H     0.54210   0.47330   0.88760   0.01267  Uiso   1.00
H1027  H     0.00060   0.81480   0.70820   0.01267  Uiso   1.00
H1028  H     0.01620   0.86080   0.71920   0.01267  Uiso   1.00
H1029  H     0.05980   0.87290   0.72850   0.01267  Uiso   1.00
H1030  H     0.11360   0.94430   0.61370   0.01267  Uiso   1.00
H1031  H     0.16050   0.98940   0.64430   0.01267  Uiso   1.00
H1032  H     0.11610   0.97610   0.63380   0.01267  Uiso   1.00
H1033  H     0.09550   0.89650   0.55180   0.01267  Uiso   1.00
H1034  H     0.08140   0.87980   0.51620   0.01267  Uiso   1.00
H1035  H     0.13300   0.90830   0.53650   0.01267  Uiso   1.00
H1036  H     0.97440   0.67710   0.52850   0.01267  Uiso   1.00
H1037  H     0.02510   0.71180   0.51630   0.01267  Uiso   1.00
H1038  H     0.97280   0.68130   0.49490   0.01267  Uiso   1.00
H1039  H     0.11890   0.04000   0.68750   0.01267  Uiso   1.00
H1040  H     0.06490   0.97630   0.68160   0.01267  Uiso   1.00
H1041  H     0.10460   0.00270   0.66130   0.01267  Uiso   1.00
H1042  H     0.20390   0.00920   0.76190   0.01267  Uiso   1.00
H1043  H     0.18700   0.97900   0.72900   0.01267  Uiso   1.00
H1044  H     0.14310   0.94780   0.74690   0.01267  Uiso   1.00
H1045  H     0.67440   0.81650   0.10950   0.01267  Uiso   1.00
H1046  H     0.66330   0.78240   0.08270   0.01267  Uiso   1.00
H1047  H     0.62070   0.75240   0.10150   0.01267  Uiso   1.00
H1048  H     0.75820   0.77980   0.18020   0.01267  Uiso   1.00
H1049  H     0.69680   0.71930   0.16530   0.01267  Uiso   1.00
H1050  H     0.73980   0.74960   0.14680   0.01267  Uiso   1.00
H1051  H     0.85330   0.86260   0.23110   0.01267  Uiso   1.00
H1052  H     0.91040   0.89660   0.23220   0.01267  Uiso   1.00
H1053  H     0.89250   0.88730   0.26220   0.01267  Uiso   1.00
H1054  H     0.00350   0.09850   0.26640   0.01267  Uiso   1.00
H1055  H     0.02730   0.10080   0.29490   0.01267  Uiso   1.00
H1056  H     0.04750   0.11120   0.26570   0.01267  Uiso   1.00
H1057  H     0.65520   0.96010   0.17970   0.01267  Uiso   1.00
H1058  H     0.63460   0.91070   0.16810   0.01267  Uiso   1.00
H1059  H     0.62700   0.92840   0.14500   0.01267  Uiso   1.00
H1060  H     0.43070   0.79710   0.19120   0.01267  Uiso   1.00
H1061  H     0.47840   0.84040   0.22160   0.01267  Uiso   1.00
H1062  H     0.47150   0.85800   0.19770   0.01267  Uiso   1.00
H1063  H     0.32070   0.87380   0.48910   0.01267  Uiso   1.00
H1064  H     0.29710   0.88530   0.48300   0.01267  Uiso   1.00
H1065  H     0.26860   0.83400   0.46200   0.01267  Uiso   1.00
H1066  H     0.42480   0.98520   0.38840   0.01267  Uiso   1.00
H1067  H     0.36250   0.93690   0.37240   0.01267  Uiso   1.00
H1068  H     0.39700   0.99190   0.39290   0.01267  Uiso   1.00
H1069  H     0.53330   0.04800   0.39370   0.01267  Uiso   1.00
H1070  H     0.58960   0.09120   0.38620   0.01267  Uiso   1.00
H1071  H     0.53830   0.02980   0.36690   0.01267  Uiso   1.00
H1072  H     0.61470   0.00990   0.46320   0.01267  Uiso   1.00
H1073  H     0.61640   0.99900   0.43060   0.01267  Uiso   1.00
H1074  H     0.66560   0.05910   0.45170   0.01267  Uiso   1.00
H1075  H     0.43930   0.42790   0.39140   0.01267  Uiso   1.00
H1076  H     0.42400   0.38190   0.38190   0.01267  Uiso   1.00
H1077  H     0.37890   0.36810   0.37360   0.01267  Uiso   1.00
H1078  H     0.35310   0.32700   0.49770   0.01267  Uiso   1.00
H1079  H     0.30070   0.27690   0.47020   0.01267  Uiso   1.00
H1080  H     0.34510   0.28990   0.47860   0.01267  Uiso   1.00
N361   N     0.94626   0.98077   0.54503   0.01267  Uiso   1.00
N362   N     0.92502   0.98644   0.52826   0.01267  Uiso   1.00
N363   N     0.00327   0.07897   0.46704   0.01267  Uiso   1.00
N364   N     0.05021   0.10601   0.46382   0.01267  Uiso   1.00
N365   N     0.12514   0.10926   0.52480   0.01267  Uiso   1.00
N366   N     0.09454   0.07369   0.54263   0.01267  Uiso   1.00
N367   N     0.16543   0.62000   0.78403   0.01267  Uiso   1.00
N368   N     0.12950   0.56750   0.77320   0.01267  Uiso   1.00
N369   N     0.16440   0.51638   0.80658   0.01267  Uiso   1.00
N370   N     0.21250   0.55120   0.82830   0.01267  Uiso   1.00
N371   N     0.32683   0.71462   0.85745   0.01267  Uiso   1.00
N372   N     0.31600   0.73230   0.84410   0.01267  Uiso   1.00
N373   N     0.07304   0.35624   0.86788   0.01267  Uiso   1.00
N374   N     0.06530   0.33410   0.83960   0.01267  Uiso   1.00
N375   N     0.97219   0.18074   0.81473   0.01267  Uiso   1.00
N376   N     0.94735   0.14782   0.83377   0.01267  Uiso   1.00
N377   N     0.96364   0.20572   0.91856   0.01267  Uiso   1.00
N378   N     0.99730   0.25778   0.92548   0.01267  Uiso   1.00
N379   N     0.86030   0.00081   0.71951   0.01267  Uiso   1.00
N380   N     0.81430   0.97556   0.72346   0.01267  Uiso   1.00
N381   N     0.66364   0.84268   0.66052   0.01267  Uiso   1.00
N382   N     0.65772   0.82518   0.63230   0.01267  Uiso   1.00
N383   N     0.79414   0.90330   0.61224   0.01267  Uiso   1.00
N384   N     0.84270   0.94540   0.63310   0.01267  Uiso   1.00
N385   N     0.44716   0.70727   0.60003   0.01267  Uiso   1.00
N386   N     0.47917   0.75921   0.60998   0.01267  Uiso   1.00
N387   N     0.41481   0.78198   0.57459   0.01267  Uiso   1.00
N388   N     0.36678   0.74115   0.55193   0.01267  Uiso   1.00
N389   N     0.27364   0.58595   0.52659   0.01267  Uiso   1.00
N390   N     0.29338   0.57970   0.54208   0.01267  Uiso   1.00
N391   N     0.80983   0.15465   0.09588   0.01267  Uiso   1.00
N392   N     0.83038   0.18312   0.07330   0.01267  Uiso   1.00
N393   N     0.93664   0.22501   0.03685   0.01267  Uiso   1.00
N394   N     0.95388   0.21214   0.04462   0.01267  Uiso   1.00
N395   N     0.91541   0.15233   0.11914   0.01267  Uiso   1.00
N396   N     0.87997   0.13810   0.13147   0.01267  Uiso   1.00
N397   N     0.31889   0.11051   0.62400   0.01267  Uiso   1.00
N398   N     0.36521   0.14696   0.64837   0.01267  Uiso   1.00
N399   N     0.27412   0.96043   0.66155   0.01267  Uiso   1.00
N400   N     0.27658   0.95241   0.63239   0.01267  Uiso   1.00
N401   N     0.30831   0.20851   0.60762   0.01267  Uiso   1.00
N402   N     0.27837   0.15829   0.59746   0.01267  Uiso   1.00
N403   N     0.86844   0.52726   0.68950   0.01267  Uiso   1.00
N404   N     0.91457   0.55240   0.68457   0.01267  Uiso   1.00
N405   N     0.97933   0.53610   0.73123   0.01267  Uiso   1.00
N406   N     0.95740   0.50840   0.75380   0.01267  Uiso   1.00
N407   N     0.94520   0.67230   0.61610   0.01267  Uiso   1.00
N408   N     0.94740   0.69160   0.64320   0.01267  Uiso   1.00
N409   N     0.07853   0.22866   0.39779   0.01267  Uiso   1.00
N410   N     0.07913   0.24512   0.42545   0.01267  Uiso   1.00
N411   N     0.15376   0.38880   0.44456   0.01267  Uiso   1.00
N412   N     0.17750   0.42091   0.42501   0.01267  Uiso   1.00
N413   N     0.87487   0.02760   0.19287   0.01267  Uiso   1.00
N414   N     0.82207   0.98380   0.17307   0.01267  Uiso   1.00
N415   N     0.42810   0.88680   0.95850   0.01267  Uiso   1.00
N416   N     0.47430   0.91040   0.95630   0.01267  Uiso   1.00
N417   N     0.61770   0.04900   0.02430   0.01267  Uiso   1.00
N418   N     0.61760   0.06500   0.05100   0.01267  Uiso   1.00
N419   N     0.48450   0.92690   0.50900   0.01267  Uiso   1.00
N420   N     0.43900   0.90590   0.51150   0.01267  Uiso   1.00
C901   C     0.93730   0.95090   0.59040   0.01267  Uiso   1.00
C902   C     0.92310   0.96260   0.56890   0.01267  Uiso   1.00
C903   C     0.88743   0.95560   0.56623   0.01267  Uiso   1.00
C904   C     0.88990   0.97139   0.54209   0.01267  Uiso   1.00
C905   C     0.86060   0.97330   0.52890   0.01267  Uiso   1.00
C906   C     0.95290   0.08350   0.45500   0.01267  Uiso   1.00
C907   C     0.99890   0.10180   0.45550   0.01267  Uiso   1.00
C908   C     0.04340   0.14290   0.44290   0.01267  Uiso   1.00
C909   C     0.07390   0.14360   0.44890   0.01267  Uiso   1.00
C910   C     0.12740   0.18080   0.44240   0.01267  Uiso   1.00
C911   C     0.21630   0.18220   0.51750   0.01267  Uiso   1.00
C912   C     0.17680   0.14180   0.53440   0.01267  Uiso   1.00
C913   C     0.18060   0.12950   0.55870   0.01267  Uiso   1.00
C914   C     0.12890   0.08640   0.56390   0.01267  Uiso   1.00
C915   C     0.11070   0.05910   0.58840   0.01267  Uiso   1.00
C916   C     0.16360   0.67300   0.78940   0.01267  Uiso   1.00
C917   C     0.13800   0.62200   0.78000   0.01267  Uiso   1.00
C918   C     0.08140   0.56860   0.76560   0.01267  Uiso   1.00
C919   C     0.07940   0.53690   0.76210   0.01267  Uiso   1.00
C920   C     0.03080   0.47560   0.74820   0.01267  Uiso   1.00
C921   C     0.07150   0.41980   0.78550   0.01267  Uiso   1.00
C922   C     0.12570   0.46460   0.80810   0.01267  Uiso   1.00
C923   C     0.14710   0.46430   0.83100   0.01267  Uiso   1.00
C924   C     0.20150   0.51960   0.84270   0.01267  Uiso   1.00
C925   C     0.24540   0.54410   0.86890   0.01267  Uiso   1.00
C926   C     0.38010   0.74040   0.90510   0.01267  Uiso   1.00
C927   C     0.36100   0.74980   0.88520   0.01267  Uiso   1.00
C928   C     0.37290   0.78860   0.89090   0.01267  Uiso   1.00
C929   C     0.34280   0.77460   0.86380   0.01267  Uiso   1.00
C930   C     0.33920   0.80370   0.85470   0.01267  Uiso   1.00
C931   C     0.11890   0.43960   0.89510   0.01267  Uiso   1.00
C932   C     0.10470   0.40600   0.86790   0.01267  Uiso   1.00
C933   C     0.11670   0.41610   0.84020   0.01267  Uiso   1.00
C934   C     0.09100   0.37030   0.82310   0.01267  Uiso   1.00
C935   C     0.08850   0.35630   0.79100   0.01267  Uiso   1.00
C936   C     0.97470   0.17470   0.76120   0.01267  Uiso   1.00
C937   C     0.95610   0.15150   0.78780   0.01267  Uiso   1.00
C938   C     0.91900   0.09880   0.78820   0.01267  Uiso   1.00
C939   C     0.91650   0.09910   0.81840   0.01267  Uiso   1.00
C940   C     0.88340   0.05440   0.83340   0.01267  Uiso   1.00
C941   C     0.90360   0.12580   0.93800   0.01267  Uiso   1.00
C942   C     0.94550   0.18490   0.94200   0.01267  Uiso   1.00
C943   C     0.96820   0.22520   0.96640   0.01267  Uiso   1.00
C944   C     0.00140   0.27027   0.95507   0.01267  Uiso   1.00
C945   C     0.03700   0.32570   0.97010   0.01267  Uiso   1.00
C946   C     0.96000   0.08420   0.74340   0.01267  Uiso   1.00
C947   C     0.90440   0.04800   0.74260   0.01267  Uiso   1.00
C948   C     0.88720   0.05330   0.76250   0.01267  Uiso   1.00
C949   C     0.83010   0.00650   0.74920   0.01267  Uiso   1.00
C950   C     0.78910   0.99040   0.76110   0.01267  Uiso   1.00
C951   C     0.61770   0.84000   0.68890   0.01267  Uiso   1.00
C952   C     0.62040   0.82480   0.65980   0.01267  Uiso   1.00
C953   C     0.58700   0.79530   0.63050   0.01267  Uiso   1.00
C954   C     0.61110   0.79500   0.61410   0.01267  Uiso   1.00
C955   C     0.59080   0.76800   0.58020   0.01267  Uiso   1.00
C956   C     0.75600   0.85640   0.55800   0.01267  Uiso   1.00
C957   C     0.80280   0.89980   0.58500   0.01267  Uiso   1.00
C958   C     0.86010   0.94240   0.58990   0.01267  Uiso   1.00
C959   C     0.88266   0.96920   0.62026   0.01267  Uiso   1.00
C960   C     0.94120   0.01830   0.63870   0.01267  Uiso   1.00
C961   C     0.46080   0.66410   0.59990   0.01267  Uiso   1.00
C962   C     0.48170   0.71320   0.60710   0.01267  Uiso   1.00
C963   C     0.53720   0.77120   0.62000   0.01267  Uiso   1.00
C964   C     0.53180   0.79590   0.62110   0.01267  Uiso   1.00
C965   C     0.57440   0.85480   0.63140   0.01267  Uiso   1.00
C966   C     0.50020   0.88190   0.59270   0.01267  Uiso   1.00
C967   C     0.44500   0.82920   0.57140   0.01267  Uiso   1.00
C968   C     0.41560   0.81990   0.54690   0.01267  Uiso   1.00
C969   C     0.36830   0.76550   0.53600   0.01267  Uiso   1.00
C970   C     0.31870   0.72970   0.50980   0.01267  Uiso   1.00
C971   C     0.21160   0.54610   0.47810   0.01267  Uiso   1.00
C972   C     0.23902   0.54828   0.49970   0.01267  Uiso   1.00
C973   C     0.23600   0.51590   0.49670   0.01267  Uiso   1.00
C974   C     0.27140   0.53730   0.52530   0.01267  Uiso   1.00
C975   C     0.28590   0.51970   0.53400   0.01267  Uiso   1.00
C976   C     0.72830   0.09080   0.11550   0.01267  Uiso   1.00
C977   C     0.76070   0.12560   0.09410   0.01267  Uiso   1.00
C978   C     0.74950   0.13450   0.07120   0.01267  Uiso   1.00
C979   C     0.79250   0.16950   0.05860   0.01267  Uiso   1.00
C980   C     0.80430   0.19470   0.03360   0.01267  Uiso   1.00
C981   C     0.92220   0.24380   0.99460   0.01267  Uiso   1.00
C982   C     0.94040   0.23150   0.00910   0.01267  Uiso   1.00
C983   C     0.95760   0.22020   0.99600   0.01267  Uiso   1.00
C984   C     0.96580   0.20811   0.01931   0.01267  Uiso   1.00
C985   C     0.98350   0.19180   0.01970   0.01267  Uiso   1.00
C986   C     0.95490   0.13540   0.12130   0.01267  Uiso   1.00
C987   C     0.91930   0.12870   0.13000   0.01267  Uiso   1.00
C988   C     0.88450   0.09760   0.14950   0.01267  Uiso   1.00
C989   C     0.86050   0.10530   0.14880   0.01267  Uiso   1.00
C990   C     0.82000   0.08310   0.16470   0.01267  Uiso   1.00
C991   C     0.23940   0.01460   0.59160   0.01267  Uiso   1.00
C992   C     0.29210   0.06199   0.61749   0.01267  Uiso   1.00
C993   C     0.31900   0.06460   0.63760   0.01267  Uiso   1.00
C994   C     0.36520   0.11870   0.65570   0.01267  Uiso   1.00
C995   C     0.41180   0.14840   0.68200   0.01267  Uiso   1.00
C996   C     0.28700   0.01730   0.69390   0.01267  Uiso   1.00
C997   C     0.28793   0.00064   0.66677   0.01267  Uiso   1.00
C998   C     0.30160   0.02020   0.64140   0.01267  Uiso   1.00
C999   C     0.29380   0.98920   0.62100   0.01267  Uiso   1.00
C1000  C     0.30070   0.99040   0.58930   0.01267  Uiso   1.00
C1001  C     0.30130   0.25570   0.60180   0.01267  Uiso   1.00
C1002  C     0.27890   0.20620   0.59470   0.01267  Uiso   1.00
C1003  C     0.22698   0.15200   0.57638   0.01267  Uiso   1.00
C1004  C     0.23057   0.12516   0.57893   0.01267  Uiso   1.00
C1005  C     0.18730   0.06580   0.56290   0.01267  Uiso   1.00
C1006  C     0.81670   0.52940   0.67590   0.01267  Uiso   1.00
C1007  C     0.86250   0.54720   0.67550   0.01267  Uiso   1.00
C1008  C     0.90560   0.58690   0.66310   0.01267  Uiso   1.00
C1009  C     0.93790   0.58870   0.66900   0.01267  Uiso   1.00
C1010  C     0.98840   0.62260   0.66180   0.01267  Uiso   1.00
C1011  C     0.06110   0.59600   0.71290   0.01267  Uiso   1.00
C1012  C     0.02680   0.56210   0.73370   0.01267  Uiso   1.00
C1013  C     0.03595   0.55090   0.75625   0.01267  Uiso   1.00
C1014  C     0.99240   0.51860   0.76880   0.01267  Uiso   1.00
C1015  C     0.98010   0.49570   0.79500   0.01267  Uiso   1.00
C1016  C     0.92100   0.60250   0.59530   0.01267  Uiso   1.00
C1017  C     0.92900   0.63150   0.62050   0.01267  Uiso   1.00
C1018  C     0.91960   0.62330   0.64870   0.01267  Uiso   1.00
C1019  C     0.93250   0.66240   0.66210   0.01267  Uiso   1.00
C1020  C     0.93210   0.67520   0.69270   0.01267  Uiso   1.00
C1021  C     0.05630   0.15890   0.37460   0.01267  Uiso   1.00
C1022  C     0.06340   0.18810   0.40130   0.01267  Uiso   1.00
C1023  C     0.05590   0.18000   0.43030   0.01267  Uiso   1.00
C1024  C     0.06860   0.21830   0.44470   0.01267  Uiso   1.00
C1025  C     0.06770   0.22920   0.47530   0.01267  Uiso   1.00
C1026  C     0.14790   0.39080   0.49770   0.01267  Uiso   1.00
C1027  C     0.16800   0.41610   0.47190   0.01267  Uiso   1.00
C1028  C     0.20650   0.46990   0.47180   0.01267  Uiso   1.00
C1029  C     0.21060   0.47120   0.44140   0.01267  Uiso   1.00
C1030  C     0.24350   0.51650   0.42580   0.01267  Uiso   1.00
C1031  C     0.96190   0.12730   0.20240   0.01267  Uiso   1.00
C1032  C     0.90366   0.07381   0.18647   0.01267  Uiso   1.00
C1033  C     0.87060   0.06160   0.16400   0.01267  Uiso   1.00
C1034  C     0.81900   0.00410   0.15630   0.01267  Uiso   1.00
C1035  C     0.76770   0.96800   0.13330   0.01267  Uiso   1.00
C1036  C     0.32940   0.80300   0.93160   0.01267  Uiso   1.00
C1037  C     0.38670   0.83930   0.93380   0.01267  Uiso   1.00
C1038  C     0.40480   0.83280   0.91700   0.01267  Uiso   1.00
C1039  C     0.46040   0.87790   0.93290   0.01267  Uiso   1.00
C1040  C     0.50140   0.89170   0.92510   0.01267  Uiso   1.00
C1041  C     0.67000   0.05690   0.00290   0.01267  Uiso   1.00
C1042  C     0.66330   0.07120   0.02810   0.01267  Uiso   1.00
C1043  C     0.69620   0.10370   0.05770   0.01267  Uiso   1.00
C1044  C     0.66680   0.09960   0.07120   0.01267  Uiso   1.00
C1045  C     0.68080   0.12650   0.10290   0.01267  Uiso   1.00
C1046  C     0.52260   0.91130   0.52150   0.01267  Uiso   1.00
C1047  C     0.48050   0.89850   0.52200   0.01267  Uiso   1.00
C1048  C     0.43510   0.86100   0.53430   0.01267  Uiso   1.00
C1049  C     0.41290   0.86910   0.52680   0.01267  Uiso   1.00
C1050  C     0.36160   0.83925   0.53365   0.01267  Uiso   1.00
Ag181  Ag    0.01735   0.02267   0.54028   0.01267  Uiso   1.00
Ag182  Ag    0.96165   0.02843   0.49540   0.01267  Uiso   1.00
Ag183  Ag    0.08504   0.10268   0.49148   0.01267  Uiso   1.00
Ag184  Ag    0.24289   0.67612   0.81067   0.01267  Uiso   1.00
Ag185  Ag    0.15287   0.54615   0.78722   0.01267  Uiso   1.00
Ag186  Ag    0.27391   0.63459   0.84032   0.01267  Uiso   1.00
Ag187  Ag    0.03705   0.30772   0.89709   0.01267  Uiso   1.00
Ag188  Ag    0.02105   0.25836   0.82849   0.01267  Uiso   1.00
Ag189  Ag    0.95569   0.17589   0.87634   0.01267  Uiso   1.00
Ag190  Ag    0.85131   0.97152   0.67709   0.01267  Uiso   1.00
Ag191  Ag    0.73941   0.90618   0.69269   0.01267  Uiso   1.00
Ag192  Ag    0.72412   0.85994   0.62236   0.01267  Uiso   1.00
Ag193  Ag    0.36813   0.64326   0.57485   0.01267  Uiso   1.00
Ag194  Ag    0.44355   0.76797   0.59460   0.01267  Uiso   1.00
Ag195  Ag    0.31641   0.66187   0.54220   0.01267  Uiso   1.00
Ag196  Ag    0.84832   0.15112   0.11536   0.01267  Uiso   1.00
Ag197  Ag    0.88936   0.20963   0.05937   0.01267  Uiso   1.00
Ag198  Ag    0.93966   0.18664   0.08336   0.01267  Uiso   1.00
Ag199  Ag    0.30123   0.13687   0.61082   0.01267  Uiso   1.00
Ag200  Ag    0.41173   0.22212   0.66649   0.01267  Uiso   1.00
Ag201  Ag    0.38304   0.26728   0.64006   0.01267  Uiso   1.00
Ag202  Ag    0.83427   0.48391   0.72098   0.01267  Uiso   1.00
Ag203  Ag    0.94240   0.53871   0.70673   0.01267  Uiso   1.00
Ag204  Ag    0.89241   0.47584   0.76299   0.01267  Uiso   1.00
Ag205  Ag    0.10763   0.27167   0.36654   0.01267  Uiso   1.00
Ag206  Ag    0.11204   0.31450   0.43272   0.01267  Uiso   1.00
Ag207  Ag    0.17651   0.39667   0.38482   0.01267  Uiso   1.00
Ag208  Ag    0.42938   0.91623   0.99443   0.01267  Uiso   1.00
Ag209  Ag    0.54551   0.98160   0.98931   0.01267  Uiso   1.00
Ag210  Ag    0.52915   0.97504   0.48021   0.01267  Uiso   1.00
H1081  H     0.96440   0.96120   0.58520   0.01267  Uiso   1.00
H1082  H     0.95150   0.97160   0.61090   0.01267  Uiso   1.00
H1083  H     0.90520   0.91260   0.58900   0.01267  Uiso   1.00
H1084  H     0.83760   0.96140   0.54120   0.01267  Uiso   1.00
H1085  H     0.88690   0.01010   0.52860   0.01267  Uiso   1.00
H1086  H     0.83860   0.94950   0.50850   0.01267  Uiso   1.00
H1087  H     0.92860   0.05490   0.46490   0.01267  Uiso   1.00
H1088  H     0.96700   0.11370   0.46550   0.01267  Uiso   1.00
H1089  H     0.93350   0.06990   0.43420   0.01267  Uiso   1.00
H1090  H     0.13850   0.17110   0.44900   0.01267  Uiso   1.00
H1091  H     0.12310   0.17700   0.42090   0.01267  Uiso   1.00
H1092  H     0.15480   0.21800   0.45320   0.01267  Uiso   1.00
H1093  H     0.25100   0.20270   0.52650   0.01267  Uiso   1.00
H1094  H     0.20290   0.16350   0.49660   0.01267  Uiso   1.00
H1095  H     0.22060   0.20670   0.51850   0.01267  Uiso   1.00
H1096  H     0.07230   0.03050   0.58520   0.01267  Uiso   1.00
H1097  H     0.11710   0.04380   0.58810   0.01267  Uiso   1.00
H1098  H     0.13070   0.08520   0.60770   0.01267  Uiso   1.00
H1099  H     0.20220   0.70350   0.79870   0.01267  Uiso   1.00
H1100  H     0.15800   0.67930   0.77190   0.01267  Uiso   1.00
H1101  H     0.14720   0.66940   0.80380   0.01267  Uiso   1.00
H1102  H     0.04280   0.46570   0.74930   0.01267  Uiso   1.00
H1103  H     0.00380   0.45630   0.75910   0.01267  Uiso   1.00
H1104  H     0.01500   0.46590   0.72710   0.01267  Uiso   1.00
H1105  H     0.07070   0.43490   0.77280   0.01267  Uiso   1.00
H1106  H     0.06480   0.39600   0.77300   0.01267  Uiso   1.00
H1107  H     0.04370   0.39940   0.79590   0.01267  Uiso   1.00
H1108  H     0.27910   0.58290   0.87200   0.01267  Uiso   1.00
H1109  H     0.23380   0.53660   0.88720   0.01267  Uiso   1.00
H1110  H     0.25050   0.52810   0.86380   0.01267  Uiso   1.00
H1111  H     0.40460   0.76820   0.92420   0.01267  Uiso   1.00
H1112  H     0.34910   0.70510   0.90860   0.01267  Uiso   1.00
H1113  H     0.39880   0.74210   0.89490   0.01267  Uiso   1.00
H1114  H     0.31520   0.78420   0.83440   0.01267  Uiso   1.00
H1115  H     0.32530   0.80430   0.86880   0.01267  Uiso   1.00
H1116  H     0.37510   0.84050   0.85520   0.01267  Uiso   1.00
H1117  H     0.10380   0.42050   0.91050   0.01267  Uiso   1.00
H1118  H     0.10410   0.44590   0.88940   0.01267  Uiso   1.00
H1119  H     0.15800   0.47400   0.90300   0.01267  Uiso   1.00
H1120  H     0.06650   0.32030   0.78580   0.01267  Uiso   1.00
H1121  H     0.12470   0.38240   0.78970   0.01267  Uiso   1.00
H1122  H     0.07260   0.35730   0.77710   0.01267  Uiso   1.00
H1123  H     0.00110   0.21250   0.76760   0.01267  Uiso   1.00
H1124  H     0.94390   0.15490   0.74560   0.01267  Uiso   1.00
H1125  H     0.99100   0.17160   0.75340   0.01267  Uiso   1.00
H1126  H     0.89170   0.06830   0.85460   0.01267  Uiso   1.00
H1127  H     0.89190   0.04120   0.83150   0.01267  Uiso   1.00
H1128  H     0.84520   0.02520   0.82380   0.01267  Uiso   1.00
H1129  H     0.89830   0.11070   0.91840   0.01267  Uiso   1.00
H1130  H     0.86960   0.10570   0.93950   0.01267  Uiso   1.00
H1131  H     0.91620   0.12320   0.95380   0.01267  Uiso   1.00
H1132  H     0.05440   0.34750   0.95610   0.01267  Uiso   1.00
H1133  H     0.06430   0.34270   0.98760   0.01267  Uiso   1.00
H1134  H     0.01520   0.32250   0.97650   0.01267  Uiso   1.00
H1135  H     0.95790   0.06850   0.72620   0.01267  Uiso   1.00
H1136  H     0.97540   0.08800   0.76200   0.01267  Uiso   1.00
H1137  H     0.98270   0.11960   0.74250   0.01267  Uiso   1.00
H1138  H     0.75300   0.95650   0.74770   0.01267  Uiso   1.00
H1139  H     0.79820   0.01840   0.76200   0.01267  Uiso   1.00
H1140  H     0.79030   0.98630   0.78120   0.01267  Uiso   1.00
H1141  H     0.58550   0.82500   0.68470   0.01267  Uiso   1.00
H1142  H     0.64960   0.87910   0.69650   0.01267  Uiso   1.00
H1143  H     0.61600   0.82550   0.70390   0.01267  Uiso   1.00
H1144  H     0.61570   0.77470   0.57500   0.01267  Uiso   1.00
H1145  H     0.58900   0.78310   0.56850   0.01267  Uiso   1.00
H1146  H     0.55520   0.72930   0.57590   0.01267  Uiso   1.00
H1147  H     0.72340   0.83550   0.56310   0.01267  Uiso   1.00
H1148  H     0.75220   0.83280   0.55080   0.01267  Uiso   1.00
H1149  H     0.76170   0.87230   0.54240   0.01267  Uiso   1.00
H1150  H     0.96340   0.02940   0.62600   0.01267  Uiso   1.00
H1151  H     0.94500   0.00940   0.65520   0.01267  Uiso   1.00
H1152  H     0.95260   0.04760   0.64660   0.01267  Uiso   1.00
H1153  H     0.42170   0.63120   0.59150   0.01267  Uiso   1.00
H1154  H     0.47720   0.66810   0.58530   0.01267  Uiso   1.00
H1155  H     0.47020   0.66200   0.61820   0.01267  Uiso   1.00
H1156  H     0.55760   0.85960   0.62940   0.01267  Uiso   1.00
H1157  H     0.59380   0.86940   0.65240   0.01267  Uiso   1.00
H1158  H     0.59960   0.87390   0.61930   0.01267  Uiso   1.00
H1159  H     0.50920   0.87480   0.60700   0.01267  Uiso   1.00
H1160  H     0.52690   0.90410   0.58140   0.01267  Uiso   1.00
H1161  H     0.50030   0.90080   0.60350   0.01267  Uiso   1.00
H1162  H     0.32520   0.75240   0.50080   0.01267  Uiso   1.00
H1163  H     0.31220   0.70780   0.49480   0.01267  Uiso   1.00
H1164  H     0.28730   0.70630   0.51740   0.01267  Uiso   1.00
H1165  H     0.22190   0.57430   0.48680   0.01267  Uiso   1.00
H1166  H     0.22220   0.55150   0.45950   0.01267  Uiso   1.00
H1167  H     0.17270   0.51100   0.47370   0.01267  Uiso   1.00
H1168  H     0.31020   0.54090   0.55430   0.01267  Uiso   1.00
H1169  H     0.25330   0.48160   0.53330   0.01267  Uiso   1.00
H1170  H     0.30380   0.52490   0.52010   0.01267  Uiso   1.00
H1171  H     0.74850   0.09390   0.12900   0.01267  Uiso   1.00
H1172  H     0.72240   0.10330   0.12730   0.01267  Uiso   1.00
H1173  H     0.69370   0.05330   0.10400   0.01267  Uiso   1.00
H1174  H     0.83880   0.21730   0.03090   0.01267  Uiso   1.00
H1175  H     0.77590   0.16650   0.01500   0.01267  Uiso   1.00
H1176  H     0.80590   0.21690   0.03900   0.01267  Uiso   1.00
H1177  H     0.91220   0.24920   0.00900   0.01267  Uiso   1.00
H1178  H     0.95160   0.27650   0.98830   0.01267  Uiso   1.00
H1179  H     0.89130   0.21380   0.97710   0.01267  Uiso   1.00
H1180  H     0.98470   0.18580   0.03910   0.01267  Uiso   1.00
H1181  H     0.95810   0.15880   0.00370   0.01267  Uiso   1.00
H1182  H     0.01930   0.22050   0.01660   0.01267  Uiso   1.00
H1183  H     0.97370   0.15870   0.10800   0.01267  Uiso   1.00
H1184  H     0.98120   0.15170   0.13930   0.01267  Uiso   1.00
H1185  H     0.93290   0.10030   0.11100   0.01267  Uiso   1.00
H1186  H     0.81200   0.09620   0.16020   0.01267  Uiso   1.00
H1187  H     0.78710   0.04380   0.15790   0.01267  Uiso   1.00
H1188  H     0.83500   0.09490   0.18630   0.01267  Uiso   1.00
H1189  H     0.23190   0.02630   0.58200   0.01267  Uiso   1.00
H1190  H     0.20980   0.98500   0.59960   0.01267  Uiso   1.00
H1191  H     0.24330   0.00240   0.57690   0.01267  Uiso   1.00
H1192  H     0.43710   0.18570   0.68980   0.01267  Uiso   1.00
H1193  H     0.43040   0.14780   0.67500   0.01267  Uiso   1.00
H1194  H     0.39720   0.13050   0.69790   0.01267  Uiso   1.00
H1195  H     0.27640   0.99640   0.70760   0.01267  Uiso   1.00
H1196  H     0.26130   0.01120   0.68890   0.01267  Uiso   1.00
H1197  H     0.32290   0.05550   0.70360   0.01267  Uiso   1.00
H1198  H     0.29120   0.96270   0.58130   0.01267  Uiso   1.00
H1199  H     0.33800   0.02570   0.59010   0.01267  Uiso   1.00
H1200  H     0.27710   0.98370   0.57640   0.01267  Uiso   1.00
H1201  H     0.33810   0.28620   0.61490   0.01267  Uiso   1.00
H1202  H     0.27900   0.24860   0.61200   0.01267  Uiso   1.00
H1203  H     0.30130   0.26390   0.58320   0.01267  Uiso   1.00
H1204  H     0.20060   0.05790   0.56850   0.01267  Uiso   1.00
H1205  H     0.17980   0.06000   0.54120   0.01267  Uiso   1.00
H1206  H     0.15450   0.04210   0.56880   0.01267  Uiso   1.00
H1207  H     0.79240   0.50060   0.68580   0.01267  Uiso   1.00
H1208  H     0.79700   0.51620   0.65540   0.01267  Uiso   1.00
H1209  H     0.83130   0.55980   0.68690   0.01267  Uiso   1.00
H1210  H     0.99990   0.61360   0.66930   0.01267  Uiso   1.00
H1211  H     0.01620   0.66050   0.67110   0.01267  Uiso   1.00
H1212  H     0.98230   0.61610   0.64000   0.01267  Uiso   1.00
H1213  H     0.04370   0.59550   0.69900   0.01267  Uiso   1.00
H1214  H     0.06520   0.58140   0.70160   0.01267  Uiso   1.00
H1215  H     0.09650   0.63300   0.72470   0.01267  Uiso   1.00
H1216  H     0.94590   0.47440   0.79730   0.01267  Uiso   1.00
H1217  H     0.00880   0.52510   0.81330   0.01267  Uiso   1.00
H1218  H     0.97790   0.47280   0.79150   0.01267  Uiso   1.00
H1219  H     0.93140   0.61890   0.57890   0.01267  Uiso   1.00
H1220  H     0.88330   0.56490   0.58860   0.01267  Uiso   1.00
H1221  H     0.94330   0.60460   0.60190   0.01267  Uiso   1.00
H1222  H     0.94200   0.70390   0.69470   0.01267  Uiso   1.00
H1223  H     0.95800   0.68700   0.70800   0.01267  Uiso   1.00
H1224  H     0.89620   0.64310   0.69530   0.01267  Uiso   1.00
H1225  H     0.06490   0.17440   0.35790   0.01267  Uiso   1.00
H1226  H     0.08060   0.16330   0.38090   0.01267  Uiso   1.00
H1227  H     0.01920   0.12070   0.36830   0.01267  Uiso   1.00
H1228  H     0.07800   0.25820   0.47840   0.01267  Uiso   1.00
H1229  H     0.03150   0.19680   0.47750   0.01267  Uiso   1.00
H1230  H     0.09300   0.23980   0.49020   0.01267  Uiso   1.00
H1231  H     0.12220   0.35330   0.49070   0.01267  Uiso   1.00
H1232  H     0.17820   0.41040   0.51380   0.01267  Uiso   1.00
H1233  H     0.13030   0.39250   0.50520   0.01267  Uiso   1.00
H1234  H     0.23710   0.50350   0.40500   0.01267  Uiso   1.00
H1235  H     0.23240   0.52730   0.42650   0.01267  Uiso   1.00
H1236  H     0.28180   0.54750   0.43630   0.01267  Uiso   1.00
H1237  H     0.97550   0.15520   0.19510   0.01267  Uiso   1.00
H1238  H     0.96650   0.13460   0.22390   0.01267  Uiso   1.00
H1239  H     0.98200   0.12700   0.19860   0.01267  Uiso   1.00
H1240  H     0.73950   0.93070   0.13360   0.01267  Uiso   1.00
H1241  H     0.75680   0.97840   0.13800   0.01267  Uiso   1.00
H1242  H     0.77380   0.97150   0.11350   0.01267  Uiso   1.00
H1243  H     0.33160   0.82070   0.94690   0.01267  Uiso   1.00
H1244  H     0.31410   0.79710   0.91180   0.01267  Uiso   1.00
H1245  H     0.30660   0.76860   0.93460   0.01267  Uiso   1.00
H1246  H     0.53640   0.92480   0.93960   0.01267  Uiso   1.00
H1247  H     0.49010   0.86250   0.92560   0.01267  Uiso   1.00
H1248  H     0.50410   0.89700   0.90510   0.01267  Uiso   1.00
H1249  H     0.63960   0.03330   0.98530   0.01267  Uiso   1.00
H1250  H     0.70340   0.08960   0.99840   0.01267  Uiso   1.00
H1251  H     0.67140   0.03830   0.00850   0.01267  Uiso   1.00
H1252  H     0.65150   0.11470   0.10480   0.01267  Uiso   1.00
H1253  H     0.68580   0.11640   0.11740   0.01267  Uiso   1.00
H1254  H     0.71390   0.16560   0.10650   0.01267  Uiso   1.00
H1255  H     0.54790   0.93930   0.51140   0.01267  Uiso   1.00
H1256  H     0.54210   0.92400   0.54210   0.01267  Uiso   1.00
H1257  H     0.50530   0.87890   0.51080   0.01267  Uiso   1.00
H1258  H     0.35540   0.85310   0.52610   0.01267  Uiso   1.00
H1259  H     0.33050   0.80070   0.52380   0.01267  Uiso   1.00
H1260  H     0.36650   0.84510   0.55520   0.01267  Uiso   1.00
N421   N     0.93574   0.40123   0.95497   0.01267  Uiso   1.00
N422   N     0.95818   0.39676   0.97174   0.01267  Uiso   1.00
N423   N     0.11193   0.53623   0.03296   0.01267  Uiso   1.00
N424   N     0.14219   0.58639   0.03618   0.01267  Uiso   1.00
N425   N     0.08446   0.60034   0.97520   0.01267  Uiso   1.00
N426   N     0.03106   0.55191   0.95737   0.01267  Uiso   1.00
N427   N     0.33597   0.38140   0.71597   0.01267  Uiso   1.00
N428   N     0.29430   0.35630   0.72680   0.01267  Uiso   1.00
N429   N     0.20980   0.35782   0.69342   0.01267  Uiso   1.00
N430   N     0.22290   0.38420   0.67170   0.01267  Uiso   1.00
N431   N     0.35717   0.46938   0.64255   0.01267  Uiso   1.00
N432   N     0.38820   0.47190   0.65590   0.01267  Uiso   1.00
N433   N     0.98836   0.20516   0.63212   0.01267  Uiso   1.00
N434   N     0.99450   0.22570   0.66040   0.01267  Uiso   1.00
N435   N     0.86601   0.15746   0.68527   0.01267  Uiso   1.00
N436   N     0.81405   0.11358   0.66623   0.01267  Uiso   1.00
N437   N     0.78716   0.04508   0.58144   0.01267  Uiso   1.00
N438   N     0.83230   0.07182   0.57452   0.01267  Uiso   1.00
N439   N     0.78130   0.14079   0.78049   0.01267  Uiso   1.00
N440   N     0.75210   0.09084   0.77654   0.01267  Uiso   1.00
N441   N     0.68216   0.00312   0.83948   0.01267  Uiso   1.00
N442   N     0.69288   0.02542   0.86770   0.01267  Uiso   1.00
N443   N     0.79106   0.18190   0.88776   0.01267  Uiso   1.00
N444   N     0.81230   0.20960   0.86690   0.01267  Uiso   1.00
N445   N     0.60724   0.84713   0.89997   0.01267  Uiso   1.00
N446   N     0.64923   0.86919   0.89002   0.01267  Uiso   1.00
N447   N     0.70739   0.84022   0.92541   0.01267  Uiso   1.00
N448   N     0.68922   0.81485   0.94807   0.01267  Uiso   1.00
N449   N     0.55936   0.74705   0.97341   0.01267  Uiso   1.00
N450   N     0.53762   0.75130   0.95792   0.01267  Uiso   1.00
N451   N     0.55877   0.71395   0.40412   0.01267  Uiso   1.00
N452   N     0.60982   0.75708   0.42670   0.01267  Uiso   1.00
N453   N     0.68816   0.89979   0.46315   0.01267  Uiso   1.00
N454   N     0.66752   0.90926   0.45538   0.01267  Uiso   1.00
N455   N     0.53319   0.79627   0.38086   0.01267  Uiso   1.00
N456   N     0.50663   0.74850   0.36853   0.01267  Uiso   1.00
N457   N     0.98651   0.69489   0.87600   0.01267  Uiso   1.00
N458   N     0.99859   0.71684   0.85163   0.01267  Uiso   1.00
N459   N     0.79888   0.61257   0.83845   0.01267  Uiso   1.00
N460   N     0.82002   0.64419   0.86761   0.01267  Uiso   1.00
N461   N     0.10089   0.70069   0.89238   0.01267  Uiso   1.00
N462   N     0.06083   0.68091   0.90254   0.01267  Uiso   1.00
N463   N     0.33776   0.17894   0.81050   0.01267  Uiso   1.00
N464   N     0.36783   0.23000   0.81543   0.01267  Uiso   1.00
N465   N     0.30487   0.24810   0.76877   0.01267  Uiso   1.00
N466   N     0.25460   0.20360   0.74620   0.01267  Uiso   1.00
N467   N     0.55620   0.32910   0.88390   0.01267  Uiso   1.00
N468   N     0.54840   0.30420   0.85680   0.01267  Uiso   1.00
N469   N     0.33087   0.68074   0.10221   0.01267  Uiso   1.00
N470   N     0.31967   0.65368   0.07455   0.01267  Uiso   1.00
N471   N     0.44424   0.70920   0.05544   0.01267  Uiso   1.00
N472   N     0.49590   0.75249   0.07499   0.01267  Uiso   1.00
N473   N     0.33473   0.68200   0.30713   0.01267  Uiso   1.00
N474   N     0.31073   0.64900   0.32693   0.01267  Uiso   1.00
N475   N     0.42830   0.46960   0.54150   0.01267  Uiso   1.00
N476   N     0.45410   0.51800   0.54370   0.01267  Uiso   1.00
N477   N     0.52470   0.59340   0.47570   0.01267  Uiso   1.00
N478   N     0.51400   0.56660   0.44900   0.01267  Uiso   1.00
N479   N     0.91790   0.97550   0.99100   0.01267  Uiso   1.00
N480   N     0.89440   0.92750   0.98850   0.01267  Uiso   1.00
C1051  C     0.86050   0.34690   0.90960   0.01267  Uiso   1.00
C1052  C     0.89370   0.35420   0.93110   0.01267  Uiso   1.00
C1053  C     0.88937   0.32120   0.93377   0.01267  Uiso   1.00
C1054  C     0.92930   0.34781   0.95791   0.01267  Uiso   1.00
C1055  C     0.94440   0.33170   0.97110   0.01267  Uiso   1.00
C1056  C     0.12850   0.49790   0.04500   0.01267  Uiso   1.00
C1057  C     0.14630   0.54340   0.04450   0.01267  Uiso   1.00
C1058  C     0.20000   0.60050   0.05710   0.01267  Uiso   1.00
C1059  C     0.19470   0.62500   0.05110   0.01267  Uiso   1.00
C1060  C     0.23840   0.68500   0.05760   0.01267  Uiso   1.00
C1061  C     0.16470   0.69880   0.98250   0.01267  Uiso   1.00
C1062  C     0.10740   0.64240   0.96560   0.01267  Uiso   1.00
C1063  C     0.07080   0.62190   0.94130   0.01267  Uiso   1.00
C1064  C     0.02250   0.56500   0.93610   0.01267  Uiso   1.00
C1065  C     0.97070   0.52230   0.91160   0.01267  Uiso   1.00
C1066  C     0.38360   0.37420   0.71060   0.01267  Uiso   1.00
C1067  C     0.34200   0.35800   0.72000   0.01267  Uiso   1.00
C1068  C     0.30300   0.31580   0.73440   0.01267  Uiso   1.00
C1069  C     0.27480   0.31730   0.73790   0.01267  Uiso   1.00
C1070  C     0.22740   0.28260   0.75180   0.01267  Uiso   1.00
C1071  C     0.13430   0.28600   0.71450   0.01267  Uiso   1.00
C1072  C     0.15650   0.31760   0.69190   0.01267  Uiso   1.00
C1073  C     0.13330   0.31610   0.66900   0.01267  Uiso   1.00
C1074  C     0.17690   0.35880   0.65730   0.01267  Uiso   1.00
C1075  C     0.17520   0.37650   0.63110   0.01267  Uiso   1.00
C1076  C     0.33530   0.47500   0.59490   0.01267  Uiso   1.00
C1077  C     0.36460   0.47580   0.61480   0.01267  Uiso   1.00
C1078  C     0.39770   0.48200   0.60910   0.01267  Uiso   1.00
C1079  C     0.41080   0.47900   0.63620   0.01267  Uiso   1.00
C1080  C     0.44900   0.48450   0.64530   0.01267  Uiso   1.00
C1081  C     0.04450   0.22380   0.60490   0.01267  Uiso   1.00
C1082  C     0.03810   0.23680   0.63210   0.01267  Uiso   1.00
C1083  C     0.07590   0.27650   0.65980   0.01267  Uiso   1.00
C1084  C     0.04720   0.26790   0.67690   0.01267  Uiso   1.00
C1085  C     0.06530   0.29750   0.70900   0.01267  Uiso   1.00
C1086  C     0.91350   0.21350   0.73880   0.01267  Uiso   1.00
C1087  C     0.86370   0.16830   0.71220   0.01267  Uiso   1.00
C1088  C     0.81060   0.13080   0.71180   0.01267  Uiso   1.00
C1089  C     0.78070   0.09810   0.68160   0.01267  Uiso   1.00
C1090  C     0.72100   0.05000   0.66660   0.01267  Uiso   1.00
C1091  C     0.68780   0.96560   0.56200   0.01267  Uiso   1.00
C1092  C     0.74290   0.00350   0.55800   0.01267  Uiso   1.00
C1093  C     0.75880   0.00180   0.53360   0.01267  Uiso   1.00
C1094  C     0.81520   0.04633   0.54493   0.01267  Uiso   1.00
C1095  C     0.85560   0.06690   0.52990   0.01267  Uiso   1.00
C1096  C     0.84080   0.21660   0.75660   0.01267  Uiso   1.00
C1097  C     0.80540   0.16180   0.75740   0.01267  Uiso   1.00
C1098  C     0.79080   0.12470   0.73750   0.01267  Uiso   1.00
C1099  C     0.75730   0.08090   0.75080   0.01267  Uiso   1.00
C1100  C     0.72930   0.02800   0.73890   0.01267  Uiso   1.00
C1101  C     0.65110   0.92880   0.81110   0.01267  Uiso   1.00
C1102  C     0.66500   0.96060   0.84020   0.01267  Uiso   1.00
C1103  C     0.66480   0.95650   0.86950   0.01267  Uiso   1.00
C1104  C     0.68090   0.99700   0.88590   0.01267  Uiso   1.00
C1105  C     0.68780   0.01060   0.91980   0.01267  Uiso   1.00
C1106  C     0.79840   0.19800   0.94200   0.01267  Uiso   1.00
C1107  C     0.81480   0.21780   0.91500   0.01267  Uiso   1.00
C1108  C     0.85250   0.27020   0.91010   0.01267  Uiso   1.00
C1109  C     0.84894   0.26240   0.87974   0.01267  Uiso   1.00
C1110  C     0.87960   0.30250   0.86130   0.01267  Uiso   1.00
C1111  C     0.56420   0.86090   0.90010   0.01267  Uiso   1.00
C1112  C     0.60610   0.87460   0.89290   0.01267  Uiso   1.00
C1113  C     0.65120   0.91720   0.88000   0.01267  Uiso   1.00
C1114  C     0.67480   0.91070   0.87890   0.01267  Uiso   1.00
C1115  C     0.72340   0.94300   0.86860   0.01267  Uiso   1.00
C1116  C     0.78920   0.90750   0.90730   0.01267  Uiso   1.00
C1117  C     0.75780   0.87360   0.92860   0.01267  Uiso   1.00
C1118  C     0.77300   0.86870   0.95310   0.01267  Uiso   1.00
C1119  C     0.72950   0.83230   0.96400   0.01267  Uiso   1.00
C1120  C     0.71990   0.80890   0.99020   0.01267  Uiso   1.00
C1121  C     0.56800   0.73350   0.02190   0.01267  Uiso   1.00
C1122  C     0.54858   0.73932   0.00030   0.01267  Uiso   1.00
C1123  C     0.51920   0.73930   0.00330   0.01267  Uiso   1.00
C1124  C     0.51200   0.74610   0.97470   0.01267  Uiso   1.00
C1125  C     0.48570   0.75190   0.96600   0.01267  Uiso   1.00
C1126  C     0.47530   0.61280   0.38450   0.01267  Uiso   1.00
C1127  C     0.53150   0.66660   0.40590   0.01267  Uiso   1.00
C1128  C     0.56330   0.67830   0.42880   0.01267  Uiso   1.00
C1129  C     0.61090   0.73390   0.44140   0.01267  Uiso   1.00
C1130  C     0.66110   0.77070   0.46640   0.01267  Uiso   1.00
C1131  C     0.74920   0.92760   0.50540   0.01267  Uiso   1.00
C1132  C     0.72240   0.93130   0.49090   0.01267  Uiso   1.00
C1133  C     0.72420   0.96160   0.50400   0.01267  Uiso   1.00
C1134  C     0.68880   0.94649   0.48069   0.01267  Uiso   1.00
C1135  C     0.67210   0.96380   0.48030   0.01267  Uiso   1.00
C1136  C     0.51410   0.83360   0.37870   0.01267  Uiso   1.00
C1137  C     0.49870   0.78930   0.37000   0.01267  Uiso   1.00
C1138  C     0.44810   0.73500   0.35050   0.01267  Uiso   1.00
C1139  C     0.45650   0.71170   0.35120   0.01267  Uiso   1.00
C1140  C     0.41840   0.65530   0.33530   0.01267  Uiso   1.00
C1141  C     0.92300   0.64780   0.90840   0.01267  Uiso   1.00
C1142  C     0.94450   0.67461   0.88251   0.01267  Uiso   1.00
C1143  C     0.92700   0.68140   0.86240   0.01267  Uiso   1.00
C1144  C     0.96300   0.70950   0.84430   0.01267  Uiso   1.00
C1145  C     0.96640   0.72980   0.81800   0.01267  Uiso   1.00
C1146  C     0.82340   0.59310   0.80610   0.01267  Uiso   1.00
C1147  C     0.83387   0.62116   0.83323   0.01267  Uiso   1.00
C1148  C     0.87880   0.66020   0.85860   0.01267  Uiso   1.00
C1149  C     0.86820   0.67280   0.87900   0.01267  Uiso   1.00
C1150  C     0.90110   0.71140   0.91070   0.01267  Uiso   1.00
C1151  C     0.15390   0.69950   0.89820   0.01267  Uiso   1.00
C1152  C     0.11150   0.68420   0.90530   0.01267  Uiso   1.00
C1153  C     0.07562   0.65060   0.92362   0.01267  Uiso   1.00
C1154  C     0.04623   0.65164   0.92107   0.01267  Uiso   1.00
C1155  C     0.00290   0.62440   0.93710   0.01267  Uiso   1.00
C1156  C     0.35350   0.14080   0.82410   0.01267  Uiso   1.00
C1157  C     0.37170   0.18700   0.82450   0.01267  Uiso   1.00
C1158  C     0.42380   0.24250   0.83690   0.01267  Uiso   1.00
C1159  C     0.41970   0.26890   0.83100   0.01267  Uiso   1.00
C1160  C     0.46080   0.32660   0.83820   0.01267  Uiso   1.00
C1161  C     0.38310   0.34820   0.78710   0.01267  Uiso   1.00
C1162  C     0.32840   0.29310   0.76630   0.01267  Uiso   1.00
C1163  C     0.29465   0.27970   0.74375   0.01267  Uiso   1.00
C1164  C     0.24980   0.22360   0.73120   0.01267  Uiso   1.00
C1165  C     0.20070   0.18510   0.70500   0.01267  Uiso   1.00
C1166  C     0.50720   0.32570   0.90470   0.01267  Uiso   1.00
C1167  C     0.51100   0.30850   0.87950   0.01267  Uiso   1.00
C1168  C     0.47460   0.27090   0.85130   0.01267  Uiso   1.00
C1169  C     0.50030   0.27040   0.83790   0.01267  Uiso   1.00
C1170  C     0.48250   0.23940   0.80730   0.01267  Uiso   1.00
C1171  C     0.28430   0.68170   0.12540   0.01267  Uiso   1.00
C1172  C     0.28680   0.66210   0.09870   0.01267  Uiso   1.00
C1173  C     0.24970   0.62560   0.06970   0.01267  Uiso   1.00
C1174  C     0.27360   0.62390   0.05530   0.01267  Uiso   1.00
C1175  C     0.25390   0.59240   0.02470   0.01267  Uiso   1.00
C1176  C     0.39310   0.65020   0.00230   0.01267  Uiso   1.00
C1177  C     0.44420   0.69610   0.02810   0.01267  Uiso   1.00
C1178  C     0.49810   0.73470   0.02820   0.01267  Uiso   1.00
C1179  C     0.52980   0.76920   0.05860   0.01267  Uiso   1.00
C1180  C     0.59070   0.81770   0.07420   0.01267  Uiso   1.00
C1181  C     0.42490   0.75950   0.29760   0.01267  Uiso   1.00
C1182  C     0.38734   0.71719   0.31353   0.01267  Uiso   1.00
C1183  C     0.39760   0.70660   0.33600   0.01267  Uiso   1.00
C1184  C     0.34780   0.66270   0.34370   0.01267  Uiso   1.00
C1185  C     0.33470   0.63440   0.36670   0.01267  Uiso   1.00
C1186  C     0.37140   0.39780   0.56840   0.01267  Uiso   1.00
C1187  C     0.40550   0.45290   0.56620   0.01267  Uiso   1.00
C1188  C     0.41580   0.48780   0.58300   0.01267  Uiso   1.00
C1189  C     0.44500   0.52750   0.56710   0.01267  Uiso   1.00
C1190  C     0.46660   0.57630   0.57490   0.01267  Uiso   1.00
C1191  C     0.55400   0.66710   0.49710   0.01267  Uiso   1.00
C1192  C     0.54310   0.63520   0.47190   0.01267  Uiso   1.00
C1193  C     0.54600   0.63850   0.44230   0.01267  Uiso   1.00
C1194  C     0.52840   0.59560   0.42880   0.01267  Uiso   1.00
C1195  C     0.52360   0.57790   0.39710   0.01267  Uiso   1.00
C1196  C     0.88980   0.00110   0.97850   0.01267  Uiso   1.00
C1197  C     0.87650   0.95850   0.97800   0.01267  Uiso   1.00
C1198  C     0.82670   0.90080   0.96570   0.01267  Uiso   1.00
C1199  C     0.84230   0.88610   0.97320   0.01267  Uiso   1.00
C1200  C     0.80560   0.82795   0.96635   0.01267  Uiso   1.00
Ag211  Ag    0.98239   0.47707   0.95972   0.01267  Uiso   1.00
Ag212  Ag    0.03304   0.46625   0.00460   0.01267  Uiso   1.00
Ag213  Ag    0.11120   0.59356   0.00852   0.01267  Uiso   1.00
Ag214  Ag    0.36545   0.43222   0.68933   0.01267  Uiso   1.00
Ag215  Ag    0.25893   0.36565   0.71278   0.01267  Uiso   1.00
Ag216  Ag    0.29427   0.43359   0.65968   0.01267  Uiso   1.00
Ag217  Ag    0.91063   0.13996   0.60291   0.01267  Uiso   1.00
Ag218  Ag    0.92987   0.19256   0.67151   0.01267  Uiso   1.00
Ag219  Ag    0.79955   0.07935   0.62366   0.01267  Uiso   1.00
Ag220  Ag    0.79443   0.17422   0.82291   0.01267  Uiso   1.00
Ag221  Ag    0.71349   0.04672   0.80731   0.01267  Uiso   1.00
Ag222  Ag    0.73758   0.10176   0.87764   0.01267  Uiso   1.00
Ag223  Ag    0.56841   0.79328   0.92515   0.01267  Uiso   1.00
Ag224  Ag    0.67337   0.84895   0.90540   0.01267  Uiso   1.00
Ag225  Ag    0.61967   0.77421   0.95780   0.01267  Uiso   1.00
Ag226  Ag    0.53576   0.73296   0.38464   0.01267  Uiso   1.00
Ag227  Ag    0.65026   0.82999   0.44063   0.01267  Uiso   1.00
Ag228  Ag    0.60328   0.85630   0.41664   0.01267  Uiso   1.00
Ag229  Ag    0.02605   0.69041   0.88918   0.01267  Uiso   1.00
Ag230  Ag    0.05563   0.74524   0.83351   0.01267  Uiso   1.00
Ag231  Ag    0.12722   0.74298   0.85994   0.01267  Uiso   1.00
Ag232  Ag    0.26293   0.11329   0.77902   0.01267  Uiso   1.00
Ag233  Ag    0.33198   0.23567   0.79327   0.01267  Uiso   1.00
Ag234  Ag    0.21285   0.12942   0.73701   0.01267  Uiso   1.00
Ag235  Ag    0.40513   0.74109   0.13346   0.01267  Uiso   1.00
Ag236  Ag    0.38178   0.67932   0.06728   0.01267  Uiso   1.00
Ag237  Ag    0.51185   0.79169   0.11518   0.01267  Uiso   1.00
Ag238  Ag    0.42180   0.43495   0.50557   0.01267  Uiso   1.00
Ag239  Ag    0.49229   0.55620   0.51069   0.01267  Uiso   1.00
Ag240  Ag    0.99483   0.04894   0.01979   0.01267  Uiso   1.00
H1261  H     0.87600   0.37920   0.91480   0.01267  Uiso   1.00
H1262  H     0.86070   0.34060   0.88910   0.01267  Uiso   1.00
H1263  H     0.82360   0.31620   0.91100   0.01267  Uiso   1.00
H1264  H     0.92020   0.29640   0.95880   0.01267  Uiso   1.00
H1265  H     0.98150   0.35830   0.97140   0.01267  Uiso   1.00
H1266  H     0.94100   0.33010   0.99150   0.01267  Uiso   1.00
H1267  H     0.09000   0.46370   0.03510   0.01267  Uiso   1.00
H1268  H     0.14820   0.50150   0.03450   0.01267  Uiso   1.00
H1269  H     0.13570   0.49930   0.06580   0.01267  Uiso   1.00
H1270  H     0.22210   0.68950   0.05100   0.01267  Uiso   1.00
H1271  H     0.25610   0.70220   0.07910   0.01267  Uiso   1.00
H1272  H     0.26480   0.70160   0.04680   0.01267  Uiso   1.00
H1273  H     0.17620   0.72450   0.97350   0.01267  Uiso   1.00
H1274  H     0.16690   0.70630   0.00340   0.01267  Uiso   1.00
H1275  H     0.18820   0.70210   0.98150   0.01267  Uiso   1.00
H1276  H     0.94530   0.48710   0.91480   0.01267  Uiso   1.00
H1277  H     0.95570   0.52900   0.91190   0.01267  Uiso   1.00
H1278  H     0.97750   0.52300   0.89230   0.01267  Uiso   1.00
H1279  H     0.40480   0.40350   0.70130   0.01267  Uiso   1.00
H1280  H     0.40740   0.38610   0.72810   0.01267  Uiso   1.00
H1281  H     0.36560   0.34340   0.69620   0.01267  Uiso   1.00
H1282  H     0.21640   0.29350   0.75070   0.01267  Uiso   1.00
H1283  H     0.19720   0.24470   0.74090   0.01267  Uiso   1.00
H1284  H     0.23880   0.28790   0.77290   0.01267  Uiso   1.00
H1285  H     0.16210   0.29790   0.72720   0.01267  Uiso   1.00
H1286  H     0.12300   0.29180   0.72700   0.01267  Uiso   1.00
H1287  H     0.10350   0.24780   0.70410   0.01267  Uiso   1.00
H1288  H     0.21090   0.40710   0.62800   0.01267  Uiso   1.00
H1289  H     0.14940   0.34660   0.61280   0.01267  Uiso   1.00
H1290  H     0.16430   0.38670   0.63620   0.01267  Uiso   1.00
H1291  H     0.34400   0.48040   0.57580   0.01267  Uiso   1.00
H1292  H     0.29650   0.44050   0.59140   0.01267  Uiso   1.00
H1293  H     0.34720   0.50390   0.60510   0.01267  Uiso   1.00
H1294  H     0.44980   0.48080   0.66560   0.01267  Uiso   1.00
H1295  H     0.43550   0.45650   0.63120   0.01267  Uiso   1.00
H1296  H     0.48530   0.51990   0.64480   0.01267  Uiso   1.00
H1297  H     0.01000   0.19330   0.58950   0.01267  Uiso   1.00
H1298  H     0.05650   0.21470   0.61060   0.01267  Uiso   1.00
H1299  H     0.07100   0.25500   0.59700   0.01267  Uiso   1.00
H1300  H     0.03450   0.28070   0.71420   0.01267  Uiso   1.00
H1301  H     0.09270   0.33500   0.71030   0.01267  Uiso   1.00
H1302  H     0.08020   0.29550   0.72290   0.01267  Uiso   1.00
H1303  H     0.94490   0.23350   0.73240   0.01267  Uiso   1.00
H1304  H     0.90930   0.19830   0.75440   0.01267  Uiso   1.00
H1305  H     0.91820   0.23760   0.74660   0.01267  Uiso   1.00
H1306  H     0.71370   0.03710   0.64540   0.01267  Uiso   1.00
H1307  H     0.70970   0.06040   0.66850   0.01267  Uiso   1.00
H1308  H     0.70140   0.02140   0.67620   0.01267  Uiso   1.00
H1309  H     0.69230   0.97990   0.58160   0.01267  Uiso   1.00
H1310  H     0.66620   0.93010   0.56050   0.01267  Uiso   1.00
H1311  H     0.66940   0.96240   0.54620   0.01267  Uiso   1.00
H1312  H     0.89140   0.09830   0.54390   0.01267  Uiso   1.00
H1313  H     0.85510   0.07670   0.51240   0.01267  Uiso   1.00
H1314  H     0.84600   0.03870   0.52350   0.01267  Uiso   1.00
H1315  H     0.84230   0.23170   0.77380   0.01267  Uiso   1.00
H1316  H     0.82600   0.21340   0.73800   0.01267  Uiso   1.00
H1317  H     0.87710   0.24020   0.75750   0.01267  Uiso   1.00
H1318  H     0.70880   0.00530   0.75230   0.01267  Uiso   1.00
H1319  H     0.75640   0.03620   0.73800   0.01267  Uiso   1.00
H1320  H     0.70510   0.00910   0.71880   0.01267  Uiso   1.00
H1321  H     0.64030   0.90080   0.81530   0.01267  Uiso   1.00
H1322  H     0.68260   0.95310   0.80350   0.01267  Uiso   1.00
H1323  H     0.62160   0.91210   0.79610   0.01267  Uiso   1.00
H1324  H     0.69970   0.04070   0.92500   0.01267  Uiso   1.00
H1325  H     0.71460   0.02050   0.93150   0.01267  Uiso   1.00
H1326  H     0.65340   0.97930   0.92410   0.01267  Uiso   1.00
H1327  H     0.77240   0.16030   0.93690   0.01267  Uiso   1.00
H1328  H     0.78200   0.20140   0.94920   0.01267  Uiso   1.00
H1329  H     0.82990   0.21930   0.95760   0.01267  Uiso   1.00
H1330  H     0.90340   0.33740   0.87400   0.01267  Uiso   1.00
H1331  H     0.85420   0.28980   0.84480   0.01267  Uiso   1.00
H1332  H     0.90100   0.30600   0.85340   0.01267  Uiso   1.00
H1333  H     0.53970   0.83020   0.90850   0.01267  Uiso   1.00
H1334  H     0.58280   0.89190   0.91470   0.01267  Uiso   1.00
H1335  H     0.54380   0.85200   0.88180   0.01267  Uiso   1.00
H1336  H     0.73020   0.92820   0.87060   0.01267  Uiso   1.00
H1337  H     0.71700   0.94140   0.84760   0.01267  Uiso   1.00
H1338  H     0.75460   0.98030   0.88070   0.01267  Uiso   1.00
H1339  H     0.76780   0.90220   0.89300   0.01267  Uiso   1.00
H1340  H     0.82270   0.94550   0.91860   0.01267  Uiso   1.00
H1341  H     0.79730   0.89680   0.89650   0.01267  Uiso   1.00
H1342  H     0.75160   0.82440   0.99920   0.01267  Uiso   1.00
H1343  H     0.71300   0.81740   0.00520   0.01267  Uiso   1.00
H1344  H     0.68890   0.76990   0.98260   0.01267  Uiso   1.00
H1345  H     0.58750   0.73510   0.01320   0.01267  Uiso   1.00
H1346  H     0.59200   0.76270   0.04050   0.01267  Uiso   1.00
H1347  H     0.53730   0.69900   0.02630   0.01267  Uiso   1.00
H1348  H     0.48660   0.75590   0.94570   0.01267  Uiso   1.00
H1349  H     0.44830   0.72000   0.96670   0.01267  Uiso   1.00
H1350  H     0.50480   0.78370   0.97990   0.01267  Uiso   1.00
H1351  H     0.46490   0.61950   0.37100   0.01267  Uiso   1.00
H1352  H     0.47600   0.59510   0.37270   0.01267  Uiso   1.00
H1353  H     0.44930   0.58970   0.39600   0.01267  Uiso   1.00
H1354  H     0.68640   0.80790   0.46910   0.01267  Uiso   1.00
H1355  H     0.65150   0.76090   0.48500   0.01267  Uiso   1.00
H1356  H     0.67790   0.76690   0.46100   0.01267  Uiso   1.00
H1357  H     0.74020   0.90320   0.49100   0.01267  Uiso   1.00
H1358  H     0.78820   0.96330   0.51170   0.01267  Uiso   1.00
H1359  H     0.73670   0.91420   0.52290   0.01267  Uiso   1.00
H1360  H     0.64670   0.94560   0.46090   0.01267  Uiso   1.00
H1361  H     0.65510   0.95440   0.49630   0.01267  Uiso   1.00
H1362  H     0.70390   0.00270   0.48340   0.01267  Uiso   1.00
H1363  H     0.55070   0.86570   0.39200   0.01267  Uiso   1.00
H1364  H     0.51240   0.84190   0.36070   0.01267  Uiso   1.00
H1365  H     0.48930   0.82190   0.38900   0.01267  Uiso   1.00
H1366  H     0.43600   0.65180   0.33980   0.01267  Uiso   1.00
H1367  H     0.38590   0.62920   0.34210   0.01267  Uiso   1.00
H1368  H     0.40860   0.64870   0.31370   0.01267  Uiso   1.00
H1369  H     0.94430   0.64990   0.91800   0.01267  Uiso   1.00
H1370  H     0.88540   0.61020   0.90040   0.01267  Uiso   1.00
H1371  H     0.92550   0.66640   0.92310   0.01267  Uiso   1.00
H1372  H     0.99590   0.74730   0.81020   0.01267  Uiso   1.00
H1373  H     0.97280   0.75540   0.82500   0.01267  Uiso   1.00
H1374  H     0.93260   0.69930   0.80210   0.01267  Uiso   1.00
H1375  H     0.78880   0.56880   0.79240   0.01267  Uiso   1.00
H1376  H     0.82230   0.57240   0.81110   0.01267  Uiso   1.00
H1377  H     0.85190   0.61930   0.79640   0.01267  Uiso   1.00
H1378  H     0.88140   0.70990   0.91870   0.01267  Uiso   1.00
H1379  H     0.93560   0.74790   0.90990   0.01267  Uiso   1.00
H1380  H     0.90730   0.70070   0.92360   0.01267  Uiso   1.00
H1381  H     0.17130   0.72320   0.88510   0.01267  Uiso   1.00
H1382  H     0.13660   0.66700   0.88800   0.01267  Uiso   1.00
H1383  H     0.18070   0.71810   0.91680   0.01267  Uiso   1.00
H1384  H     0.98940   0.63210   0.93150   0.01267  Uiso   1.00
H1385  H     0.01880   0.63860   0.95880   0.01267  Uiso   1.00
H1386  H     0.97330   0.58570   0.93120   0.01267  Uiso   1.00
H1387  H     0.31480   0.10660   0.81420   0.01267  Uiso   1.00
H1388  H     0.36080   0.14160   0.84460   0.01267  Uiso   1.00
H1389  H     0.37290   0.14440   0.81310   0.01267  Uiso   1.00
H1390  H     0.44430   0.33060   0.83070   0.01267  Uiso   1.00
H1391  H     0.48940   0.34510   0.82890   0.01267  Uiso   1.00
H1392  H     0.47610   0.34230   0.86000   0.01267  Uiso   1.00
H1393  H     0.39650   0.34470   0.80100   0.01267  Uiso   1.00
H1394  H     0.37980   0.36360   0.79840   0.01267  Uiso   1.00
H1395  H     0.40830   0.37180   0.77530   0.01267  Uiso   1.00
H1396  H     0.17710   0.14860   0.70270   0.01267  Uiso   1.00
H1397  H     0.21180   0.19550   0.68670   0.01267  Uiso   1.00
H1398  H     0.18130   0.18640   0.70850   0.01267  Uiso   1.00
H1399  H     0.54000   0.35250   0.92110   0.01267  Uiso   1.00
H1400  H     0.47630   0.29470   0.91140   0.01267  Uiso   1.00
H1401  H     0.50270   0.34140   0.89810   0.01267  Uiso   1.00
H1402  H     0.50920   0.24730   0.80530   0.01267  Uiso   1.00
H1403  H     0.47900   0.25000   0.79200   0.01267  Uiso   1.00
H1404  H     0.44780   0.20090   0.80470   0.01267  Uiso   1.00
H1405  H     0.31650   0.70700   0.14210   0.01267  Uiso   1.00
H1406  H     0.28240   0.69970   0.11910   0.01267  Uiso   1.00
H1407  H     0.25240   0.65090   0.13170   0.01267  Uiso   1.00
H1408  H     0.27980   0.59960   0.02160   0.01267  Uiso   1.00
H1409  H     0.21930   0.55400   0.02250   0.01267  Uiso   1.00
H1410  H     0.24960   0.60280   0.00980   0.01267  Uiso   1.00
H1411  H     0.36260   0.63150   0.00930   0.01267  Uiso   1.00
H1412  H     0.39660   0.66440   0.98620   0.01267  Uiso   1.00
H1413  H     0.38730   0.62510   0.99480   0.01267  Uiso   1.00
H1414  H     0.59850   0.83210   0.09500   0.01267  Uiso   1.00
H1415  H     0.60080   0.80590   0.07350   0.01267  Uiso   1.00
H1416  H     0.61120   0.84550   0.06370   0.01267  Uiso   1.00
H1417  H     0.46010   0.78040   0.30490   0.01267  Uiso   1.00
H1418  H     0.41070   0.74260   0.27610   0.01267  Uiso   1.00
H1419  H     0.42840   0.78340   0.30140   0.01267  Uiso   1.00
H1420  H     0.29710   0.60590   0.36640   0.01267  Uiso   1.00
H1421  H     0.34040   0.61880   0.36200   0.01267  Uiso   1.00
H1422  H     0.35800   0.66030   0.38650   0.01267  Uiso   1.00
H1423  H     0.37380   0.38470   0.55310   0.01267  Uiso   1.00
H1424  H     0.38530   0.40230   0.58820   0.01267  Uiso   1.00
H1425  H     0.33400   0.37200   0.56540   0.01267  Uiso   1.00
H1426  H     0.48520   0.59680   0.56040   0.01267  Uiso   1.00
H1427  H     0.43690   0.56450   0.57440   0.01267  Uiso   1.00
H1428  H     0.49190   0.59900   0.59490   0.01267  Uiso   1.00
H1429  H     0.54800   0.65430   0.51470   0.01267  Uiso   1.00
H1430  H     0.59120   0.70500   0.50160   0.01267  Uiso   1.00
H1431  H     0.52980   0.66290   0.49150   0.01267  Uiso   1.00
H1432  H     0.50990   0.54670   0.39520   0.01267  Uiso   1.00
H1433  H     0.49900   0.56840   0.38260   0.01267  Uiso   1.00
H1434  H     0.55910   0.60740   0.39350   0.01267  Uiso   1.00
H1435  H     0.92790   0.03650   0.98860   0.01267  Uiso   1.00
H1436  H     0.88190   0.00000   0.95790   0.01267  Uiso   1.00
H1437  H     0.86810   0.99450   0.98920   0.01267  Uiso   1.00
H1438  H     0.82700   0.82930   0.97390   0.01267  Uiso   1.00
H1439  H     0.77690   0.80670   0.97620   0.01267  Uiso   1.00
H1440  H     0.78990   0.81130   0.94480   0.01267  Uiso   1.00
