data_image0
_cell_length_a       25.33
_cell_length_b       25.33
_cell_length_c       33.467
_cell_angle_alpha    90
_cell_angle_beta     90
_cell_angle_gamma    90

_symmetry_space_group_name_H-M    "P 1"
_symmetry_int_tables_number       1

loop_
  _symmetry_equiv_pos_as_xyz
  'x, y, z'

loop_
  _atom_site_label
  _atom_site_occupancy
  _atom_site_fract_x
  _atom_site_fract_y
  _atom_site_fract_z
  _atom_site_thermal_displace_type
  _atom_site_B_iso_or_equiv
  _atom_site_type_symbol
  Co1      1.0000 0.23217  0.86167  0.34777  Biso   1.000  Co
  Zn1      1.0000 0.26909  0.76182  0.28855  Biso   1.000  Zn
  Zn2      1.0000 0.23572  0.76889  0.46161  Biso   1.000  Zn
  Co2      1.0000 0.76576  0.65437  0.46501  Biso   1.000  Co
  O1       1.0000 0.19974  0.82959  0.39902  Biso   1.000  O
  O2       1.0000 0.17387  0.75504  0.42600  Biso   1.000  O
  O3       1.0000 0.20961  0.78554  0.32316  Biso   1.000  O
  O4       1.0000 0.15768  0.77700  0.26950  Biso   1.000  O
  O5       1.0000 0.81120  0.75360  0.22990  Biso   1.000  O
  O6       1.0000 0.79150  0.83250  0.25550  Biso   1.000  O
  O7       1.0000 0.79924  0.72874  0.45662  Biso   1.000  O
  O8       1.0000 0.83213  0.77630  0.50647  Biso   1.000  O
  O9       1.0000 0.32137  0.75539  0.33140  Biso   1.000  O
  O10      1.0000 0.30621  0.83298  0.36180  Biso   1.000  O
  O11      1.0000 0.30198  0.76831  0.43244  Biso   1.000  O
  O12      1.0000 0.35229  0.80371  0.48036  Biso   1.000  O
  O13      1.0000 0.70168  0.77250  0.50914  Biso   1.000  O
  O14      1.0000 0.69874  0.68950  0.48822  Biso   1.000  O
  O15      1.0000 0.67830  0.78553  0.24629  Biso   1.000  O
  O16      1.0000 0.61286  0.75400  0.20728  Biso   1.000  O
  C1       1.0000 0.11960  0.78800  0.37490  Biso   1.000  C
  C2       1.0000 0.11760  0.78540  0.33287  Biso   1.000  C
  C3       1.0000 0.06790  0.78540  0.31452  Biso   1.000  C
  H1       1.0000 0.06620  0.78480  0.28620  Biso   1.000  H
  C4       1.0000 0.02050  0.78630  0.33606  Biso   1.000  C
  C5       1.0000 0.02260  0.78600  0.37770  Biso   1.000  C
  C6       1.0000 0.07250  0.78850  0.39602  Biso   1.000  C
  H2       1.0000 0.07410  0.79070  0.42430  Biso   1.000  H
  C7       1.0000 0.16810  0.79160  0.40025  Biso   1.000  C
  C8       1.0000 0.16330  0.78330  0.30598  Biso   1.000  C
  C9       1.0000 0.97020  0.78900  0.31280  Biso   1.000  C
  C10      1.0000 0.95990  0.75210  0.28270  Biso   1.000  C
  H3       1.0000 0.98550  0.72620  0.27570  Biso   1.000  H
  C11      1.0000 0.91080  0.75420  0.26290  Biso   1.000  C
  H4       1.0000 0.90300  0.72880  0.24290  Biso   1.000  H
  C12      1.0000 0.87430  0.79210  0.27200  Biso   1.000  C
  C13      1.0000 0.88410  0.82930  0.30080  Biso   1.000  C
  H5       1.0000 0.85850  0.85560  0.30660  Biso   1.000  H
  C14      1.0000 0.93350  0.82800  0.32220  Biso   1.000  C
  H6       1.0000 0.94090  0.85330  0.34230  Biso   1.000  H
  C15      1.0000 0.82090  0.79220  0.25130  Biso   1.000  C
  C16      1.0000 0.97510  0.77980  0.40253  Biso   1.000  C
  C17      1.0000 0.93950  0.73840  0.39320  Biso   1.000  C
  H7       1.0000 0.94640  0.71580  0.37120  Biso   1.000  H
  C18      1.0000 0.89480  0.73100  0.41600  Biso   1.000  C
  H8       1.0000 0.87090  0.70340  0.40980  Biso   1.000  H
  C19      1.0000 0.88490  0.76410  0.44817  Biso   1.000  C
  C20      1.0000 0.92040  0.80310  0.45860  Biso   1.000  C
  H9       1.0000 0.91460  0.82370  0.48190  Biso   1.000  H
  C21      1.0000 0.96500  0.81220  0.43490  Biso   1.000  C
  H10      1.0000 0.98820  0.84050  0.44100  Biso   1.000  H
  C22      1.0000 0.83460  0.75550  0.47250  Biso   1.000  C
  C23      1.0000 0.38290  0.78620  0.37702  Biso   1.000  C
  C24      1.0000 0.39130  0.78650  0.41786  Biso   1.000  C
  C25      1.0000 0.44190  0.78340  0.43274  Biso   1.000  C
  H11      1.0000 0.44700  0.78470  0.46080  Biso   1.000  H
  C26      1.0000 0.48530  0.77860  0.40825  Biso   1.000  C
  C27      1.0000 0.47930  0.77700  0.36620  Biso   1.000  C
  C28      1.0000 0.42760  0.78240  0.35140  Biso   1.000  C
  H12      1.0000 0.42230  0.78360  0.32330  Biso   1.000  H
  C29      1.0000 0.33206  0.79130  0.35573  Biso   1.000  C
  C30      1.0000 0.34494  0.78670  0.44575  Biso   1.000  C
  C31      1.0000 0.53800  0.76800  0.42755  Biso   1.000  C
  C32      1.0000 0.56730  0.72380  0.41850  Biso   1.000  C
  H13      1.0000 0.55570  0.70010  0.39830  Biso   1.000  H
  C33      1.0000 0.61310  0.71410  0.43879  Biso   1.000  C
  H14      1.0000 0.63280  0.68320  0.43270  Biso   1.000  H
  C34      1.0000 0.63150  0.74810  0.46795  Biso   1.000  C
  C35      1.0000 0.60360  0.79370  0.47610  Biso   1.000  C
  H15      1.0000 0.61710  0.81830  0.49490  Biso   1.000  H
  C36      1.0000 0.55620  0.80360  0.45710  Biso   1.000  C
  H16      1.0000 0.53600  0.83400  0.46370  Biso   1.000  H
  C37      1.0000 0.68190  0.73580  0.48933  Biso   1.000  C
  C38      1.0000 0.52180  0.77390  0.33646  Biso   1.000  C
  C39      1.0000 0.51200  0.74270  0.30320  Biso   1.000  C
  H17      1.0000 0.48020  0.72290  0.30160  Biso   1.000  H
  C40      1.0000 0.54860  0.74020  0.27201  Biso   1.000  C
  H18      1.0000 0.54240  0.71780  0.24970  Biso   1.000  H
  C41      1.0000 0.59440  0.77100  0.27397  Biso   1.000  C
  C42      1.0000 0.60380  0.80240  0.30820  Biso   1.000  C
  H19      1.0000 0.63520  0.82270  0.31000  Biso   1.000  H
  C43      1.0000 0.56760  0.80370  0.33880  Biso   1.000  C
  H20      1.0000 0.57410  0.82500  0.36170  Biso   1.000  H
  C44      1.0000 0.63150  0.77080  0.23943  Biso   1.000  C
  Zn3      1.0000 0.63833  0.73217  0.15223  Biso   1.000  Zn
  Co3      1.0000 0.73217  0.36167  0.84777  Biso   1.000  Co
  Zn4      1.0000 0.76909  0.26182  0.78855  Biso   1.000  Zn
  Zn5      1.0000 0.73572  0.26889  0.96161  Biso   1.000  Zn
  Co4      1.0000 0.26576  0.15437  0.96501  Biso   1.000  Co
  O17      1.0000 0.69974  0.32959  0.89902  Biso   1.000  O
  O18      1.0000 0.67387  0.25504  0.92600  Biso   1.000  O
  O19      1.0000 0.70961  0.28554  0.82316  Biso   1.000  O
  O20      1.0000 0.65768  0.27700  0.76950  Biso   1.000  O
  O21      1.0000 0.31120  0.25360  0.72990  Biso   1.000  O
  O22      1.0000 0.29150  0.33250  0.75550  Biso   1.000  O
  O23      1.0000 0.29924  0.22874  0.95662  Biso   1.000  O
  O24      1.0000 0.33213  0.27630  0.00647  Biso   1.000  O
  O25      1.0000 0.82137  0.25539  0.83140  Biso   1.000  O
  O26      1.0000 0.80621  0.33298  0.86180  Biso   1.000  O
  O27      1.0000 0.80198  0.26831  0.93244  Biso   1.000  O
  O28      1.0000 0.85229  0.30371  0.98036  Biso   1.000  O
  O29      1.0000 0.20168  0.27250  0.00914  Biso   1.000  O
  O30      1.0000 0.19874  0.18950  0.98822  Biso   1.000  O
  O31      1.0000 0.17830  0.28553  0.74629  Biso   1.000  O
  O32      1.0000 0.11286  0.25400  0.70728  Biso   1.000  O
  C45      1.0000 0.61960  0.28800  0.87490  Biso   1.000  C
  C46      1.0000 0.61760  0.28540  0.83287  Biso   1.000  C
  C47      1.0000 0.56790  0.28540  0.81452  Biso   1.000  C
  H21      1.0000 0.56620  0.28480  0.78620  Biso   1.000  H
  C48      1.0000 0.52050  0.28630  0.83606  Biso   1.000  C
  C49      1.0000 0.52260  0.28600  0.87770  Biso   1.000  C
  C50      1.0000 0.57250  0.28850  0.89602  Biso   1.000  C
  H22      1.0000 0.57410  0.29070  0.92430  Biso   1.000  H
  C51      1.0000 0.66810  0.29160  0.90025  Biso   1.000  C
  C52      1.0000 0.66330  0.28330  0.80598  Biso   1.000  C
  C53      1.0000 0.47020  0.28900  0.81280  Biso   1.000  C
  C54      1.0000 0.45990  0.25210  0.78270  Biso   1.000  C
  H23      1.0000 0.48550  0.22620  0.77570  Biso   1.000  H
  C55      1.0000 0.41080  0.25420  0.76290  Biso   1.000  C
  H24      1.0000 0.40300  0.22880  0.74290  Biso   1.000  H
  C56      1.0000 0.37430  0.29210  0.77200  Biso   1.000  C
  C57      1.0000 0.38410  0.32930  0.80080  Biso   1.000  C
  H25      1.0000 0.35850  0.35560  0.80660  Biso   1.000  H
  C58      1.0000 0.43350  0.32800  0.82220  Biso   1.000  C
  H26      1.0000 0.44090  0.35330  0.84230  Biso   1.000  H
  C59      1.0000 0.32090  0.29220  0.75130  Biso   1.000  C
  C60      1.0000 0.47510  0.27980  0.90253  Biso   1.000  C
  C61      1.0000 0.43950  0.23840  0.89320  Biso   1.000  C
  H27      1.0000 0.44640  0.21580  0.87120  Biso   1.000  H
  C62      1.0000 0.39480  0.23100  0.91600  Biso   1.000  C
  H28      1.0000 0.37090  0.20340  0.90980  Biso   1.000  H
  C63      1.0000 0.38490  0.26410  0.94817  Biso   1.000  C
  C64      1.0000 0.42040  0.30310  0.95860  Biso   1.000  C
  H29      1.0000 0.41460  0.32370  0.98190  Biso   1.000  H
  C65      1.0000 0.46500  0.31220  0.93490  Biso   1.000  C
  H30      1.0000 0.48820  0.34050  0.94100  Biso   1.000  H
  C66      1.0000 0.33460  0.25550  0.97250  Biso   1.000  C
  C67      1.0000 0.88290  0.28620  0.87702  Biso   1.000  C
  C68      1.0000 0.89130  0.28650  0.91786  Biso   1.000  C
  C69      1.0000 0.94190  0.28340  0.93274  Biso   1.000  C
  H31      1.0000 0.94700  0.28470  0.96080  Biso   1.000  H
  C70      1.0000 0.98530  0.27860  0.90825  Biso   1.000  C
  C71      1.0000 0.97930  0.27700  0.86620  Biso   1.000  C
  C72      1.0000 0.92760  0.28240  0.85140  Biso   1.000  C
  H32      1.0000 0.92230  0.28360  0.82330  Biso   1.000  H
  C73      1.0000 0.83206  0.29130  0.85573  Biso   1.000  C
  C74      1.0000 0.84494  0.28670  0.94575  Biso   1.000  C
  C75      1.0000 0.03800  0.26800  0.92755  Biso   1.000  C
  C76      1.0000 0.06730  0.22380  0.91850  Biso   1.000  C
  H33      1.0000 0.05570  0.20010  0.89830  Biso   1.000  H
  C77      1.0000 0.11310  0.21410  0.93879  Biso   1.000  C
  H34      1.0000 0.13280  0.18320  0.93270  Biso   1.000  H
  C78      1.0000 0.13150  0.24810  0.96795  Biso   1.000  C
  C79      1.0000 0.10360  0.29370  0.97610  Biso   1.000  C
  H35      1.0000 0.11710  0.31830  0.99490  Biso   1.000  H
  C80      1.0000 0.05620  0.30360  0.95710  Biso   1.000  C
  H36      1.0000 0.03600  0.33400  0.96370  Biso   1.000  H
  C81      1.0000 0.18190  0.23580  0.98933  Biso   1.000  C
  C82      1.0000 0.02180  0.27390  0.83646  Biso   1.000  C
  C83      1.0000 0.01200  0.24270  0.80320  Biso   1.000  C
  H37      1.0000 0.98020  0.22290  0.80160  Biso   1.000  H
  C84      1.0000 0.04860  0.24020  0.77201  Biso   1.000  C
  H38      1.0000 0.04240  0.21780  0.74970  Biso   1.000  H
  C85      1.0000 0.09440  0.27100  0.77397  Biso   1.000  C
  C86      1.0000 0.10380  0.30240  0.80820  Biso   1.000  C
  H39      1.0000 0.13520  0.32270  0.81000  Biso   1.000  H
  C87      1.0000 0.06760  0.30370  0.83880  Biso   1.000  C
  H40      1.0000 0.07410  0.32500  0.86170  Biso   1.000  H
  C88      1.0000 0.13150  0.27080  0.73943  Biso   1.000  C
  Zn6      1.0000 0.13833  0.23217  0.65223  Biso   1.000  Zn
  Co5      1.0000 0.76783  0.13833  0.34777  Biso   1.000  Co
  Zn7      1.0000 0.73091  0.23818  0.28855  Biso   1.000  Zn
  Zn8      1.0000 0.76428  0.23111  0.46161  Biso   1.000  Zn
  Co6      1.0000 0.23424  0.34563  0.46501  Biso   1.000  Co
  O33      1.0000 0.80026  0.17041  0.39902  Biso   1.000  O
  O34      1.0000 0.82613  0.24496  0.42600  Biso   1.000  O
  O35      1.0000 0.79039  0.21446  0.32316  Biso   1.000  O
  O36      1.0000 0.84232  0.22300  0.26950  Biso   1.000  O
  O37      1.0000 0.18880  0.24640  0.22990  Biso   1.000  O
  O38      1.0000 0.20850  0.16750  0.25550  Biso   1.000  O
  O39      1.0000 0.20076  0.27126  0.45662  Biso   1.000  O
  O40      1.0000 0.16787  0.22370  0.50647  Biso   1.000  O
  O41      1.0000 0.67863  0.24461  0.33140  Biso   1.000  O
  O42      1.0000 0.69379  0.16702  0.36180  Biso   1.000  O
  O43      1.0000 0.69802  0.23169  0.43244  Biso   1.000  O
  O44      1.0000 0.64771  0.19629  0.48036  Biso   1.000  O
  O45      1.0000 0.29832  0.22750  0.50914  Biso   1.000  O
  O46      1.0000 0.30126  0.31050  0.48822  Biso   1.000  O
  O47      1.0000 0.32170  0.21447  0.24629  Biso   1.000  O
  O48      1.0000 0.38714  0.24600  0.20728  Biso   1.000  O
  C89      1.0000 0.88040  0.21200  0.37490  Biso   1.000  C
  C90      1.0000 0.88240  0.21460  0.33287  Biso   1.000  C
  C91      1.0000 0.93210  0.21460  0.31452  Biso   1.000  C
  H41      1.0000 0.93380  0.21520  0.28620  Biso   1.000  H
  C92      1.0000 0.97950  0.21370  0.33606  Biso   1.000  C
  C93      1.0000 0.97740  0.21400  0.37770  Biso   1.000  C
  C94      1.0000 0.92750  0.21150  0.39602  Biso   1.000  C
  H42      1.0000 0.92590  0.20930  0.42430  Biso   1.000  H
  C95      1.0000 0.83190  0.20840  0.40025  Biso   1.000  C
  C96      1.0000 0.83670  0.21670  0.30598  Biso   1.000  C
  C97      1.0000 0.02980  0.21100  0.31280  Biso   1.000  C
  C98      1.0000 0.04010  0.24790  0.28270  Biso   1.000  C
  H43      1.0000 0.01450  0.27380  0.27570  Biso   1.000  H
  C99      1.0000 0.08920  0.24580  0.26290  Biso   1.000  C
  H44      1.0000 0.09700  0.27120  0.24290  Biso   1.000  H
  C100     1.0000 0.12570  0.20790  0.27200  Biso   1.000  C
  C101     1.0000 0.11590  0.17070  0.30080  Biso   1.000  C
  H45      1.0000 0.14150  0.14440  0.30660  Biso   1.000  H
  C102     1.0000 0.06650  0.17200  0.32220  Biso   1.000  C
  H46      1.0000 0.05910  0.14670  0.34230  Biso   1.000  H
  C103     1.0000 0.17910  0.20780  0.25130  Biso   1.000  C
  C104     1.0000 0.02490  0.22020  0.40253  Biso   1.000  C
  C105     1.0000 0.06050  0.26160  0.39320  Biso   1.000  C
  H47      1.0000 0.05360  0.28420  0.37120  Biso   1.000  H
  C106     1.0000 0.10520  0.26900  0.41600  Biso   1.000  C
  H48      1.0000 0.12910  0.29660  0.40980  Biso   1.000  H
  C107     1.0000 0.11510  0.23590  0.44817  Biso   1.000  C
  C108     1.0000 0.07960  0.19690  0.45860  Biso   1.000  C
  H49      1.0000 0.08540  0.17630  0.48190  Biso   1.000  H
  C109     1.0000 0.03500  0.18780  0.43490  Biso   1.000  C
  H50      1.0000 0.01180  0.15950  0.44100  Biso   1.000  H
  C110     1.0000 0.16540  0.24450  0.47250  Biso   1.000  C
  C111     1.0000 0.61710  0.21380  0.37702  Biso   1.000  C
  C112     1.0000 0.60870  0.21350  0.41786  Biso   1.000  C
  C113     1.0000 0.55810  0.21660  0.43274  Biso   1.000  C
  H51      1.0000 0.55300  0.21530  0.46080  Biso   1.000  H
  C114     1.0000 0.51470  0.22140  0.40825  Biso   1.000  C
  C115     1.0000 0.52070  0.22300  0.36620  Biso   1.000  C
  C116     1.0000 0.57240  0.21760  0.35140  Biso   1.000  C
  H52      1.0000 0.57770  0.21640  0.32330  Biso   1.000  H
  C117     1.0000 0.66794  0.20870  0.35573  Biso   1.000  C
  C118     1.0000 0.65506  0.21330  0.44575  Biso   1.000  C
  C119     1.0000 0.46200  0.23200  0.42755  Biso   1.000  C
  C120     1.0000 0.43270  0.27620  0.41850  Biso   1.000  C
  H53      1.0000 0.44430  0.29990  0.39830  Biso   1.000  H
  C121     1.0000 0.38690  0.28590  0.43879  Biso   1.000  C
  H54      1.0000 0.36720  0.31680  0.43270  Biso   1.000  H
  C122     1.0000 0.36850  0.25190  0.46795  Biso   1.000  C
  C123     1.0000 0.39640  0.20630  0.47610  Biso   1.000  C
  H55      1.0000 0.38290  0.18170  0.49490  Biso   1.000  H
  C124     1.0000 0.44380  0.19640  0.45710  Biso   1.000  C
  H56      1.0000 0.46400  0.16600  0.46370  Biso   1.000  H
  C125     1.0000 0.31810  0.26420  0.48933  Biso   1.000  C
  C126     1.0000 0.47820  0.22610  0.33646  Biso   1.000  C
  C127     1.0000 0.48800  0.25730  0.30320  Biso   1.000  C
  H57      1.0000 0.51980  0.27710  0.30160  Biso   1.000  H
  C128     1.0000 0.45140  0.25980  0.27201  Biso   1.000  C
  H58      1.0000 0.45760  0.28220  0.24970  Biso   1.000  H
  C129     1.0000 0.40560  0.22900  0.27397  Biso   1.000  C
  C130     1.0000 0.39620  0.19760  0.30820  Biso   1.000  C
  H59      1.0000 0.36480  0.17730  0.31000  Biso   1.000  H
  C131     1.0000 0.43240  0.19630  0.33880  Biso   1.000  C
  H60      1.0000 0.42590  0.17500  0.36170  Biso   1.000  H
  C132     1.0000 0.36850  0.22920  0.23943  Biso   1.000  C
  Zn9      1.0000 0.36167  0.26783  0.15223  Biso   1.000  Zn
  Co7      1.0000 0.26783  0.63833  0.84777  Biso   1.000  Co
  Zn10     1.0000 0.23091  0.73818  0.78855  Biso   1.000  Zn
  Zn11     1.0000 0.26428  0.73111  0.96161  Biso   1.000  Zn
  Co8      1.0000 0.73424  0.84563  0.96501  Biso   1.000  Co
  O49      1.0000 0.30026  0.67041  0.89902  Biso   1.000  O
  O50      1.0000 0.32613  0.74496  0.92600  Biso   1.000  O
  O51      1.0000 0.29039  0.71446  0.82316  Biso   1.000  O
  O52      1.0000 0.34232  0.72300  0.76950  Biso   1.000  O
  O53      1.0000 0.68880  0.74640  0.72990  Biso   1.000  O
  O54      1.0000 0.70850  0.66750  0.75550  Biso   1.000  O
  O55      1.0000 0.70076  0.77126  0.95662  Biso   1.000  O
  O56      1.0000 0.66787  0.72370  0.00647  Biso   1.000  O
  O57      1.0000 0.17863  0.74461  0.83140  Biso   1.000  O
  O58      1.0000 0.19379  0.66702  0.86180  Biso   1.000  O
  O59      1.0000 0.19802  0.73169  0.93244  Biso   1.000  O
  O60      1.0000 0.14771  0.69629  0.98036  Biso   1.000  O
  O61      1.0000 0.79832  0.72750  0.00914  Biso   1.000  O
  O62      1.0000 0.80126  0.81050  0.98822  Biso   1.000  O
  O63      1.0000 0.82170  0.71447  0.74629  Biso   1.000  O
  O64      1.0000 0.88714  0.74600  0.70728  Biso   1.000  O
  C133     1.0000 0.38040  0.71200  0.87490  Biso   1.000  C
  C134     1.0000 0.38240  0.71460  0.83287  Biso   1.000  C
  C135     1.0000 0.43210  0.71460  0.81452  Biso   1.000  C
  H61      1.0000 0.43380  0.71520  0.78620  Biso   1.000  H
  C136     1.0000 0.47950  0.71370  0.83606  Biso   1.000  C
  C137     1.0000 0.47740  0.71400  0.87770  Biso   1.000  C
  C138     1.0000 0.42750  0.71150  0.89602  Biso   1.000  C
  H62      1.0000 0.42590  0.70930  0.92430  Biso   1.000  H
  C139     1.0000 0.33190  0.70840  0.90025  Biso   1.000  C
  C140     1.0000 0.33670  0.71670  0.80598  Biso   1.000  C
  C141     1.0000 0.52980  0.71100  0.81280  Biso   1.000  C
  C142     1.0000 0.54010  0.74790  0.78270  Biso   1.000  C
  H63      1.0000 0.51450  0.77380  0.77570  Biso   1.000  H
  C143     1.0000 0.58920  0.74580  0.76290  Biso   1.000  C
  H64      1.0000 0.59700  0.77120  0.74290  Biso   1.000  H
  C144     1.0000 0.62570  0.70790  0.77200  Biso   1.000  C
  C145     1.0000 0.61590  0.67070  0.80080  Biso   1.000  C
  H65      1.0000 0.64150  0.64440  0.80660  Biso   1.000  H
  C146     1.0000 0.56650  0.67200  0.82220  Biso   1.000  C
  H66      1.0000 0.55910  0.64670  0.84230  Biso   1.000  H
  C147     1.0000 0.67910  0.70780  0.75130  Biso   1.000  C
  C148     1.0000 0.52490  0.72020  0.90253  Biso   1.000  C
  C149     1.0000 0.56050  0.76160  0.89320  Biso   1.000  C
  H67      1.0000 0.55360  0.78420  0.87120  Biso   1.000  H
  C150     1.0000 0.60520  0.76900  0.91600  Biso   1.000  C
  H68      1.0000 0.62910  0.79660  0.90980  Biso   1.000  H
  C151     1.0000 0.61510  0.73590  0.94817  Biso   1.000  C
  C152     1.0000 0.57960  0.69690  0.95860  Biso   1.000  C
  H69      1.0000 0.58540  0.67630  0.98190  Biso   1.000  H
  C153     1.0000 0.53500  0.68780  0.93490  Biso   1.000  C
  H70      1.0000 0.51180  0.65950  0.94100  Biso   1.000  H
  C154     1.0000 0.66540  0.74450  0.97250  Biso   1.000  C
  C155     1.0000 0.11710  0.71380  0.87702  Biso   1.000  C
  C156     1.0000 0.10870  0.71350  0.91786  Biso   1.000  C
  C157     1.0000 0.05810  0.71660  0.93274  Biso   1.000  C
  H71      1.0000 0.05300  0.71530  0.96080  Biso   1.000  H
  C158     1.0000 0.01470  0.72140  0.90825  Biso   1.000  C
  C159     1.0000 0.02070  0.72300  0.86620  Biso   1.000  C
  C160     1.0000 0.07240  0.71760  0.85140  Biso   1.000  C
  H72      1.0000 0.07770  0.71640  0.82330  Biso   1.000  H
  C161     1.0000 0.16794  0.70870  0.85573  Biso   1.000  C
  C162     1.0000 0.15506  0.71330  0.94575  Biso   1.000  C
  C163     1.0000 0.96200  0.73200  0.92755  Biso   1.000  C
  C164     1.0000 0.93270  0.77620  0.91850  Biso   1.000  C
  H73      1.0000 0.94430  0.79990  0.89830  Biso   1.000  H
  C165     1.0000 0.88690  0.78590  0.93879  Biso   1.000  C
  H74      1.0000 0.86720  0.81680  0.93270  Biso   1.000  H
  C166     1.0000 0.86850  0.75190  0.96795  Biso   1.000  C
  C167     1.0000 0.89640  0.70630  0.97610  Biso   1.000  C
  H75      1.0000 0.88290  0.68170  0.99490  Biso   1.000  H
  C168     1.0000 0.94380  0.69640  0.95710  Biso   1.000  C
  H76      1.0000 0.96400  0.66600  0.96370  Biso   1.000  H
  C169     1.0000 0.81810  0.76420  0.98933  Biso   1.000  C
  C170     1.0000 0.97820  0.72610  0.83646  Biso   1.000  C
  C171     1.0000 0.98800  0.75730  0.80320  Biso   1.000  C
  H77      1.0000 0.01980  0.77710  0.80160  Biso   1.000  H
  C172     1.0000 0.95140  0.75980  0.77201  Biso   1.000  C
  H78      1.0000 0.95760  0.78220  0.74970  Biso   1.000  H
  C173     1.0000 0.90560  0.72900  0.77397  Biso   1.000  C
  C174     1.0000 0.89620  0.69760  0.80820  Biso   1.000  C
  H79      1.0000 0.86480  0.67730  0.81000  Biso   1.000  H
  C175     1.0000 0.93240  0.69630  0.83880  Biso   1.000  C
  H80      1.0000 0.92590  0.67500  0.86170  Biso   1.000  H
  C176     1.0000 0.86850  0.72920  0.73943  Biso   1.000  C
  Zn12     1.0000 0.86167  0.76783  0.65223  Biso   1.000  Zn
  Zn13     1.0000 0.76182  0.73091  0.71145  Biso   1.000  Zn
  Zn14     1.0000 0.76889  0.76428  0.53839  Biso   1.000  Zn
  Co9      1.0000 0.65437  0.23424  0.53499  Biso   1.000  Co
  O65      1.0000 0.82959  0.80026  0.60098  Biso   1.000  O
  O66      1.0000 0.75504  0.82613  0.57400  Biso   1.000  O
  O67      1.0000 0.78554  0.79039  0.67684  Biso   1.000  O
  O68      1.0000 0.77700  0.84232  0.73050  Biso   1.000  O
  O69      1.0000 0.75360  0.18880  0.77010  Biso   1.000  O
  O70      1.0000 0.83250  0.20850  0.74450  Biso   1.000  O
  O71      1.0000 0.72874  0.20076  0.54338  Biso   1.000  O
  O72      1.0000 0.77630  0.16787  0.49353  Biso   1.000  O
  O73      1.0000 0.75539  0.67863  0.66860  Biso   1.000  O
  O74      1.0000 0.83298  0.69379  0.63820  Biso   1.000  O
  O75      1.0000 0.76831  0.69802  0.56756  Biso   1.000  O
  O76      1.0000 0.80371  0.64771  0.51964  Biso   1.000  O
  O77      1.0000 0.77250  0.29832  0.49086  Biso   1.000  O
  O78      1.0000 0.68950  0.30126  0.51178  Biso   1.000  O
  O79      1.0000 0.78553  0.32170  0.75371  Biso   1.000  O
  O80      1.0000 0.75400  0.38714  0.79272  Biso   1.000  O
  C177     1.0000 0.78800  0.88040  0.62510  Biso   1.000  C
  C178     1.0000 0.78540  0.88240  0.66713  Biso   1.000  C
  C179     1.0000 0.78540  0.93210  0.68548  Biso   1.000  C
  H81      1.0000 0.78480  0.93380  0.71380  Biso   1.000  H
  C180     1.0000 0.78630  0.97950  0.66394  Biso   1.000  C
  C181     1.0000 0.78600  0.97740  0.62230  Biso   1.000  C
  C182     1.0000 0.78850  0.92750  0.60398  Biso   1.000  C
  H82      1.0000 0.79070  0.92590  0.57570  Biso   1.000  H
  C183     1.0000 0.79160  0.83190  0.59975  Biso   1.000  C
  C184     1.0000 0.78330  0.83670  0.69402  Biso   1.000  C
  C185     1.0000 0.78900  0.02980  0.68720  Biso   1.000  C
  C186     1.0000 0.75210  0.04010  0.71730  Biso   1.000  C
  H83      1.0000 0.72620  0.01450  0.72430  Biso   1.000  H
  C187     1.0000 0.75420  0.08920  0.73710  Biso   1.000  C
  H84      1.0000 0.72880  0.09700  0.75710  Biso   1.000  H
  C188     1.0000 0.79210  0.12570  0.72800  Biso   1.000  C
  C189     1.0000 0.82930  0.11590  0.69920  Biso   1.000  C
  H85      1.0000 0.85560  0.14150  0.69340  Biso   1.000  H
  C190     1.0000 0.82800  0.06650  0.67780  Biso   1.000  C
  H86      1.0000 0.85330  0.05910  0.65770  Biso   1.000  H
  C191     1.0000 0.79220  0.17910  0.74870  Biso   1.000  C
  C192     1.0000 0.77980  0.02490  0.59747  Biso   1.000  C
  C193     1.0000 0.73840  0.06050  0.60680  Biso   1.000  C
  H87      1.0000 0.71580  0.05360  0.62880  Biso   1.000  H
  C194     1.0000 0.73100  0.10520  0.58400  Biso   1.000  C
  H88      1.0000 0.70340  0.12910  0.59020  Biso   1.000  H
  C195     1.0000 0.76410  0.11510  0.55183  Biso   1.000  C
  C196     1.0000 0.80310  0.07960  0.54140  Biso   1.000  C
  H89      1.0000 0.82370  0.08540  0.51810  Biso   1.000  H
  C197     1.0000 0.81220  0.03500  0.56510  Biso   1.000  C
  H90      1.0000 0.84050  0.01180  0.55900  Biso   1.000  H
  C198     1.0000 0.75550  0.16540  0.52750  Biso   1.000  C
  C199     1.0000 0.78620  0.61710  0.62298  Biso   1.000  C
  C200     1.0000 0.78650  0.60870  0.58214  Biso   1.000  C
  C201     1.0000 0.78340  0.55810  0.56726  Biso   1.000  C
  H91      1.0000 0.78470  0.55300  0.53920  Biso   1.000  H
  C202     1.0000 0.77860  0.51470  0.59175  Biso   1.000  C
  C203     1.0000 0.77700  0.52070  0.63380  Biso   1.000  C
  C204     1.0000 0.78240  0.57240  0.64860  Biso   1.000  C
  H92      1.0000 0.78360  0.57770  0.67670  Biso   1.000  H
  C205     1.0000 0.79130  0.66794  0.64427  Biso   1.000  C
  C206     1.0000 0.78670  0.65506  0.55425  Biso   1.000  C
  C207     1.0000 0.76800  0.46200  0.57245  Biso   1.000  C
  C208     1.0000 0.72380  0.43270  0.58150  Biso   1.000  C
  H93      1.0000 0.70010  0.44430  0.60170  Biso   1.000  H
  C209     1.0000 0.71410  0.38690  0.56121  Biso   1.000  C
  H94      1.0000 0.68320  0.36720  0.56730  Biso   1.000  H
  C210     1.0000 0.74810  0.36850  0.53205  Biso   1.000  C
  C211     1.0000 0.79370  0.39640  0.52390  Biso   1.000  C
  H95      1.0000 0.81830  0.38290  0.50510  Biso   1.000  H
  C212     1.0000 0.80360  0.44380  0.54290  Biso   1.000  C
  H96      1.0000 0.83400  0.46400  0.53630  Biso   1.000  H
  C213     1.0000 0.73580  0.31810  0.51067  Biso   1.000  C
  C214     1.0000 0.77390  0.47820  0.66354  Biso   1.000  C
  C215     1.0000 0.74270  0.48800  0.69680  Biso   1.000  C
  H97      1.0000 0.72290  0.51980  0.69840  Biso   1.000  H
  C216     1.0000 0.74020  0.45140  0.72799  Biso   1.000  C
  H98      1.0000 0.71780  0.45760  0.75030  Biso   1.000  H
  C217     1.0000 0.77100  0.40560  0.72603  Biso   1.000  C
  C218     1.0000 0.80240  0.39620  0.69180  Biso   1.000  C
  H99      1.0000 0.82270  0.36480  0.69000  Biso   1.000  H
  C219     1.0000 0.80370  0.43240  0.66120  Biso   1.000  C
  H100     1.0000 0.82500  0.42590  0.63830  Biso   1.000  H
  C220     1.0000 0.77080  0.36850  0.76057  Biso   1.000  C
  Zn15     1.0000 0.26182  0.23091  0.21145  Biso   1.000  Zn
  Zn16     1.0000 0.26889  0.26428  0.03839  Biso   1.000  Zn
  Co10     1.0000 0.15437  0.73424  0.03499  Biso   1.000  Co
  O81      1.0000 0.32959  0.30026  0.10098  Biso   1.000  O
  O82      1.0000 0.25504  0.32613  0.07400  Biso   1.000  O
  O83      1.0000 0.28554  0.29039  0.17684  Biso   1.000  O
  O84      1.0000 0.27700  0.34232  0.23050  Biso   1.000  O
  O85      1.0000 0.25360  0.68880  0.27010  Biso   1.000  O
  O86      1.0000 0.33250  0.70850  0.24450  Biso   1.000  O
  O87      1.0000 0.22874  0.70076  0.04338  Biso   1.000  O
  O88      1.0000 0.27630  0.66787  0.99353  Biso   1.000  O
  O89      1.0000 0.25539  0.17863  0.16860  Biso   1.000  O
  O90      1.0000 0.33298  0.19379  0.13820  Biso   1.000  O
  O91      1.0000 0.26831  0.19802  0.06756  Biso   1.000  O
  O92      1.0000 0.30371  0.14771  0.01964  Biso   1.000  O
  O93      1.0000 0.27250  0.79832  0.99086  Biso   1.000  O
  O94      1.0000 0.18950  0.80126  0.01178  Biso   1.000  O
  O95      1.0000 0.28553  0.82170  0.25371  Biso   1.000  O
  O96      1.0000 0.25400  0.88714  0.29272  Biso   1.000  O
  C221     1.0000 0.28800  0.38040  0.12510  Biso   1.000  C
  C222     1.0000 0.28540  0.38240  0.16713  Biso   1.000  C
  C223     1.0000 0.28540  0.43210  0.18548  Biso   1.000  C
  H101     1.0000 0.28480  0.43380  0.21380  Biso   1.000  H
  C224     1.0000 0.28630  0.47950  0.16394  Biso   1.000  C
  C225     1.0000 0.28600  0.47740  0.12230  Biso   1.000  C
  C226     1.0000 0.28850  0.42750  0.10398  Biso   1.000  C
  H102     1.0000 0.29070  0.42590  0.07570  Biso   1.000  H
  C227     1.0000 0.29160  0.33190  0.09975  Biso   1.000  C
  C228     1.0000 0.28330  0.33670  0.19402  Biso   1.000  C
  C229     1.0000 0.28900  0.52980  0.18720  Biso   1.000  C
  C230     1.0000 0.25210  0.54010  0.21730  Biso   1.000  C
  H103     1.0000 0.22620  0.51450  0.22430  Biso   1.000  H
  C231     1.0000 0.25420  0.58920  0.23710  Biso   1.000  C
  H104     1.0000 0.22880  0.59700  0.25710  Biso   1.000  H
  C232     1.0000 0.29210  0.62570  0.22800  Biso   1.000  C
  C233     1.0000 0.32930  0.61590  0.19920  Biso   1.000  C
  H105     1.0000 0.35560  0.64150  0.19340  Biso   1.000  H
  C234     1.0000 0.32800  0.56650  0.17780  Biso   1.000  C
  H106     1.0000 0.35330  0.55910  0.15770  Biso   1.000  H
  C235     1.0000 0.29220  0.67910  0.24870  Biso   1.000  C
  C236     1.0000 0.27980  0.52490  0.09747  Biso   1.000  C
  C237     1.0000 0.23840  0.56050  0.10680  Biso   1.000  C
  H107     1.0000 0.21580  0.55360  0.12880  Biso   1.000  H
  C238     1.0000 0.23100  0.60520  0.08400  Biso   1.000  C
  H108     1.0000 0.20340  0.62910  0.09020  Biso   1.000  H
  C239     1.0000 0.26410  0.61510  0.05183  Biso   1.000  C
  C240     1.0000 0.30310  0.57960  0.04140  Biso   1.000  C
  H109     1.0000 0.32370  0.58540  0.01810  Biso   1.000  H
  C241     1.0000 0.31220  0.53500  0.06510  Biso   1.000  C
  H110     1.0000 0.34050  0.51180  0.05900  Biso   1.000  H
  C242     1.0000 0.25550  0.66540  0.02750  Biso   1.000  C
  C243     1.0000 0.28620  0.11710  0.12298  Biso   1.000  C
  C244     1.0000 0.28650  0.10870  0.08214  Biso   1.000  C
  C245     1.0000 0.28340  0.05810  0.06726  Biso   1.000  C
  H111     1.0000 0.28470  0.05300  0.03920  Biso   1.000  H
  C246     1.0000 0.27860  0.01470  0.09175  Biso   1.000  C
  C247     1.0000 0.27700  0.02070  0.13380  Biso   1.000  C
  C248     1.0000 0.28240  0.07240  0.14860  Biso   1.000  C
  H112     1.0000 0.28360  0.07770  0.17670  Biso   1.000  H
  C249     1.0000 0.29130  0.16794  0.14427  Biso   1.000  C
  C250     1.0000 0.28670  0.15506  0.05425  Biso   1.000  C
  C251     1.0000 0.26800  0.96200  0.07245  Biso   1.000  C
  C252     1.0000 0.22380  0.93270  0.08150  Biso   1.000  C
  H113     1.0000 0.20010  0.94430  0.10170  Biso   1.000  H
  C253     1.0000 0.21410  0.88690  0.06121  Biso   1.000  C
  H114     1.0000 0.18320  0.86720  0.06730  Biso   1.000  H
  C254     1.0000 0.24810  0.86850  0.03205  Biso   1.000  C
  C255     1.0000 0.29370  0.89640  0.02390  Biso   1.000  C
  H115     1.0000 0.31830  0.88290  0.00510  Biso   1.000  H
  C256     1.0000 0.30360  0.94380  0.04290  Biso   1.000  C
  H116     1.0000 0.33400  0.96400  0.03630  Biso   1.000  H
  C257     1.0000 0.23580  0.81810  0.01067  Biso   1.000  C
  C258     1.0000 0.27390  0.97820  0.16354  Biso   1.000  C
  C259     1.0000 0.24270  0.98800  0.19680  Biso   1.000  C
  H117     1.0000 0.22290  0.01980  0.19840  Biso   1.000  H
  C260     1.0000 0.24020  0.95140  0.22799  Biso   1.000  C
  H118     1.0000 0.21780  0.95760  0.25030  Biso   1.000  H
  C261     1.0000 0.27100  0.90560  0.22603  Biso   1.000  C
  C262     1.0000 0.30240  0.89620  0.19180  Biso   1.000  C
  H119     1.0000 0.32270  0.86480  0.19000  Biso   1.000  H
  C263     1.0000 0.30370  0.93240  0.16120  Biso   1.000  C
  H120     1.0000 0.32500  0.92590  0.13830  Biso   1.000  H
  C264     1.0000 0.27080  0.86850  0.26057  Biso   1.000  C
  Zn17     1.0000 0.23818  0.26909  0.71145  Biso   1.000  Zn
  Zn18     1.0000 0.23111  0.23572  0.53839  Biso   1.000  Zn
  Co11     1.0000 0.34563  0.76576  0.53499  Biso   1.000  Co
  O97      1.0000 0.17041  0.19974  0.60098  Biso   1.000  O
  O98      1.0000 0.24496  0.17387  0.57400  Biso   1.000  O
  O99      1.0000 0.21446  0.20961  0.67684  Biso   1.000  O
  O100     1.0000 0.22300  0.15768  0.73050  Biso   1.000  O
  O101     1.0000 0.24640  0.81120  0.77010  Biso   1.000  O
  O102     1.0000 0.16750  0.79150  0.74450  Biso   1.000  O
  O103     1.0000 0.27126  0.79924  0.54338  Biso   1.000  O
  O104     1.0000 0.22370  0.83213  0.49353  Biso   1.000  O
  O105     1.0000 0.24461  0.32137  0.66860  Biso   1.000  O
  O106     1.0000 0.16702  0.30621  0.63820  Biso   1.000  O
  O107     1.0000 0.23169  0.30198  0.56756  Biso   1.000  O
  O108     1.0000 0.19629  0.35229  0.51964  Biso   1.000  O
  O109     1.0000 0.22750  0.70168  0.49086  Biso   1.000  O
  O110     1.0000 0.31050  0.69874  0.51178  Biso   1.000  O
  O111     1.0000 0.21447  0.67830  0.75371  Biso   1.000  O
  O112     1.0000 0.24600  0.61286  0.79272  Biso   1.000  O
  C265     1.0000 0.21200  0.11960  0.62510  Biso   1.000  C
  C266     1.0000 0.21460  0.11760  0.66713  Biso   1.000  C
  C267     1.0000 0.21460  0.06790  0.68548  Biso   1.000  C
  H121     1.0000 0.21520  0.06620  0.71380  Biso   1.000  H
  C268     1.0000 0.21370  0.02050  0.66394  Biso   1.000  C
  C269     1.0000 0.21400  0.02260  0.62230  Biso   1.000  C
  C270     1.0000 0.21150  0.07250  0.60398  Biso   1.000  C
  H122     1.0000 0.20930  0.07410  0.57570  Biso   1.000  H
  C271     1.0000 0.20840  0.16810  0.59975  Biso   1.000  C
  C272     1.0000 0.21670  0.16330  0.69402  Biso   1.000  C
  C273     1.0000 0.21100  0.97020  0.68720  Biso   1.000  C
  C274     1.0000 0.24790  0.95990  0.71730  Biso   1.000  C
  H123     1.0000 0.27380  0.98550  0.72430  Biso   1.000  H
  C275     1.0000 0.24580  0.91080  0.73710  Biso   1.000  C
  H124     1.0000 0.27120  0.90300  0.75710  Biso   1.000  H
  C276     1.0000 0.20790  0.87430  0.72800  Biso   1.000  C
  C277     1.0000 0.17070  0.88410  0.69920  Biso   1.000  C
  H125     1.0000 0.14440  0.85850  0.69340  Biso   1.000  H
  C278     1.0000 0.17200  0.93350  0.67780  Biso   1.000  C
  H126     1.0000 0.14670  0.94090  0.65770  Biso   1.000  H
  C279     1.0000 0.20780  0.82090  0.74870  Biso   1.000  C
  C280     1.0000 0.22020  0.97510  0.59747  Biso   1.000  C
  C281     1.0000 0.26160  0.93950  0.60680  Biso   1.000  C
  H127     1.0000 0.28420  0.94640  0.62880  Biso   1.000  H
  C282     1.0000 0.26900  0.89480  0.58400  Biso   1.000  C
  H128     1.0000 0.29660  0.87090  0.59020  Biso   1.000  H
  C283     1.0000 0.23590  0.88490  0.55183  Biso   1.000  C
  C284     1.0000 0.19690  0.92040  0.54140  Biso   1.000  C
  H129     1.0000 0.17630  0.91460  0.51810  Biso   1.000  H
  C285     1.0000 0.18780  0.96500  0.56510  Biso   1.000  C
  H130     1.0000 0.15950  0.98820  0.55900  Biso   1.000  H
  C286     1.0000 0.24450  0.83460  0.52750  Biso   1.000  C
  C287     1.0000 0.21380  0.38290  0.62298  Biso   1.000  C
  C288     1.0000 0.21350  0.39130  0.58214  Biso   1.000  C
  C289     1.0000 0.21660  0.44190  0.56726  Biso   1.000  C
  H131     1.0000 0.21530  0.44700  0.53920  Biso   1.000  H
  C290     1.0000 0.22140  0.48530  0.59175  Biso   1.000  C
  C291     1.0000 0.22300  0.47930  0.63380  Biso   1.000  C
  C292     1.0000 0.21760  0.42760  0.64860  Biso   1.000  C
  H132     1.0000 0.21640  0.42230  0.67670  Biso   1.000  H
  C293     1.0000 0.20870  0.33206  0.64427  Biso   1.000  C
  C294     1.0000 0.21330  0.34494  0.55425  Biso   1.000  C
  C295     1.0000 0.23200  0.53800  0.57245  Biso   1.000  C
  C296     1.0000 0.27620  0.56730  0.58150  Biso   1.000  C
  H133     1.0000 0.29990  0.55570  0.60170  Biso   1.000  H
  C297     1.0000 0.28590  0.61310  0.56121  Biso   1.000  C
  H134     1.0000 0.31680  0.63280  0.56730  Biso   1.000  H
  C298     1.0000 0.25190  0.63150  0.53205  Biso   1.000  C
  C299     1.0000 0.20630  0.60360  0.52390  Biso   1.000  C
  H135     1.0000 0.18170  0.61710  0.50510  Biso   1.000  H
  C300     1.0000 0.19640  0.55620  0.54290  Biso   1.000  C
  H136     1.0000 0.16600  0.53600  0.53630  Biso   1.000  H
  C301     1.0000 0.26420  0.68190  0.51067  Biso   1.000  C
  C302     1.0000 0.22610  0.52180  0.66354  Biso   1.000  C
  C303     1.0000 0.25730  0.51200  0.69680  Biso   1.000  C
  H137     1.0000 0.27710  0.48020  0.69840  Biso   1.000  H
  C304     1.0000 0.25980  0.54860  0.72799  Biso   1.000  C
  H138     1.0000 0.28220  0.54240  0.75030  Biso   1.000  H
  C305     1.0000 0.22900  0.59440  0.72603  Biso   1.000  C
  C306     1.0000 0.19760  0.60380  0.69180  Biso   1.000  C
  H139     1.0000 0.17730  0.63520  0.69000  Biso   1.000  H
  C307     1.0000 0.19630  0.56760  0.66120  Biso   1.000  C
  H140     1.0000 0.17500  0.57410  0.63830  Biso   1.000  H
  C308     1.0000 0.22920  0.63150  0.76057  Biso   1.000  C
  Zn19     1.0000 0.73818  0.76909  0.21145  Biso   1.000  Zn
  Zn20     1.0000 0.73111  0.73572  0.03839  Biso   1.000  Zn
  Co12     1.0000 0.84563  0.26576  0.03499  Biso   1.000  Co
  O113     1.0000 0.67041  0.69974  0.10098  Biso   1.000  O
  O114     1.0000 0.74496  0.67387  0.07400  Biso   1.000  O
  O115     1.0000 0.71446  0.70961  0.17684  Biso   1.000  O
  O116     1.0000 0.72300  0.65768  0.23050  Biso   1.000  O
  O117     1.0000 0.74640  0.31120  0.27010  Biso   1.000  O
  O118     1.0000 0.66750  0.29150  0.24450  Biso   1.000  O
  O119     1.0000 0.77126  0.29924  0.04338  Biso   1.000  O
  O120     1.0000 0.72370  0.33213  0.99353  Biso   1.000  O
  O121     1.0000 0.74461  0.82137  0.16860  Biso   1.000  O
  O122     1.0000 0.66702  0.80621  0.13820  Biso   1.000  O
  O123     1.0000 0.73169  0.80198  0.06756  Biso   1.000  O
  O124     1.0000 0.69629  0.85229  0.01964  Biso   1.000  O
  O125     1.0000 0.72750  0.20168  0.99086  Biso   1.000  O
  O126     1.0000 0.81050  0.19874  0.01178  Biso   1.000  O
  O127     1.0000 0.71447  0.17830  0.25371  Biso   1.000  O
  O128     1.0000 0.74600  0.11286  0.29272  Biso   1.000  O
  C309     1.0000 0.71200  0.61960  0.12510  Biso   1.000  C
  C310     1.0000 0.71460  0.61760  0.16713  Biso   1.000  C
  C311     1.0000 0.71460  0.56790  0.18548  Biso   1.000  C
  H141     1.0000 0.71520  0.56620  0.21380  Biso   1.000  H
  C312     1.0000 0.71370  0.52050  0.16394  Biso   1.000  C
  C313     1.0000 0.71400  0.52260  0.12230  Biso   1.000  C
  C314     1.0000 0.71150  0.57250  0.10398  Biso   1.000  C
  H142     1.0000 0.70930  0.57410  0.07570  Biso   1.000  H
  C315     1.0000 0.70840  0.66810  0.09975  Biso   1.000  C
  C316     1.0000 0.71670  0.66330  0.19402  Biso   1.000  C
  C317     1.0000 0.71100  0.47020  0.18720  Biso   1.000  C
  C318     1.0000 0.74790  0.45990  0.21730  Biso   1.000  C
  H143     1.0000 0.77380  0.48550  0.22430  Biso   1.000  H
  C319     1.0000 0.74580  0.41080  0.23710  Biso   1.000  C
  H144     1.0000 0.77120  0.40300  0.25710  Biso   1.000  H
  C320     1.0000 0.70790  0.37430  0.22800  Biso   1.000  C
  C321     1.0000 0.67070  0.38410  0.19920  Biso   1.000  C
  H145     1.0000 0.64440  0.35850  0.19340  Biso   1.000  H
  C322     1.0000 0.67200  0.43350  0.17780  Biso   1.000  C
  H146     1.0000 0.64670  0.44090  0.15770  Biso   1.000  H
  C323     1.0000 0.70780  0.32090  0.24870  Biso   1.000  C
  C324     1.0000 0.72020  0.47510  0.09747  Biso   1.000  C
  C325     1.0000 0.76160  0.43950  0.10680  Biso   1.000  C
  H147     1.0000 0.78420  0.44640  0.12880  Biso   1.000  H
  C326     1.0000 0.76900  0.39480  0.08400  Biso   1.000  C
  H148     1.0000 0.79660  0.37090  0.09020  Biso   1.000  H
  C327     1.0000 0.73590  0.38490  0.05183  Biso   1.000  C
  C328     1.0000 0.69690  0.42040  0.04140  Biso   1.000  C
  H149     1.0000 0.67630  0.41460  0.01810  Biso   1.000  H
  C329     1.0000 0.68780  0.46500  0.06510  Biso   1.000  C
  H150     1.0000 0.65950  0.48820  0.05900  Biso   1.000  H
  C330     1.0000 0.74450  0.33460  0.02750  Biso   1.000  C
  C331     1.0000 0.71380  0.88290  0.12298  Biso   1.000  C
  C332     1.0000 0.71350  0.89130  0.08214  Biso   1.000  C
  C333     1.0000 0.71660  0.94190  0.06726  Biso   1.000  C
  H151     1.0000 0.71530  0.94700  0.03920  Biso   1.000  H
  C334     1.0000 0.72140  0.98530  0.09175  Biso   1.000  C
  C335     1.0000 0.72300  0.97930  0.13380  Biso   1.000  C
  C336     1.0000 0.71760  0.92760  0.14860  Biso   1.000  C
  H152     1.0000 0.71640  0.92230  0.17670  Biso   1.000  H
  C337     1.0000 0.70870  0.83206  0.14427  Biso   1.000  C
  C338     1.0000 0.71330  0.84494  0.05425  Biso   1.000  C
  C339     1.0000 0.73200  0.03800  0.07245  Biso   1.000  C
  C340     1.0000 0.77620  0.06730  0.08150  Biso   1.000  C
  H153     1.0000 0.79990  0.05570  0.10170  Biso   1.000  H
  C341     1.0000 0.78590  0.11310  0.06121  Biso   1.000  C
  H154     1.0000 0.81680  0.13280  0.06730  Biso   1.000  H
  C342     1.0000 0.75190  0.13150  0.03205  Biso   1.000  C
  C343     1.0000 0.70630  0.10360  0.02390  Biso   1.000  C
  H155     1.0000 0.68170  0.11710  0.00510  Biso   1.000  H
  C344     1.0000 0.69640  0.05620  0.04290  Biso   1.000  C
  H156     1.0000 0.66600  0.03600  0.03630  Biso   1.000  H
  C345     1.0000 0.76420  0.18190  0.01067  Biso   1.000  C
  C346     1.0000 0.72610  0.02180  0.16354  Biso   1.000  C
  C347     1.0000 0.75730  0.01200  0.19680  Biso   1.000  C
  H157     1.0000 0.77710  0.98020  0.19840  Biso   1.000  H
  C348     1.0000 0.75980  0.04860  0.22799  Biso   1.000  C
  H158     1.0000 0.78220  0.04240  0.25030  Biso   1.000  H
  C349     1.0000 0.72900  0.09440  0.22603  Biso   1.000  C
  C350     1.0000 0.69760  0.10380  0.19180  Biso   1.000  C
  H159     1.0000 0.67730  0.13520  0.19000  Biso   1.000  H
  C351     1.0000 0.69630  0.06760  0.16120  Biso   1.000  C
  H160     1.0000 0.67500  0.07410  0.13830  Biso   1.000  H
  C352     1.0000 0.72920  0.13150  0.26057  Biso   1.000  C
