data_image0
_cell_length_a       35.9978
_cell_length_b       35.9978
_cell_length_c       9.9081
_cell_angle_alpha    90
_cell_angle_beta     90
_cell_angle_gamma    90

_symmetry_space_group_name_H-M    "P 1"
_symmetry_int_tables_number       1

loop_
  _symmetry_equiv_pos_as_xyz
  'x, y, z'

loop_
  _atom_site_label
  _atom_site_occupancy
  _atom_site_fract_x
  _atom_site_fract_y
  _atom_site_fract_z
  _atom_site_thermal_displace_type
  _atom_site_B_iso_or_equiv
  _atom_site_type_symbol
  N1       1.0000 0.05269  0.03764  0.04640  Biso   1.000  N
  N2       1.0000 0.05489  0.04872  0.17960  Biso   1.000  N
  C1       1.0000 0.08055  0.05472  0.98920  Biso   1.000  C
  H1       1.0000 0.08610  0.05220  0.89800  Biso   1.000  H
  C2       1.0000 0.08366  0.07109  0.19180  Biso   1.000  C
  H2       1.0000 0.09120  0.08180  0.27270  Biso   1.000  H
  N3       1.0000 0.10064  0.07647  0.07350  Biso   1.000  N
  N4       1.0000 0.97314  0.03745  0.11310  Biso   1.000  N
  N5       1.0000 0.98715  0.05031  0.23160  Biso   1.000  N
  C3       1.0000 0.94150  0.05419  0.09850  Biso   1.000  C
  H3       1.0000 0.92600  0.05040  0.02480  Biso   1.000  H
  C4       1.0000 0.96272  0.07404  0.28020  Biso   1.000  C
  H4       1.0000 0.96560  0.08690  0.36110  Biso   1.000  H
  N6       1.0000 0.93330  0.07748  0.19950  Biso   1.000  N
  N7       1.0000 0.01412  0.97365  0.17800  Biso   1.000  N
  N8       1.0000 0.02421  0.99427  0.28820  Biso   1.000  N
  C5       1.0000 0.01670  0.93938  0.22110  Biso   1.000  C
  H5       1.0000 0.01100  0.91910  0.16680  Biso   1.000  H
  C6       1.0000 0.03259  0.97069  0.38760  Biso   1.000  C
  H6       1.0000 0.04050  0.97780  0.47310  Biso   1.000  H
  N9       1.0000 0.02807  0.93564  0.34860  Biso   1.000  N
  B1       1.0000 0.02550  0.03665  0.28370  Biso   1.000  B
  H7       1.0000 0.03100  0.04700  0.37300  Biso   1.000  H
  Mn1      1.0000 0.13631  0.12910  0.05550  Biso   1.000  Mn
  N10      1.0000 0.12722  0.13264  0.85890  Biso   1.000  N
  C7       1.0000 0.09600  0.13970  0.80490  Biso   1.000  C
  H8       1.0000 0.09470  0.13900  0.71120  Biso   1.000  H
  C8       1.0000 0.06270  0.14880  0.87670  Biso   1.000  C
  C9       1.0000 0.02900  0.15050  0.80220  Biso   1.000  C
  H9       1.0000 0.02870  0.14680  0.70930  Biso   1.000  H
  C10      1.0000 0.99650  0.15780  0.87200  Biso   1.000  C
  H10      1.0000 0.97420  0.15850  0.82470  Biso   1.000  H
  C11      1.0000 0.99580  0.16400  0.00800  Biso   1.000  C
  H11      1.0000 0.97340  0.16930  0.05100  Biso   1.000  H
  C12      1.0000 0.02810  0.16260  0.07970  Biso   1.000  C
  H12      1.0000 0.02750  0.16660  0.17240  Biso   1.000  H
  C13      1.0000 0.06180  0.15520  0.01670  Biso   1.000  C
  O1       1.0000 0.09271  0.15567  0.09230  Biso   1.000  O
  N11      1.0000 0.18045  0.10064  0.99390  Biso   1.000  N
  C14      1.0000 0.20709  0.08930  0.07020  Biso   1.000  C
  H13      1.0000 0.22640  0.07660  0.02850  Biso   1.000  H
  C15      1.0000 0.20980  0.09430  0.21380  Biso   1.000  C
  C16      1.0000 0.24260  0.08460  0.27750  Biso   1.000  C
  H14      1.0000 0.26130  0.07310  0.22790  Biso   1.000  H
  C17      1.0000 0.24820  0.09150  0.41280  Biso   1.000  C
  H15      1.0000 0.27020  0.08460  0.45520  Biso   1.000  H
  C18      1.0000 0.22050  0.10880  0.48300  Biso   1.000  C
  H16      1.0000 0.22390  0.11380  0.57430  Biso   1.000  H
  C19      1.0000 0.18840  0.11880  0.42340  Biso   1.000  C
  H17      1.0000 0.17020  0.13050  0.47470  Biso   1.000  H
  C20      1.0000 0.18150  0.11200  0.28730  Biso   1.000  C
  O2       1.0000 0.14980  0.12374  0.23670  Biso   1.000  O
  C21      1.0000 0.16030  0.12330  0.78020  Biso   1.000  C
  H18      1.0000 0.17640  0.14480  0.77300  Biso   1.000  H
  H19      1.0000 0.15320  0.11570  0.68990  Biso   1.000  H
  C22      1.0000 0.18050  0.09250  0.84840  Biso   1.000  C
  H20      1.0000 0.16810  0.06900  0.83110  Biso   1.000  H
  H21      1.0000 0.20570  0.09090  0.81500  Biso   1.000  H
  N12      1.0000 0.55269  0.53764  0.54640  Biso   1.000  N
  N13      1.0000 0.55489  0.54872  0.67960  Biso   1.000  N
  C23      1.0000 0.58055  0.55472  0.48920  Biso   1.000  C
  H22      1.0000 0.58610  0.55220  0.39800  Biso   1.000  H
  C24      1.0000 0.58366  0.57109  0.69180  Biso   1.000  C
  H23      1.0000 0.59120  0.58180  0.77270  Biso   1.000  H
  N14      1.0000 0.60064  0.57647  0.57350  Biso   1.000  N
  N15      1.0000 0.47314  0.53745  0.61310  Biso   1.000  N
  N16      1.0000 0.48715  0.55031  0.73160  Biso   1.000  N
  C25      1.0000 0.44150  0.55419  0.59850  Biso   1.000  C
  H24      1.0000 0.42600  0.55040  0.52480  Biso   1.000  H
  C26      1.0000 0.46272  0.57404  0.78020  Biso   1.000  C
  H25      1.0000 0.46560  0.58690  0.86110  Biso   1.000  H
  N17      1.0000 0.43330  0.57748  0.69950  Biso   1.000  N
  N18      1.0000 0.51412  0.47365  0.67800  Biso   1.000  N
  N19      1.0000 0.52421  0.49427  0.78820  Biso   1.000  N
  C27      1.0000 0.51670  0.43938  0.72110  Biso   1.000  C
  H26      1.0000 0.51100  0.41910  0.66680  Biso   1.000  H
  C28      1.0000 0.53259  0.47069  0.88760  Biso   1.000  C
  H27      1.0000 0.54050  0.47780  0.97310  Biso   1.000  H
  N20      1.0000 0.52807  0.43564  0.84860  Biso   1.000  N
  B2       1.0000 0.52550  0.53665  0.78370  Biso   1.000  B
  H28      1.0000 0.53100  0.54700  0.87300  Biso   1.000  H
  Mn2      1.0000 0.63631  0.62910  0.55550  Biso   1.000  Mn
  N21      1.0000 0.62722  0.63264  0.35890  Biso   1.000  N
  C29      1.0000 0.59600  0.63970  0.30490  Biso   1.000  C
  H29      1.0000 0.59470  0.63900  0.21120  Biso   1.000  H
  C30      1.0000 0.56270  0.64880  0.37670  Biso   1.000  C
  C31      1.0000 0.52900  0.65050  0.30220  Biso   1.000  C
  H30      1.0000 0.52870  0.64680  0.20930  Biso   1.000  H
  C32      1.0000 0.49650  0.65780  0.37200  Biso   1.000  C
  H31      1.0000 0.47420  0.65850  0.32470  Biso   1.000  H
  C33      1.0000 0.49580  0.66400  0.50800  Biso   1.000  C
  H32      1.0000 0.47340  0.66930  0.55100  Biso   1.000  H
  C34      1.0000 0.52810  0.66260  0.57970  Biso   1.000  C
  H33      1.0000 0.52750  0.66660  0.67240  Biso   1.000  H
  C35      1.0000 0.56180  0.65520  0.51670  Biso   1.000  C
  O3       1.0000 0.59271  0.65567  0.59230  Biso   1.000  O
  N22      1.0000 0.68045  0.60064  0.49390  Biso   1.000  N
  C36      1.0000 0.70709  0.58930  0.57020  Biso   1.000  C
  H34      1.0000 0.72640  0.57660  0.52850  Biso   1.000  H
  C37      1.0000 0.70980  0.59430  0.71380  Biso   1.000  C
  C38      1.0000 0.74260  0.58460  0.77750  Biso   1.000  C
  H35      1.0000 0.76130  0.57310  0.72790  Biso   1.000  H
  C39      1.0000 0.74820  0.59150  0.91280  Biso   1.000  C
  H36      1.0000 0.77020  0.58460  0.95520  Biso   1.000  H
  C40      1.0000 0.72050  0.60880  0.98300  Biso   1.000  C
  H37      1.0000 0.72390  0.61380  0.07430  Biso   1.000  H
  C41      1.0000 0.68840  0.61880  0.92340  Biso   1.000  C
  H38      1.0000 0.67020  0.63050  0.97470  Biso   1.000  H
  C42      1.0000 0.68150  0.61200  0.78730  Biso   1.000  C
  O4       1.0000 0.64980  0.62374  0.73670  Biso   1.000  O
  C43      1.0000 0.66030  0.62330  0.28020  Biso   1.000  C
  H39      1.0000 0.67640  0.64480  0.27300  Biso   1.000  H
  H40      1.0000 0.65320  0.61570  0.18990  Biso   1.000  H
  C44      1.0000 0.68050  0.59250  0.34840  Biso   1.000  C
  H41      1.0000 0.66810  0.56900  0.33110  Biso   1.000  H
  H42      1.0000 0.70570  0.59090  0.31500  Biso   1.000  H
  N23      1.0000 0.44731  0.96236  0.54640  Biso   1.000  N
  N24      1.0000 0.44511  0.95128  0.67960  Biso   1.000  N
  C45      1.0000 0.41945  0.94528  0.48920  Biso   1.000  C
  H43      1.0000 0.41390  0.94780  0.39800  Biso   1.000  H
  C46      1.0000 0.41634  0.92891  0.69180  Biso   1.000  C
  H44      1.0000 0.40880  0.91820  0.77270  Biso   1.000  H
  N25      1.0000 0.39936  0.92353  0.57350  Biso   1.000  N
  N26      1.0000 0.52686  0.96255  0.61310  Biso   1.000  N
  N27      1.0000 0.51285  0.94969  0.73160  Biso   1.000  N
  C47      1.0000 0.55850  0.94581  0.59850  Biso   1.000  C
  H45      1.0000 0.57400  0.94960  0.52480  Biso   1.000  H
  C48      1.0000 0.53728  0.92596  0.78020  Biso   1.000  C
  H46      1.0000 0.53440  0.91310  0.86110  Biso   1.000  H
  N28      1.0000 0.56670  0.92252  0.69950  Biso   1.000  N
  N29      1.0000 0.48588  0.02635  0.67800  Biso   1.000  N
  N30      1.0000 0.47579  0.00573  0.78820  Biso   1.000  N
  C49      1.0000 0.48330  0.06062  0.72110  Biso   1.000  C
  H47      1.0000 0.48900  0.08090  0.66680  Biso   1.000  H
  C50      1.0000 0.46741  0.02931  0.88760  Biso   1.000  C
  H48      1.0000 0.45950  0.02220  0.97310  Biso   1.000  H
  N31      1.0000 0.47193  0.06436  0.84860  Biso   1.000  N
  B3       1.0000 0.47450  0.96335  0.78370  Biso   1.000  B
  H49      1.0000 0.46900  0.95300  0.87300  Biso   1.000  H
  Mn3      1.0000 0.36369  0.87090  0.55550  Biso   1.000  Mn
  N32      1.0000 0.37278  0.86736  0.35890  Biso   1.000  N
  C51      1.0000 0.40400  0.86030  0.30490  Biso   1.000  C
  H50      1.0000 0.40530  0.86100  0.21120  Biso   1.000  H
  C52      1.0000 0.43730  0.85120  0.37670  Biso   1.000  C
  C53      1.0000 0.47100  0.84950  0.30220  Biso   1.000  C
  H51      1.0000 0.47130  0.85320  0.20930  Biso   1.000  H
  C54      1.0000 0.50350  0.84220  0.37200  Biso   1.000  C
  H52      1.0000 0.52580  0.84150  0.32470  Biso   1.000  H
  C55      1.0000 0.50420  0.83600  0.50800  Biso   1.000  C
  H53      1.0000 0.52660  0.83070  0.55100  Biso   1.000  H
  C56      1.0000 0.47190  0.83740  0.57970  Biso   1.000  C
  H54      1.0000 0.47250  0.83340  0.67240  Biso   1.000  H
  C57      1.0000 0.43820  0.84480  0.51670  Biso   1.000  C
  O5       1.0000 0.40729  0.84433  0.59230  Biso   1.000  O
  N33      1.0000 0.31955  0.89936  0.49390  Biso   1.000  N
  C58      1.0000 0.29291  0.91070  0.57020  Biso   1.000  C
  H55      1.0000 0.27360  0.92340  0.52850  Biso   1.000  H
  C59      1.0000 0.29020  0.90570  0.71380  Biso   1.000  C
  C60      1.0000 0.25740  0.91540  0.77750  Biso   1.000  C
  H56      1.0000 0.23870  0.92690  0.72790  Biso   1.000  H
  C61      1.0000 0.25180  0.90850  0.91280  Biso   1.000  C
  H57      1.0000 0.22980  0.91540  0.95520  Biso   1.000  H
  C62      1.0000 0.27950  0.89120  0.98300  Biso   1.000  C
  H58      1.0000 0.27610  0.88620  0.07430  Biso   1.000  H
  C63      1.0000 0.31160  0.88120  0.92340  Biso   1.000  C
  H59      1.0000 0.32980  0.86950  0.97470  Biso   1.000  H
  C64      1.0000 0.31850  0.88800  0.78730  Biso   1.000  C
  O6       1.0000 0.35020  0.87626  0.73670  Biso   1.000  O
  C65      1.0000 0.33970  0.87670  0.28020  Biso   1.000  C
  H60      1.0000 0.32360  0.85520  0.27300  Biso   1.000  H
  H61      1.0000 0.34680  0.88430  0.18990  Biso   1.000  H
  C66      1.0000 0.31950  0.90750  0.34840  Biso   1.000  C
  H62      1.0000 0.33190  0.93100  0.33110  Biso   1.000  H
  H63      1.0000 0.29430  0.90910  0.31500  Biso   1.000  H
  N34      1.0000 0.94731  0.46236  0.04640  Biso   1.000  N
  N35      1.0000 0.94511  0.45128  0.17960  Biso   1.000  N
  C67      1.0000 0.91945  0.44528  0.98920  Biso   1.000  C
  H64      1.0000 0.91390  0.44780  0.89800  Biso   1.000  H
  C68      1.0000 0.91634  0.42891  0.19180  Biso   1.000  C
  H65      1.0000 0.90880  0.41820  0.27270  Biso   1.000  H
  N36      1.0000 0.89936  0.42353  0.07350  Biso   1.000  N
  N37      1.0000 0.02686  0.46255  0.11310  Biso   1.000  N
  N38      1.0000 0.01285  0.44969  0.23160  Biso   1.000  N
  C69      1.0000 0.05850  0.44581  0.09850  Biso   1.000  C
  H66      1.0000 0.07400  0.44960  0.02480  Biso   1.000  H
  C70      1.0000 0.03728  0.42596  0.28020  Biso   1.000  C
  H67      1.0000 0.03440  0.41310  0.36110  Biso   1.000  H
  N39      1.0000 0.06670  0.42252  0.19950  Biso   1.000  N
  N40      1.0000 0.98588  0.52635  0.17800  Biso   1.000  N
  N41      1.0000 0.97579  0.50573  0.28820  Biso   1.000  N
  C71      1.0000 0.98330  0.56062  0.22110  Biso   1.000  C
  H68      1.0000 0.98900  0.58090  0.16680  Biso   1.000  H
  C72      1.0000 0.96741  0.52931  0.38760  Biso   1.000  C
  H69      1.0000 0.95950  0.52220  0.47310  Biso   1.000  H
  N42      1.0000 0.97193  0.56436  0.34860  Biso   1.000  N
  B4       1.0000 0.97450  0.46335  0.28370  Biso   1.000  B
  H70      1.0000 0.96900  0.45300  0.37300  Biso   1.000  H
  Mn4      1.0000 0.86369  0.37090  0.05550  Biso   1.000  Mn
  N43      1.0000 0.87278  0.36736  0.85890  Biso   1.000  N
  C73      1.0000 0.90400  0.36030  0.80490  Biso   1.000  C
  H71      1.0000 0.90530  0.36100  0.71120  Biso   1.000  H
  C74      1.0000 0.93730  0.35120  0.87670  Biso   1.000  C
  C75      1.0000 0.97100  0.34950  0.80220  Biso   1.000  C
  H72      1.0000 0.97130  0.35320  0.70930  Biso   1.000  H
  C76      1.0000 0.00350  0.34220  0.87200  Biso   1.000  C
  H73      1.0000 0.02580  0.34150  0.82470  Biso   1.000  H
  C77      1.0000 0.00420  0.33600  0.00800  Biso   1.000  C
  H74      1.0000 0.02660  0.33070  0.05100  Biso   1.000  H
  C78      1.0000 0.97190  0.33740  0.07970  Biso   1.000  C
  H75      1.0000 0.97250  0.33340  0.17240  Biso   1.000  H
  C79      1.0000 0.93820  0.34480  0.01670  Biso   1.000  C
  O7       1.0000 0.90729  0.34433  0.09230  Biso   1.000  O
  N44      1.0000 0.81955  0.39936  0.99390  Biso   1.000  N
  C80      1.0000 0.79291  0.41070  0.07020  Biso   1.000  C
  H76      1.0000 0.77360  0.42340  0.02850  Biso   1.000  H
  C81      1.0000 0.79020  0.40570  0.21380  Biso   1.000  C
  C82      1.0000 0.75740  0.41540  0.27750  Biso   1.000  C
  H77      1.0000 0.73870  0.42690  0.22790  Biso   1.000  H
  C83      1.0000 0.75180  0.40850  0.41280  Biso   1.000  C
  H78      1.0000 0.72980  0.41540  0.45520  Biso   1.000  H
  C84      1.0000 0.77950  0.39120  0.48300  Biso   1.000  C
  H79      1.0000 0.77610  0.38620  0.57430  Biso   1.000  H
  C85      1.0000 0.81160  0.38120  0.42340  Biso   1.000  C
  H80      1.0000 0.82980  0.36950  0.47470  Biso   1.000  H
  C86      1.0000 0.81850  0.38800  0.28730  Biso   1.000  C
  O8       1.0000 0.85020  0.37626  0.23670  Biso   1.000  O
  C87      1.0000 0.83970  0.37670  0.78020  Biso   1.000  C
  H81      1.0000 0.82360  0.35520  0.77300  Biso   1.000  H
  H82      1.0000 0.84680  0.38430  0.68990  Biso   1.000  H
  C88      1.0000 0.81950  0.40750  0.84840  Biso   1.000  C
  H83      1.0000 0.83190  0.43100  0.83110  Biso   1.000  H
  H84      1.0000 0.79430  0.40910  0.81500  Biso   1.000  H
  N45      1.0000 0.71236  0.30269  0.29640  Biso   1.000  N
  N46      1.0000 0.70128  0.30489  0.42960  Biso   1.000  N
  C89      1.0000 0.69528  0.33055  0.23920  Biso   1.000  C
  H85      1.0000 0.69780  0.33610  0.14800  Biso   1.000  H
  C90      1.0000 0.67891  0.33366  0.44180  Biso   1.000  C
  H86      1.0000 0.66820  0.34120  0.52270  Biso   1.000  H
  N47      1.0000 0.67353  0.35064  0.32350  Biso   1.000  N
  N48      1.0000 0.71255  0.22314  0.36310  Biso   1.000  N
  N49      1.0000 0.69969  0.23715  0.48160  Biso   1.000  N
  C91      1.0000 0.69581  0.19150  0.34850  Biso   1.000  C
  H87      1.0000 0.69960  0.17600  0.27480  Biso   1.000  H
  C92      1.0000 0.67596  0.21272  0.53020  Biso   1.000  C
  H88      1.0000 0.66310  0.21560  0.61110  Biso   1.000  H
  N50      1.0000 0.67252  0.18330  0.44950  Biso   1.000  N
  N51      1.0000 0.77635  0.26412  0.42800  Biso   1.000  N
  N52      1.0000 0.75573  0.27421  0.53820  Biso   1.000  N
  C93      1.0000 0.81062  0.26670  0.47110  Biso   1.000  C
  H89      1.0000 0.83090  0.26100  0.41680  Biso   1.000  H
  C94      1.0000 0.77931  0.28259  0.63760  Biso   1.000  C
  H90      1.0000 0.77220  0.29050  0.72310  Biso   1.000  H
  N53      1.0000 0.81436  0.27807  0.59860  Biso   1.000  N
  B5       1.0000 0.71335  0.27550  0.53370  Biso   1.000  B
  H91      1.0000 0.70300  0.28100  0.62300  Biso   1.000  H
  Mn5      1.0000 0.62090  0.38631  0.30550  Biso   1.000  Mn
  N54      1.0000 0.61736  0.37722  0.10890  Biso   1.000  N
  C95      1.0000 0.61030  0.34600  0.05490  Biso   1.000  C
  H92      1.0000 0.61100  0.34470  0.96120  Biso   1.000  H
  C96      1.0000 0.60120  0.31270  0.12670  Biso   1.000  C
  C97      1.0000 0.59950  0.27900  0.05220  Biso   1.000  C
  H93      1.0000 0.60320  0.27870  0.95930  Biso   1.000  H
  C98      1.0000 0.59220  0.24650  0.12200  Biso   1.000  C
  H94      1.0000 0.59150  0.22420  0.07470  Biso   1.000  H
  C99      1.0000 0.58600  0.24580  0.25800  Biso   1.000  C
  H95      1.0000 0.58070  0.22340  0.30100  Biso   1.000  H
  C100     1.0000 0.58740  0.27810  0.32970  Biso   1.000  C
  H96      1.0000 0.58340  0.27750  0.42240  Biso   1.000  H
  C101     1.0000 0.59480  0.31180  0.26670  Biso   1.000  C
  O9       1.0000 0.59433  0.34271  0.34230  Biso   1.000  O
  N55      1.0000 0.64936  0.43045  0.24390  Biso   1.000  N
  C102     1.0000 0.66070  0.45709  0.32020  Biso   1.000  C
  H97      1.0000 0.67340  0.47640  0.27850  Biso   1.000  H
  C103     1.0000 0.65570  0.45980  0.46380  Biso   1.000  C
  C104     1.0000 0.66540  0.49260  0.52750  Biso   1.000  C
  H98      1.0000 0.67690  0.51130  0.47790  Biso   1.000  H
  C105     1.0000 0.65850  0.49820  0.66280  Biso   1.000  C
  H99      1.0000 0.66540  0.52020  0.70520  Biso   1.000  H
  C106     1.0000 0.64120  0.47050  0.73300  Biso   1.000  C
  H100     1.0000 0.63620  0.47390  0.82430  Biso   1.000  H
  C107     1.0000 0.63120  0.43840  0.67340  Biso   1.000  C
  H101     1.0000 0.61950  0.42020  0.72470  Biso   1.000  H
  C108     1.0000 0.63800  0.43150  0.53730  Biso   1.000  C
  O10      1.0000 0.62626  0.39980  0.48670  Biso   1.000  O
  C109     1.0000 0.62670  0.41030  0.03020  Biso   1.000  C
  H102     1.0000 0.60520  0.42640  0.02300  Biso   1.000  H
  H103     1.0000 0.63430  0.40320  0.93990  Biso   1.000  H
  C110     1.0000 0.65750  0.43050  0.09840  Biso   1.000  C
  H104     1.0000 0.68100  0.41810  0.08110  Biso   1.000  H
  H105     1.0000 0.65910  0.45570  0.06500  Biso   1.000  H
  N56      1.0000 0.21236  0.80269  0.79640  Biso   1.000  N
  N57      1.0000 0.20128  0.80489  0.92960  Biso   1.000  N
  C111     1.0000 0.19528  0.83055  0.73920  Biso   1.000  C
  H106     1.0000 0.19780  0.83610  0.64800  Biso   1.000  H
  C112     1.0000 0.17891  0.83366  0.94180  Biso   1.000  C
  H107     1.0000 0.16820  0.84120  0.02270  Biso   1.000  H
  N58      1.0000 0.17353  0.85064  0.82350  Biso   1.000  N
  N59      1.0000 0.21255  0.72314  0.86310  Biso   1.000  N
  N60      1.0000 0.19969  0.73715  0.98160  Biso   1.000  N
  C113     1.0000 0.19581  0.69150  0.84850  Biso   1.000  C
  H108     1.0000 0.19960  0.67600  0.77480  Biso   1.000  H
  C114     1.0000 0.17596  0.71272  0.03020  Biso   1.000  C
  H109     1.0000 0.16310  0.71560  0.11110  Biso   1.000  H
  N61      1.0000 0.17252  0.68330  0.94950  Biso   1.000  N
  N62      1.0000 0.27635  0.76412  0.92800  Biso   1.000  N
  N63      1.0000 0.25573  0.77421  0.03820  Biso   1.000  N
  C115     1.0000 0.31062  0.76670  0.97110  Biso   1.000  C
  H110     1.0000 0.33090  0.76100  0.91680  Biso   1.000  H
  C116     1.0000 0.27931  0.78259  0.13760  Biso   1.000  C
  H111     1.0000 0.27220  0.79050  0.22310  Biso   1.000  H
  N64      1.0000 0.31436  0.77807  0.09860  Biso   1.000  N
  B6       1.0000 0.21335  0.77550  0.03370  Biso   1.000  B
  H112     1.0000 0.20300  0.78100  0.12300  Biso   1.000  H
  Mn6      1.0000 0.12090  0.88631  0.80550  Biso   1.000  Mn
  N65      1.0000 0.11736  0.87722  0.60890  Biso   1.000  N
  C117     1.0000 0.11030  0.84600  0.55490  Biso   1.000  C
  H113     1.0000 0.11100  0.84470  0.46120  Biso   1.000  H
  C118     1.0000 0.10120  0.81270  0.62670  Biso   1.000  C
  C119     1.0000 0.09950  0.77900  0.55220  Biso   1.000  C
  H114     1.0000 0.10320  0.77870  0.45930  Biso   1.000  H
  C120     1.0000 0.09220  0.74650  0.62200  Biso   1.000  C
  H115     1.0000 0.09150  0.72420  0.57470  Biso   1.000  H
  C121     1.0000 0.08600  0.74580  0.75800  Biso   1.000  C
  H116     1.0000 0.08070  0.72340  0.80100  Biso   1.000  H
  C122     1.0000 0.08740  0.77810  0.82970  Biso   1.000  C
  H117     1.0000 0.08340  0.77750  0.92240  Biso   1.000  H
  C123     1.0000 0.09480  0.81180  0.76670  Biso   1.000  C
  O11      1.0000 0.09433  0.84271  0.84230  Biso   1.000  O
  N66      1.0000 0.14936  0.93045  0.74390  Biso   1.000  N
  C124     1.0000 0.16070  0.95709  0.82020  Biso   1.000  C
  H118     1.0000 0.17340  0.97640  0.77850  Biso   1.000  H
  C125     1.0000 0.15570  0.95980  0.96380  Biso   1.000  C
  C126     1.0000 0.16540  0.99260  0.02750  Biso   1.000  C
  H119     1.0000 0.17690  0.01130  0.97790  Biso   1.000  H
  C127     1.0000 0.15850  0.99820  0.16280  Biso   1.000  C
  H120     1.0000 0.16540  0.02020  0.20520  Biso   1.000  H
  C128     1.0000 0.14120  0.97050  0.23300  Biso   1.000  C
  H121     1.0000 0.13620  0.97390  0.32430  Biso   1.000  H
  C129     1.0000 0.13120  0.93840  0.17340  Biso   1.000  C
  H122     1.0000 0.11950  0.92020  0.22470  Biso   1.000  H
  C130     1.0000 0.13800  0.93150  0.03730  Biso   1.000  C
  O12      1.0000 0.12626  0.89980  0.98670  Biso   1.000  O
  C131     1.0000 0.12670  0.91030  0.53020  Biso   1.000  C
  H123     1.0000 0.10520  0.92640  0.52300  Biso   1.000  H
  H124     1.0000 0.13430  0.90320  0.43990  Biso   1.000  H
  C132     1.0000 0.15750  0.93050  0.59840  Biso   1.000  C
  H125     1.0000 0.18100  0.91810  0.58110  Biso   1.000  H
  H126     1.0000 0.15910  0.95570  0.56500  Biso   1.000  H
  N67      1.0000 0.78764  0.69731  0.79640  Biso   1.000  N
  N68      1.0000 0.79872  0.69511  0.92960  Biso   1.000  N
  C133     1.0000 0.80472  0.66945  0.73920  Biso   1.000  C
  H127     1.0000 0.80220  0.66390  0.64800  Biso   1.000  H
  C134     1.0000 0.82109  0.66634  0.94180  Biso   1.000  C
  H128     1.0000 0.83180  0.65880  0.02270  Biso   1.000  H
  N69      1.0000 0.82647  0.64936  0.82350  Biso   1.000  N
  N70      1.0000 0.78745  0.77686  0.86310  Biso   1.000  N
  N71      1.0000 0.80031  0.76285  0.98160  Biso   1.000  N
  C135     1.0000 0.80419  0.80850  0.84850  Biso   1.000  C
  H129     1.0000 0.80040  0.82400  0.77480  Biso   1.000  H
  C136     1.0000 0.82404  0.78728  0.03020  Biso   1.000  C
  H130     1.0000 0.83690  0.78440  0.11110  Biso   1.000  H
  N72      1.0000 0.82748  0.81670  0.94950  Biso   1.000  N
  N73      1.0000 0.72365  0.73588  0.92800  Biso   1.000  N
  N74      1.0000 0.74427  0.72579  0.03820  Biso   1.000  N
  C137     1.0000 0.68938  0.73330  0.97110  Biso   1.000  C
  H131     1.0000 0.66910  0.73900  0.91680  Biso   1.000  H
  C138     1.0000 0.72069  0.71741  0.13760  Biso   1.000  C
  H132     1.0000 0.72780  0.70950  0.22310  Biso   1.000  H
  N75      1.0000 0.68564  0.72193  0.09860  Biso   1.000  N
  B7       1.0000 0.78665  0.72450  0.03370  Biso   1.000  B
  H133     1.0000 0.79700  0.71900  0.12300  Biso   1.000  H
  Mn7      1.0000 0.87910  0.61369  0.80550  Biso   1.000  Mn
  N76      1.0000 0.88264  0.62278  0.60890  Biso   1.000  N
  C139     1.0000 0.88970  0.65400  0.55490  Biso   1.000  C
  H134     1.0000 0.88900  0.65530  0.46120  Biso   1.000  H
  C140     1.0000 0.89880  0.68730  0.62670  Biso   1.000  C
  C141     1.0000 0.90050  0.72100  0.55220  Biso   1.000  C
  H135     1.0000 0.89680  0.72130  0.45930  Biso   1.000  H
  C142     1.0000 0.90780  0.75350  0.62200  Biso   1.000  C
  H136     1.0000 0.90850  0.77580  0.57470  Biso   1.000  H
  C143     1.0000 0.91400  0.75420  0.75800  Biso   1.000  C
  H137     1.0000 0.91930  0.77660  0.80100  Biso   1.000  H
  C144     1.0000 0.91260  0.72190  0.82970  Biso   1.000  C
  H138     1.0000 0.91660  0.72250  0.92240  Biso   1.000  H
  C145     1.0000 0.90520  0.68820  0.76670  Biso   1.000  C
  O13      1.0000 0.90567  0.65729  0.84230  Biso   1.000  O
  N77      1.0000 0.85064  0.56955  0.74390  Biso   1.000  N
  C146     1.0000 0.83930  0.54291  0.82020  Biso   1.000  C
  H139     1.0000 0.82660  0.52360  0.77850  Biso   1.000  H
  C147     1.0000 0.84430  0.54020  0.96380  Biso   1.000  C
  C148     1.0000 0.83460  0.50740  0.02750  Biso   1.000  C
  H140     1.0000 0.82310  0.48870  0.97790  Biso   1.000  H
  C149     1.0000 0.84150  0.50180  0.16280  Biso   1.000  C
  H141     1.0000 0.83460  0.47980  0.20520  Biso   1.000  H
  C150     1.0000 0.85880  0.52950  0.23300  Biso   1.000  C
  H142     1.0000 0.86380  0.52610  0.32430  Biso   1.000  H
  C151     1.0000 0.86880  0.56160  0.17340  Biso   1.000  C
  H143     1.0000 0.88050  0.57980  0.22470  Biso   1.000  H
  C152     1.0000 0.86200  0.56850  0.03730  Biso   1.000  C
  O14      1.0000 0.87374  0.60020  0.98670  Biso   1.000  O
  C153     1.0000 0.87330  0.58970  0.53020  Biso   1.000  C
  H144     1.0000 0.89480  0.57360  0.52300  Biso   1.000  H
  H145     1.0000 0.86570  0.59680  0.43990  Biso   1.000  H
  C154     1.0000 0.84250  0.56950  0.59840  Biso   1.000  C
  H146     1.0000 0.81900  0.58190  0.58110  Biso   1.000  H
  H147     1.0000 0.84090  0.54430  0.56500  Biso   1.000  H
  N78      1.0000 0.28764  0.19731  0.29640  Biso   1.000  N
  N79      1.0000 0.29872  0.19511  0.42960  Biso   1.000  N
  C155     1.0000 0.30472  0.16945  0.23920  Biso   1.000  C
  H148     1.0000 0.30220  0.16390  0.14800  Biso   1.000  H
  C156     1.0000 0.32109  0.16634  0.44180  Biso   1.000  C
  H149     1.0000 0.33180  0.15880  0.52270  Biso   1.000  H
  N80      1.0000 0.32647  0.14936  0.32350  Biso   1.000  N
  N81      1.0000 0.28745  0.27686  0.36310  Biso   1.000  N
  N82      1.0000 0.30031  0.26285  0.48160  Biso   1.000  N
  C157     1.0000 0.30419  0.30850  0.34850  Biso   1.000  C
  H150     1.0000 0.30040  0.32400  0.27480  Biso   1.000  H
  C158     1.0000 0.32404  0.28728  0.53020  Biso   1.000  C
  H151     1.0000 0.33690  0.28440  0.61110  Biso   1.000  H
  N83      1.0000 0.32748  0.31670  0.44950  Biso   1.000  N
  N84      1.0000 0.22365  0.23588  0.42800  Biso   1.000  N
  N85      1.0000 0.24427  0.22579  0.53820  Biso   1.000  N
  C159     1.0000 0.18938  0.23330  0.47110  Biso   1.000  C
  H152     1.0000 0.16910  0.23900  0.41680  Biso   1.000  H
  C160     1.0000 0.22069  0.21741  0.63760  Biso   1.000  C
  H153     1.0000 0.22780  0.20950  0.72310  Biso   1.000  H
  N86      1.0000 0.18564  0.22193  0.59860  Biso   1.000  N
  B8       1.0000 0.28665  0.22450  0.53370  Biso   1.000  B
  H154     1.0000 0.29700  0.21900  0.62300  Biso   1.000  H
  Mn8      1.0000 0.37910  0.11369  0.30550  Biso   1.000  Mn
  N87      1.0000 0.38264  0.12278  0.10890  Biso   1.000  N
  C161     1.0000 0.38970  0.15400  0.05490  Biso   1.000  C
  H155     1.0000 0.38900  0.15530  0.96120  Biso   1.000  H
  C162     1.0000 0.39880  0.18730  0.12670  Biso   1.000  C
  C163     1.0000 0.40050  0.22100  0.05220  Biso   1.000  C
  H156     1.0000 0.39680  0.22130  0.95930  Biso   1.000  H
  C164     1.0000 0.40780  0.25350  0.12200  Biso   1.000  C
  H157     1.0000 0.40850  0.27580  0.07470  Biso   1.000  H
  C165     1.0000 0.41400  0.25420  0.25800  Biso   1.000  C
  H158     1.0000 0.41930  0.27660  0.30100  Biso   1.000  H
  C166     1.0000 0.41260  0.22190  0.32970  Biso   1.000  C
  H159     1.0000 0.41660  0.22250  0.42240  Biso   1.000  H
  C167     1.0000 0.40520  0.18820  0.26670  Biso   1.000  C
  O15      1.0000 0.40567  0.15729  0.34230  Biso   1.000  O
  N88      1.0000 0.35064  0.06955  0.24390  Biso   1.000  N
  C168     1.0000 0.33930  0.04291  0.32020  Biso   1.000  C
  H160     1.0000 0.32660  0.02360  0.27850  Biso   1.000  H
  C169     1.0000 0.34430  0.04020  0.46380  Biso   1.000  C
  C170     1.0000 0.33460  0.00740  0.52750  Biso   1.000  C
  H161     1.0000 0.32310  0.98870  0.47790  Biso   1.000  H
  C171     1.0000 0.34150  0.00180  0.66280  Biso   1.000  C
  H162     1.0000 0.33460  0.97980  0.70520  Biso   1.000  H
  C172     1.0000 0.35880  0.02950  0.73300  Biso   1.000  C
  H163     1.0000 0.36380  0.02610  0.82430  Biso   1.000  H
  C173     1.0000 0.36880  0.06160  0.67340  Biso   1.000  C
  H164     1.0000 0.38050  0.07980  0.72470  Biso   1.000  H
  C174     1.0000 0.36200  0.06850  0.53730  Biso   1.000  C
  O16      1.0000 0.37374  0.10020  0.48670  Biso   1.000  O
  C175     1.0000 0.37330  0.08970  0.03020  Biso   1.000  C
  H165     1.0000 0.39480  0.07360  0.02300  Biso   1.000  H
  H166     1.0000 0.36570  0.09680  0.93990  Biso   1.000  H
  C176     1.0000 0.34250  0.06950  0.09840  Biso   1.000  C
  H167     1.0000 0.31900  0.08190  0.08110  Biso   1.000  H
  H168     1.0000 0.34090  0.04430  0.06500  Biso   1.000  H
  N89      1.0000 0.94731  0.96236  0.95360  Biso   1.000  N
  N90      1.0000 0.94511  0.95128  0.82040  Biso   1.000  N
  C177     1.0000 0.91945  0.94528  0.01080  Biso   1.000  C
  H169     1.0000 0.91390  0.94780  0.10200  Biso   1.000  H
  C178     1.0000 0.91634  0.92891  0.80820  Biso   1.000  C
  H170     1.0000 0.90880  0.91820  0.72730  Biso   1.000  H
  N91      1.0000 0.89936  0.92353  0.92650  Biso   1.000  N
  N92      1.0000 0.02686  0.96255  0.88690  Biso   1.000  N
  N93      1.0000 0.01285  0.94969  0.76840  Biso   1.000  N
  C179     1.0000 0.05850  0.94581  0.90150  Biso   1.000  C
  H171     1.0000 0.07400  0.94960  0.97520  Biso   1.000  H
  C180     1.0000 0.03728  0.92596  0.71980  Biso   1.000  C
  H172     1.0000 0.03440  0.91310  0.63890  Biso   1.000  H
  N94      1.0000 0.06670  0.92252  0.80050  Biso   1.000  N
  N95      1.0000 0.98588  0.02635  0.82200  Biso   1.000  N
  N96      1.0000 0.97579  0.00573  0.71180  Biso   1.000  N
  C181     1.0000 0.98330  0.06062  0.77890  Biso   1.000  C
  H173     1.0000 0.98900  0.08090  0.83320  Biso   1.000  H
  C182     1.0000 0.96741  0.02931  0.61240  Biso   1.000  C
  H174     1.0000 0.95950  0.02220  0.52690  Biso   1.000  H
  N97      1.0000 0.97193  0.06436  0.65140  Biso   1.000  N
  B9       1.0000 0.97450  0.96335  0.71630  Biso   1.000  B
  H175     1.0000 0.96900  0.95300  0.62700  Biso   1.000  H
  Mn9      1.0000 0.86369  0.87090  0.94450  Biso   1.000  Mn
  N98      1.0000 0.87278  0.86736  0.14110  Biso   1.000  N
  C183     1.0000 0.90400  0.86030  0.19510  Biso   1.000  C
  H176     1.0000 0.90530  0.86100  0.28880  Biso   1.000  H
  C184     1.0000 0.93730  0.85120  0.12330  Biso   1.000  C
  C185     1.0000 0.97100  0.84950  0.19780  Biso   1.000  C
  H177     1.0000 0.97130  0.85320  0.29070  Biso   1.000  H
  C186     1.0000 0.00350  0.84220  0.12800  Biso   1.000  C
  H178     1.0000 0.02580  0.84150  0.17530  Biso   1.000  H
  C187     1.0000 0.00420  0.83600  0.99200  Biso   1.000  C
  H179     1.0000 0.02660  0.83070  0.94900  Biso   1.000  H
  C188     1.0000 0.97190  0.83740  0.92030  Biso   1.000  C
  H180     1.0000 0.97250  0.83340  0.82760  Biso   1.000  H
  C189     1.0000 0.93820  0.84480  0.98330  Biso   1.000  C
  O17      1.0000 0.90729  0.84433  0.90770  Biso   1.000  O
  N99      1.0000 0.81955  0.89936  0.00610  Biso   1.000  N
  C190     1.0000 0.79291  0.91070  0.92980  Biso   1.000  C
  H181     1.0000 0.77360  0.92340  0.97150  Biso   1.000  H
  C191     1.0000 0.79020  0.90570  0.78620  Biso   1.000  C
  C192     1.0000 0.75740  0.91540  0.72250  Biso   1.000  C
  H182     1.0000 0.73870  0.92690  0.77210  Biso   1.000  H
  C193     1.0000 0.75180  0.90850  0.58720  Biso   1.000  C
  H183     1.0000 0.72980  0.91540  0.54480  Biso   1.000  H
  C194     1.0000 0.77950  0.89120  0.51700  Biso   1.000  C
  H184     1.0000 0.77610  0.88620  0.42570  Biso   1.000  H
  C195     1.0000 0.81160  0.88120  0.57660  Biso   1.000  C
  H185     1.0000 0.82980  0.86950  0.52530  Biso   1.000  H
  C196     1.0000 0.81850  0.88800  0.71270  Biso   1.000  C
  O18      1.0000 0.85020  0.87626  0.76330  Biso   1.000  O
  C197     1.0000 0.83970  0.87670  0.21980  Biso   1.000  C
  H186     1.0000 0.82360  0.85520  0.22700  Biso   1.000  H
  H187     1.0000 0.84680  0.88430  0.31010  Biso   1.000  H
  C198     1.0000 0.81950  0.90750  0.15160  Biso   1.000  C
  H188     1.0000 0.83190  0.93100  0.16890  Biso   1.000  H
  H189     1.0000 0.79430  0.90910  0.18500  Biso   1.000  H
  N100     1.0000 0.44731  0.46236  0.45360  Biso   1.000  N
  N101     1.0000 0.44511  0.45128  0.32040  Biso   1.000  N
  C199     1.0000 0.41945  0.44528  0.51080  Biso   1.000  C
  H190     1.0000 0.41390  0.44780  0.60200  Biso   1.000  H
  C200     1.0000 0.41634  0.42891  0.30820  Biso   1.000  C
  H191     1.0000 0.40880  0.41820  0.22730  Biso   1.000  H
  N102     1.0000 0.39936  0.42353  0.42650  Biso   1.000  N
  N103     1.0000 0.52686  0.46255  0.38690  Biso   1.000  N
  N104     1.0000 0.51285  0.44969  0.26840  Biso   1.000  N
  C201     1.0000 0.55850  0.44581  0.40150  Biso   1.000  C
  H192     1.0000 0.57400  0.44960  0.47520  Biso   1.000  H
  C202     1.0000 0.53728  0.42596  0.21980  Biso   1.000  C
  H193     1.0000 0.53440  0.41310  0.13890  Biso   1.000  H
  N105     1.0000 0.56670  0.42252  0.30050  Biso   1.000  N
  N106     1.0000 0.48588  0.52635  0.32200  Biso   1.000  N
  N107     1.0000 0.47579  0.50573  0.21180  Biso   1.000  N
  C203     1.0000 0.48330  0.56062  0.27890  Biso   1.000  C
  H194     1.0000 0.48900  0.58090  0.33320  Biso   1.000  H
  C204     1.0000 0.46741  0.52931  0.11240  Biso   1.000  C
  H195     1.0000 0.45950  0.52220  0.02690  Biso   1.000  H
  N108     1.0000 0.47193  0.56436  0.15140  Biso   1.000  N
  B10      1.0000 0.47450  0.46335  0.21630  Biso   1.000  B
  H196     1.0000 0.46900  0.45300  0.12700  Biso   1.000  H
  Mn10     1.0000 0.36369  0.37090  0.44450  Biso   1.000  Mn
  N109     1.0000 0.37278  0.36736  0.64110  Biso   1.000  N
  C205     1.0000 0.40400  0.36030  0.69510  Biso   1.000  C
  H197     1.0000 0.40530  0.36100  0.78880  Biso   1.000  H
  C206     1.0000 0.43730  0.35120  0.62330  Biso   1.000  C
  C207     1.0000 0.47100  0.34950  0.69780  Biso   1.000  C
  H198     1.0000 0.47130  0.35320  0.79070  Biso   1.000  H
  C208     1.0000 0.50350  0.34220  0.62800  Biso   1.000  C
  H199     1.0000 0.52580  0.34150  0.67530  Biso   1.000  H
  C209     1.0000 0.50420  0.33600  0.49200  Biso   1.000  C
  H200     1.0000 0.52660  0.33070  0.44900  Biso   1.000  H
  C210     1.0000 0.47190  0.33740  0.42030  Biso   1.000  C
  H201     1.0000 0.47250  0.33340  0.32760  Biso   1.000  H
  C211     1.0000 0.43820  0.34480  0.48330  Biso   1.000  C
  O19      1.0000 0.40729  0.34433  0.40770  Biso   1.000  O
  N110     1.0000 0.31955  0.39936  0.50610  Biso   1.000  N
  C212     1.0000 0.29291  0.41070  0.42980  Biso   1.000  C
  H202     1.0000 0.27360  0.42340  0.47150  Biso   1.000  H
  C213     1.0000 0.29020  0.40570  0.28620  Biso   1.000  C
  C214     1.0000 0.25740  0.41540  0.22250  Biso   1.000  C
  H203     1.0000 0.23870  0.42690  0.27210  Biso   1.000  H
  C215     1.0000 0.25180  0.40850  0.08720  Biso   1.000  C
  H204     1.0000 0.22980  0.41540  0.04480  Biso   1.000  H
  C216     1.0000 0.27950  0.39120  0.01700  Biso   1.000  C
  H205     1.0000 0.27610  0.38620  0.92570  Biso   1.000  H
  C217     1.0000 0.31160  0.38120  0.07660  Biso   1.000  C
  H206     1.0000 0.32980  0.36950  0.02530  Biso   1.000  H
  C218     1.0000 0.31850  0.38800  0.21270  Biso   1.000  C
  O20      1.0000 0.35020  0.37626  0.26330  Biso   1.000  O
  C219     1.0000 0.33970  0.37670  0.71980  Biso   1.000  C
  H207     1.0000 0.32360  0.35520  0.72700  Biso   1.000  H
  H208     1.0000 0.34680  0.38430  0.81010  Biso   1.000  H
  C220     1.0000 0.31950  0.40750  0.65160  Biso   1.000  C
  H209     1.0000 0.33190  0.43100  0.66890  Biso   1.000  H
  H210     1.0000 0.29430  0.40910  0.68500  Biso   1.000  H
  N111     1.0000 0.55269  0.03764  0.45360  Biso   1.000  N
  N112     1.0000 0.55489  0.04872  0.32040  Biso   1.000  N
  C221     1.0000 0.58055  0.05472  0.51080  Biso   1.000  C
  H211     1.0000 0.58610  0.05220  0.60200  Biso   1.000  H
  C222     1.0000 0.58366  0.07109  0.30820  Biso   1.000  C
  H212     1.0000 0.59120  0.08180  0.22730  Biso   1.000  H
  N113     1.0000 0.60064  0.07647  0.42650  Biso   1.000  N
  N114     1.0000 0.47314  0.03745  0.38690  Biso   1.000  N
  N115     1.0000 0.48715  0.05031  0.26840  Biso   1.000  N
  C223     1.0000 0.44150  0.05419  0.40150  Biso   1.000  C
  H213     1.0000 0.42600  0.05040  0.47520  Biso   1.000  H
  C224     1.0000 0.46272  0.07404  0.21980  Biso   1.000  C
  H214     1.0000 0.46560  0.08690  0.13890  Biso   1.000  H
  N116     1.0000 0.43330  0.07748  0.30050  Biso   1.000  N
  N117     1.0000 0.51412  0.97365  0.32200  Biso   1.000  N
  N118     1.0000 0.52421  0.99427  0.21180  Biso   1.000  N
  C225     1.0000 0.51670  0.93938  0.27890  Biso   1.000  C
  H215     1.0000 0.51100  0.91910  0.33320  Biso   1.000  H
  C226     1.0000 0.53259  0.97069  0.11240  Biso   1.000  C
  H216     1.0000 0.54050  0.97780  0.02690  Biso   1.000  H
  N119     1.0000 0.52807  0.93564  0.15140  Biso   1.000  N
  B11      1.0000 0.52550  0.03665  0.21630  Biso   1.000  B
  H217     1.0000 0.53100  0.04700  0.12700  Biso   1.000  H
  Mn11     1.0000 0.63631  0.12910  0.44450  Biso   1.000  Mn
  N120     1.0000 0.62722  0.13264  0.64110  Biso   1.000  N
  C227     1.0000 0.59600  0.13970  0.69510  Biso   1.000  C
  H218     1.0000 0.59470  0.13900  0.78880  Biso   1.000  H
  C228     1.0000 0.56270  0.14880  0.62330  Biso   1.000  C
  C229     1.0000 0.52900  0.15050  0.69780  Biso   1.000  C
  H219     1.0000 0.52870  0.14680  0.79070  Biso   1.000  H
  C230     1.0000 0.49650  0.15780  0.62800  Biso   1.000  C
  H220     1.0000 0.47420  0.15850  0.67530  Biso   1.000  H
  C231     1.0000 0.49580  0.16400  0.49200  Biso   1.000  C
  H221     1.0000 0.47340  0.16930  0.44900  Biso   1.000  H
  C232     1.0000 0.52810  0.16260  0.42030  Biso   1.000  C
  H222     1.0000 0.52750  0.16660  0.32760  Biso   1.000  H
  C233     1.0000 0.56180  0.15520  0.48330  Biso   1.000  C
  O21      1.0000 0.59271  0.15567  0.40770  Biso   1.000  O
  N121     1.0000 0.68045  0.10064  0.50610  Biso   1.000  N
  C234     1.0000 0.70709  0.08930  0.42980  Biso   1.000  C
  H223     1.0000 0.72640  0.07660  0.47150  Biso   1.000  H
  C235     1.0000 0.70980  0.09430  0.28620  Biso   1.000  C
  C236     1.0000 0.74260  0.08460  0.22250  Biso   1.000  C
  H224     1.0000 0.76130  0.07310  0.27210  Biso   1.000  H
  C237     1.0000 0.74820  0.09150  0.08720  Biso   1.000  C
  H225     1.0000 0.77020  0.08460  0.04480  Biso   1.000  H
  C238     1.0000 0.72050  0.10880  0.01700  Biso   1.000  C
  H226     1.0000 0.72390  0.11380  0.92570  Biso   1.000  H
  C239     1.0000 0.68840  0.11880  0.07660  Biso   1.000  C
  H227     1.0000 0.67020  0.13050  0.02530  Biso   1.000  H
  C240     1.0000 0.68150  0.11200  0.21270  Biso   1.000  C
  O22      1.0000 0.64980  0.12374  0.26330  Biso   1.000  O
  C241     1.0000 0.66030  0.12330  0.71980  Biso   1.000  C
  H228     1.0000 0.67640  0.14480  0.72700  Biso   1.000  H
  H229     1.0000 0.65320  0.11570  0.81010  Biso   1.000  H
  C242     1.0000 0.68050  0.09250  0.65160  Biso   1.000  C
  H230     1.0000 0.66810  0.06900  0.66890  Biso   1.000  H
  H231     1.0000 0.70570  0.09090  0.68500  Biso   1.000  H
  N122     1.0000 0.05269  0.53764  0.95360  Biso   1.000  N
  N123     1.0000 0.05489  0.54872  0.82040  Biso   1.000  N
  C243     1.0000 0.08055  0.55472  0.01080  Biso   1.000  C
  H232     1.0000 0.08610  0.55220  0.10200  Biso   1.000  H
  C244     1.0000 0.08366  0.57109  0.80820  Biso   1.000  C
  H233     1.0000 0.09120  0.58180  0.72730  Biso   1.000  H
  N124     1.0000 0.10064  0.57647  0.92650  Biso   1.000  N
  N125     1.0000 0.97314  0.53745  0.88690  Biso   1.000  N
  N126     1.0000 0.98715  0.55031  0.76840  Biso   1.000  N
  C245     1.0000 0.94150  0.55419  0.90150  Biso   1.000  C
  H234     1.0000 0.92600  0.55040  0.97520  Biso   1.000  H
  C246     1.0000 0.96272  0.57404  0.71980  Biso   1.000  C
  H235     1.0000 0.96560  0.58690  0.63890  Biso   1.000  H
  N127     1.0000 0.93330  0.57748  0.80050  Biso   1.000  N
  N128     1.0000 0.01412  0.47365  0.82200  Biso   1.000  N
  N129     1.0000 0.02421  0.49427  0.71180  Biso   1.000  N
  C247     1.0000 0.01670  0.43938  0.77890  Biso   1.000  C
  H236     1.0000 0.01100  0.41910  0.83320  Biso   1.000  H
  C248     1.0000 0.03259  0.47069  0.61240  Biso   1.000  C
  H237     1.0000 0.04050  0.47780  0.52690  Biso   1.000  H
  N130     1.0000 0.02807  0.43564  0.65140  Biso   1.000  N
  B12      1.0000 0.02550  0.53665  0.71630  Biso   1.000  B
  H238     1.0000 0.03100  0.54700  0.62700  Biso   1.000  H
  Mn12     1.0000 0.13631  0.62910  0.94450  Biso   1.000  Mn
  N131     1.0000 0.12722  0.63264  0.14110  Biso   1.000  N
  C249     1.0000 0.09600  0.63970  0.19510  Biso   1.000  C
  H239     1.0000 0.09470  0.63900  0.28880  Biso   1.000  H
  C250     1.0000 0.06270  0.64880  0.12330  Biso   1.000  C
  C251     1.0000 0.02900  0.65050  0.19780  Biso   1.000  C
  H240     1.0000 0.02870  0.64680  0.29070  Biso   1.000  H
  C252     1.0000 0.99650  0.65780  0.12800  Biso   1.000  C
  H241     1.0000 0.97420  0.65850  0.17530  Biso   1.000  H
  C253     1.0000 0.99580  0.66400  0.99200  Biso   1.000  C
  H242     1.0000 0.97340  0.66930  0.94900  Biso   1.000  H
  C254     1.0000 0.02810  0.66260  0.92030  Biso   1.000  C
  H243     1.0000 0.02750  0.66660  0.82760  Biso   1.000  H
  C255     1.0000 0.06180  0.65520  0.98330  Biso   1.000  C
  O23      1.0000 0.09271  0.65567  0.90770  Biso   1.000  O
  N132     1.0000 0.18045  0.60064  0.00610  Biso   1.000  N
  C256     1.0000 0.20709  0.58930  0.92980  Biso   1.000  C
  H244     1.0000 0.22640  0.57660  0.97150  Biso   1.000  H
  C257     1.0000 0.20980  0.59430  0.78620  Biso   1.000  C
  C258     1.0000 0.24260  0.58460  0.72250  Biso   1.000  C
  H245     1.0000 0.26130  0.57310  0.77210  Biso   1.000  H
  C259     1.0000 0.24820  0.59150  0.58720  Biso   1.000  C
  H246     1.0000 0.27020  0.58460  0.54480  Biso   1.000  H
  C260     1.0000 0.22050  0.60880  0.51700  Biso   1.000  C
  H247     1.0000 0.22390  0.61380  0.42570  Biso   1.000  H
  C261     1.0000 0.18840  0.61880  0.57660  Biso   1.000  C
  H248     1.0000 0.17020  0.63050  0.52530  Biso   1.000  H
  C262     1.0000 0.18150  0.61200  0.71270  Biso   1.000  C
  O24      1.0000 0.14980  0.62374  0.76330  Biso   1.000  O
  C263     1.0000 0.16030  0.62330  0.21980  Biso   1.000  C
  H249     1.0000 0.17640  0.64480  0.22700  Biso   1.000  H
  H250     1.0000 0.15320  0.61570  0.31010  Biso   1.000  H
  C264     1.0000 0.18050  0.59250  0.15160  Biso   1.000  C
  H251     1.0000 0.16810  0.56900  0.16890  Biso   1.000  H
  H252     1.0000 0.20570  0.59090  0.18500  Biso   1.000  H
  N133     1.0000 0.28764  0.69731  0.70360  Biso   1.000  N
  N134     1.0000 0.29872  0.69511  0.57040  Biso   1.000  N
  C265     1.0000 0.30472  0.66945  0.76080  Biso   1.000  C
  H253     1.0000 0.30220  0.66390  0.85200  Biso   1.000  H
  C266     1.0000 0.32109  0.66634  0.55820  Biso   1.000  C
  H254     1.0000 0.33180  0.65880  0.47730  Biso   1.000  H
  N135     1.0000 0.32647  0.64936  0.67650  Biso   1.000  N
  N136     1.0000 0.28745  0.77686  0.63690  Biso   1.000  N
  N137     1.0000 0.30031  0.76285  0.51840  Biso   1.000  N
  C267     1.0000 0.30419  0.80850  0.65150  Biso   1.000  C
  H255     1.0000 0.30040  0.82400  0.72520  Biso   1.000  H
  C268     1.0000 0.32404  0.78728  0.46980  Biso   1.000  C
  H256     1.0000 0.33690  0.78440  0.38890  Biso   1.000  H
  N138     1.0000 0.32748  0.81670  0.55050  Biso   1.000  N
  N139     1.0000 0.22365  0.73588  0.57200  Biso   1.000  N
  N140     1.0000 0.24427  0.72579  0.46180  Biso   1.000  N
  C269     1.0000 0.18938  0.73330  0.52890  Biso   1.000  C
  H257     1.0000 0.16910  0.73900  0.58320  Biso   1.000  H
  C270     1.0000 0.22069  0.71741  0.36240  Biso   1.000  C
  H258     1.0000 0.22780  0.70950  0.27690  Biso   1.000  H
  N141     1.0000 0.18564  0.72193  0.40140  Biso   1.000  N
  B13      1.0000 0.28665  0.72450  0.46630  Biso   1.000  B
  H259     1.0000 0.29700  0.71900  0.37700  Biso   1.000  H
  Mn13     1.0000 0.37910  0.61369  0.69450  Biso   1.000  Mn
  N142     1.0000 0.38264  0.62278  0.89110  Biso   1.000  N
  C271     1.0000 0.38970  0.65400  0.94510  Biso   1.000  C
  H260     1.0000 0.38900  0.65530  0.03880  Biso   1.000  H
  C272     1.0000 0.39880  0.68730  0.87330  Biso   1.000  C
  C273     1.0000 0.40050  0.72100  0.94780  Biso   1.000  C
  H261     1.0000 0.39680  0.72130  0.04070  Biso   1.000  H
  C274     1.0000 0.40780  0.75350  0.87800  Biso   1.000  C
  H262     1.0000 0.40850  0.77580  0.92530  Biso   1.000  H
  C275     1.0000 0.41400  0.75420  0.74200  Biso   1.000  C
  H263     1.0000 0.41930  0.77660  0.69900  Biso   1.000  H
  C276     1.0000 0.41260  0.72190  0.67030  Biso   1.000  C
  H264     1.0000 0.41660  0.72250  0.57760  Biso   1.000  H
  C277     1.0000 0.40520  0.68820  0.73330  Biso   1.000  C
  O25      1.0000 0.40567  0.65729  0.65770  Biso   1.000  O
  N143     1.0000 0.35064  0.56955  0.75610  Biso   1.000  N
  C278     1.0000 0.33930  0.54291  0.67980  Biso   1.000  C
  H265     1.0000 0.32660  0.52360  0.72150  Biso   1.000  H
  C279     1.0000 0.34430  0.54020  0.53620  Biso   1.000  C
  C280     1.0000 0.33460  0.50740  0.47250  Biso   1.000  C
  H266     1.0000 0.32310  0.48870  0.52210  Biso   1.000  H
  C281     1.0000 0.34150  0.50180  0.33720  Biso   1.000  C
  H267     1.0000 0.33460  0.47980  0.29480  Biso   1.000  H
  C282     1.0000 0.35880  0.52950  0.26700  Biso   1.000  C
  H268     1.0000 0.36380  0.52610  0.17570  Biso   1.000  H
  C283     1.0000 0.36880  0.56160  0.32660  Biso   1.000  C
  H269     1.0000 0.38050  0.57980  0.27530  Biso   1.000  H
  C284     1.0000 0.36200  0.56850  0.46270  Biso   1.000  C
  O26      1.0000 0.37374  0.60020  0.51330  Biso   1.000  O
  C285     1.0000 0.37330  0.58970  0.96980  Biso   1.000  C
  H270     1.0000 0.39480  0.57360  0.97700  Biso   1.000  H
  H271     1.0000 0.36570  0.59680  0.06010  Biso   1.000  H
  C286     1.0000 0.34250  0.56950  0.90160  Biso   1.000  C
  H272     1.0000 0.31900  0.58190  0.91890  Biso   1.000  H
  H273     1.0000 0.34090  0.54430  0.93500  Biso   1.000  H
  N144     1.0000 0.78764  0.19731  0.20360  Biso   1.000  N
  N145     1.0000 0.79872  0.19511  0.07040  Biso   1.000  N
  C287     1.0000 0.80472  0.16945  0.26080  Biso   1.000  C
  H274     1.0000 0.80220  0.16390  0.35200  Biso   1.000  H
  C288     1.0000 0.82109  0.16634  0.05820  Biso   1.000  C
  H275     1.0000 0.83180  0.15880  0.97730  Biso   1.000  H
  N146     1.0000 0.82647  0.14936  0.17650  Biso   1.000  N
  N147     1.0000 0.78745  0.27686  0.13690  Biso   1.000  N
  N148     1.0000 0.80031  0.26285  0.01840  Biso   1.000  N
  C289     1.0000 0.80419  0.30850  0.15150  Biso   1.000  C
  H276     1.0000 0.80040  0.32400  0.22520  Biso   1.000  H
  C290     1.0000 0.82404  0.28728  0.96980  Biso   1.000  C
  H277     1.0000 0.83690  0.28440  0.88890  Biso   1.000  H
  N149     1.0000 0.82748  0.31670  0.05050  Biso   1.000  N
  N150     1.0000 0.72365  0.23588  0.07200  Biso   1.000  N
  N151     1.0000 0.74427  0.22579  0.96180  Biso   1.000  N
  C291     1.0000 0.68938  0.23330  0.02890  Biso   1.000  C
  H278     1.0000 0.66910  0.23900  0.08320  Biso   1.000  H
  C292     1.0000 0.72069  0.21741  0.86240  Biso   1.000  C
  H279     1.0000 0.72780  0.20950  0.77690  Biso   1.000  H
  N152     1.0000 0.68564  0.22193  0.90140  Biso   1.000  N
  B14      1.0000 0.78665  0.22450  0.96630  Biso   1.000  B
  H280     1.0000 0.79700  0.21900  0.87700  Biso   1.000  H
  Mn14     1.0000 0.87910  0.11369  0.19450  Biso   1.000  Mn
  N153     1.0000 0.88264  0.12278  0.39110  Biso   1.000  N
  C293     1.0000 0.88970  0.15400  0.44510  Biso   1.000  C
  H281     1.0000 0.88900  0.15530  0.53880  Biso   1.000  H
  C294     1.0000 0.89880  0.18730  0.37330  Biso   1.000  C
  C295     1.0000 0.90050  0.22100  0.44780  Biso   1.000  C
  H282     1.0000 0.89680  0.22130  0.54070  Biso   1.000  H
  C296     1.0000 0.90780  0.25350  0.37800  Biso   1.000  C
  H283     1.0000 0.90850  0.27580  0.42530  Biso   1.000  H
  C297     1.0000 0.91400  0.25420  0.24200  Biso   1.000  C
  H284     1.0000 0.91930  0.27660  0.19900  Biso   1.000  H
  C298     1.0000 0.91260  0.22190  0.17030  Biso   1.000  C
  H285     1.0000 0.91660  0.22250  0.07760  Biso   1.000  H
  C299     1.0000 0.90520  0.18820  0.23330  Biso   1.000  C
  O27      1.0000 0.90567  0.15729  0.15770  Biso   1.000  O
  N154     1.0000 0.85064  0.06955  0.25610  Biso   1.000  N
  C300     1.0000 0.83930  0.04291  0.17980  Biso   1.000  C
  H286     1.0000 0.82660  0.02360  0.22150  Biso   1.000  H
  C301     1.0000 0.84430  0.04020  0.03620  Biso   1.000  C
  C302     1.0000 0.83460  0.00740  0.97250  Biso   1.000  C
  H287     1.0000 0.82310  0.98870  0.02210  Biso   1.000  H
  C303     1.0000 0.84150  0.00180  0.83720  Biso   1.000  C
  H288     1.0000 0.83460  0.97980  0.79480  Biso   1.000  H
  C304     1.0000 0.85880  0.02950  0.76700  Biso   1.000  C
  H289     1.0000 0.86380  0.02610  0.67570  Biso   1.000  H
  C305     1.0000 0.86880  0.06160  0.82660  Biso   1.000  C
  H290     1.0000 0.88050  0.07980  0.77530  Biso   1.000  H
  C306     1.0000 0.86200  0.06850  0.96270  Biso   1.000  C
  O28      1.0000 0.87374  0.10020  0.01330  Biso   1.000  O
  C307     1.0000 0.87330  0.08970  0.46980  Biso   1.000  C
  H291     1.0000 0.89480  0.07360  0.47700  Biso   1.000  H
  H292     1.0000 0.86570  0.09680  0.56010  Biso   1.000  H
  C308     1.0000 0.84250  0.06950  0.40160  Biso   1.000  C
  H293     1.0000 0.81900  0.08190  0.41890  Biso   1.000  H
  H294     1.0000 0.84090  0.04430  0.43500  Biso   1.000  H
  N155     1.0000 0.21236  0.30269  0.20360  Biso   1.000  N
  N156     1.0000 0.20128  0.30489  0.07040  Biso   1.000  N
  C309     1.0000 0.19528  0.33055  0.26080  Biso   1.000  C
  H295     1.0000 0.19780  0.33610  0.35200  Biso   1.000  H
  C310     1.0000 0.17891  0.33366  0.05820  Biso   1.000  C
  H296     1.0000 0.16820  0.34120  0.97730  Biso   1.000  H
  N157     1.0000 0.17353  0.35064  0.17650  Biso   1.000  N
  N158     1.0000 0.21255  0.22314  0.13690  Biso   1.000  N
  N159     1.0000 0.19969  0.23715  0.01840  Biso   1.000  N
  C311     1.0000 0.19581  0.19150  0.15150  Biso   1.000  C
  H297     1.0000 0.19960  0.17600  0.22520  Biso   1.000  H
  C312     1.0000 0.17596  0.21272  0.96980  Biso   1.000  C
  H298     1.0000 0.16310  0.21560  0.88890  Biso   1.000  H
  N160     1.0000 0.17252  0.18330  0.05050  Biso   1.000  N
  N161     1.0000 0.27635  0.26412  0.07200  Biso   1.000  N
  N162     1.0000 0.25573  0.27421  0.96180  Biso   1.000  N
  C313     1.0000 0.31062  0.26670  0.02890  Biso   1.000  C
  H299     1.0000 0.33090  0.26100  0.08320  Biso   1.000  H
  C314     1.0000 0.27931  0.28259  0.86240  Biso   1.000  C
  H300     1.0000 0.27220  0.29050  0.77690  Biso   1.000  H
  N163     1.0000 0.31436  0.27807  0.90140  Biso   1.000  N
  B15      1.0000 0.21335  0.27550  0.96630  Biso   1.000  B
  H301     1.0000 0.20300  0.28100  0.87700  Biso   1.000  H
  Mn15     1.0000 0.12090  0.38631  0.19450  Biso   1.000  Mn
  N164     1.0000 0.11736  0.37722  0.39110  Biso   1.000  N
  C315     1.0000 0.11030  0.34600  0.44510  Biso   1.000  C
  H302     1.0000 0.11100  0.34470  0.53880  Biso   1.000  H
  C316     1.0000 0.10120  0.31270  0.37330  Biso   1.000  C
  C317     1.0000 0.09950  0.27900  0.44780  Biso   1.000  C
  H303     1.0000 0.10320  0.27870  0.54070  Biso   1.000  H
  C318     1.0000 0.09220  0.24650  0.37800  Biso   1.000  C
  H304     1.0000 0.09150  0.22420  0.42530  Biso   1.000  H
  C319     1.0000 0.08600  0.24580  0.24200  Biso   1.000  C
  H305     1.0000 0.08070  0.22340  0.19900  Biso   1.000  H
  C320     1.0000 0.08740  0.27810  0.17030  Biso   1.000  C
  H306     1.0000 0.08340  0.27750  0.07760  Biso   1.000  H
  C321     1.0000 0.09480  0.31180  0.23330  Biso   1.000  C
  O29      1.0000 0.09433  0.34271  0.15770  Biso   1.000  O
  N165     1.0000 0.14936  0.43045  0.25610  Biso   1.000  N
  C322     1.0000 0.16070  0.45709  0.17980  Biso   1.000  C
  H307     1.0000 0.17340  0.47640  0.22150  Biso   1.000  H
  C323     1.0000 0.15570  0.45980  0.03620  Biso   1.000  C
  C324     1.0000 0.16540  0.49260  0.97250  Biso   1.000  C
  H308     1.0000 0.17690  0.51130  0.02210  Biso   1.000  H
  C325     1.0000 0.15850  0.49820  0.83720  Biso   1.000  C
  H309     1.0000 0.16540  0.52020  0.79480  Biso   1.000  H
  C326     1.0000 0.14120  0.47050  0.76700  Biso   1.000  C
  H310     1.0000 0.13620  0.47390  0.67570  Biso   1.000  H
  C327     1.0000 0.13120  0.43840  0.82660  Biso   1.000  C
  H311     1.0000 0.11950  0.42020  0.77530  Biso   1.000  H
  C328     1.0000 0.13800  0.43150  0.96270  Biso   1.000  C
  O30      1.0000 0.12626  0.39980  0.01330  Biso   1.000  O
  C329     1.0000 0.12670  0.41030  0.46980  Biso   1.000  C
  H312     1.0000 0.10520  0.42640  0.47700  Biso   1.000  H
  H313     1.0000 0.13430  0.40320  0.56010  Biso   1.000  H
  C330     1.0000 0.15750  0.43050  0.40160  Biso   1.000  C
  H314     1.0000 0.18100  0.41810  0.41890  Biso   1.000  H
  H315     1.0000 0.15910  0.45570  0.43500  Biso   1.000  H
  N166     1.0000 0.71236  0.80269  0.70360  Biso   1.000  N
  N167     1.0000 0.70128  0.80489  0.57040  Biso   1.000  N
  C331     1.0000 0.69528  0.83055  0.76080  Biso   1.000  C
  H316     1.0000 0.69780  0.83610  0.85200  Biso   1.000  H
  C332     1.0000 0.67891  0.83366  0.55820  Biso   1.000  C
  H317     1.0000 0.66820  0.84120  0.47730  Biso   1.000  H
  N168     1.0000 0.67353  0.85064  0.67650  Biso   1.000  N
  N169     1.0000 0.71255  0.72314  0.63690  Biso   1.000  N
  N170     1.0000 0.69969  0.73715  0.51840  Biso   1.000  N
  C333     1.0000 0.69581  0.69150  0.65150  Biso   1.000  C
  H318     1.0000 0.69960  0.67600  0.72520  Biso   1.000  H
  C334     1.0000 0.67596  0.71272  0.46980  Biso   1.000  C
  H319     1.0000 0.66310  0.71560  0.38890  Biso   1.000  H
  N171     1.0000 0.67252  0.68330  0.55050  Biso   1.000  N
  N172     1.0000 0.77635  0.76412  0.57200  Biso   1.000  N
  N173     1.0000 0.75573  0.77421  0.46180  Biso   1.000  N
  C335     1.0000 0.81062  0.76670  0.52890  Biso   1.000  C
  H320     1.0000 0.83090  0.76100  0.58320  Biso   1.000  H
  C336     1.0000 0.77931  0.78259  0.36240  Biso   1.000  C
  H321     1.0000 0.77220  0.79050  0.27690  Biso   1.000  H
  N174     1.0000 0.81436  0.77807  0.40140  Biso   1.000  N
  B16      1.0000 0.71335  0.77550  0.46630  Biso   1.000  B
  H322     1.0000 0.70300  0.78100  0.37700  Biso   1.000  H
  Mn16     1.0000 0.62090  0.88631  0.69450  Biso   1.000  Mn
  N175     1.0000 0.61736  0.87722  0.89110  Biso   1.000  N
  C337     1.0000 0.61030  0.84600  0.94510  Biso   1.000  C
  H323     1.0000 0.61100  0.84470  0.03880  Biso   1.000  H
  C338     1.0000 0.60120  0.81270  0.87330  Biso   1.000  C
  C339     1.0000 0.59950  0.77900  0.94780  Biso   1.000  C
  H324     1.0000 0.60320  0.77870  0.04070  Biso   1.000  H
  C340     1.0000 0.59220  0.74650  0.87800  Biso   1.000  C
  H325     1.0000 0.59150  0.72420  0.92530  Biso   1.000  H
  C341     1.0000 0.58600  0.74580  0.74200  Biso   1.000  C
  H326     1.0000 0.58070  0.72340  0.69900  Biso   1.000  H
  C342     1.0000 0.58740  0.77810  0.67030  Biso   1.000  C
  H327     1.0000 0.58340  0.77750  0.57760  Biso   1.000  H
  C343     1.0000 0.59480  0.81180  0.73330  Biso   1.000  C
  O31      1.0000 0.59433  0.84271  0.65770  Biso   1.000  O
  N176     1.0000 0.64936  0.93045  0.75610  Biso   1.000  N
  C344     1.0000 0.66070  0.95709  0.67980  Biso   1.000  C
  H328     1.0000 0.67340  0.97640  0.72150  Biso   1.000  H
  C345     1.0000 0.65570  0.95980  0.53620  Biso   1.000  C
  C346     1.0000 0.66540  0.99260  0.47250  Biso   1.000  C
  H329     1.0000 0.67690  0.01130  0.52210  Biso   1.000  H
  C347     1.0000 0.65850  0.99820  0.33720  Biso   1.000  C
  H330     1.0000 0.66540  0.02020  0.29480  Biso   1.000  H
  C348     1.0000 0.64120  0.97050  0.26700  Biso   1.000  C
  H331     1.0000 0.63620  0.97390  0.17570  Biso   1.000  H
  C349     1.0000 0.63120  0.93840  0.32660  Biso   1.000  C
  H332     1.0000 0.61950  0.92020  0.27530  Biso   1.000  H
  C350     1.0000 0.63800  0.93150  0.46270  Biso   1.000  C
  O32      1.0000 0.62626  0.89980  0.51330  Biso   1.000  O
  C351     1.0000 0.62670  0.91030  0.96980  Biso   1.000  C
  H333     1.0000 0.60520  0.92640  0.97700  Biso   1.000  H
  H334     1.0000 0.63430  0.90320  0.06010  Biso   1.000  H
  C352     1.0000 0.65750  0.93050  0.90160  Biso   1.000  C
  H335     1.0000 0.68100  0.91810  0.91890  Biso   1.000  H
  H336     1.0000 0.65910  0.95570  0.93500  Biso   1.000  H
  Cu1      1.0000 0.00000  0.00000  0.00000  Biso   1.000  Cu
  Cu2      1.0000 0.50000  0.50000  0.50000  Biso   1.000  Cu
  Cu3      1.0000 0.50000  0.00000  0.50000  Biso   1.000  Cu
  Cu4      1.0000 0.00000  0.50000  0.00000  Biso   1.000  Cu
  Cu5      1.0000 0.75000  0.25000  0.25000  Biso   1.000  Cu
  Cu6      1.0000 0.75000  0.75000  0.75000  Biso   1.000  Cu
  Cu7      1.0000 0.25000  0.75000  0.75000  Biso   1.000  Cu
  Cu8      1.0000 0.25000  0.25000  0.25000  Biso   1.000  Cu
