data_image0
_cell_length_a       36.102
_cell_length_b       36.102
_cell_length_c       9.93
_cell_angle_alpha    90
_cell_angle_beta     90
_cell_angle_gamma    90

_symmetry_space_group_name_H-M    "P 1"
_symmetry_int_tables_number       1

loop_
  _symmetry_equiv_pos_as_xyz
  'x, y, z'

loop_
  _atom_site_label
  _atom_site_occupancy
  _atom_site_fract_x
  _atom_site_fract_y
  _atom_site_fract_z
  _atom_site_thermal_displace_type
  _atom_site_B_iso_or_equiv
  _atom_site_type_symbol
  N1       1.0000 0.94733  0.46218  0.05670  Biso   1.000  N
  N2       1.0000 0.94721  0.45093  0.19090  Biso   1.000  N
  C1       1.0000 0.91861  0.44525  0.00350  Biso   1.000  C
  H1       1.0000 0.91200  0.44740  0.91330  Biso   1.000  H
  C2       1.0000 0.91833  0.42875  0.20920  Biso   1.000  C
  H2       1.0000 0.91200  0.41780  0.29080  Biso   1.000  H
  N3       1.0000 0.89948  0.42423  0.09390  Biso   1.000  N
  N4       1.0000 0.02780  0.46246  0.10760  Biso   1.000  N
  N5       1.0000 0.01507  0.44934  0.22920  Biso   1.000  N
  C3       1.0000 0.05906  0.44545  0.08700  Biso   1.000  C
  H3       1.0000 0.07380  0.44970  0.01180  Biso   1.000  H
  C4       1.0000 0.03989  0.42449  0.27270  Biso   1.000  C
  H4       1.0000 0.03790  0.41130  0.35290  Biso   1.000  H
  N6       1.0000 0.06808  0.42116  0.18490  Biso   1.000  N
  N7       1.0000 0.98848  0.52545  0.17850  Biso   1.000  N
  N8       1.0000 0.97929  0.50520  0.29120  Biso   1.000  N
  C5       1.0000 0.98490  0.56017  0.21980  Biso   1.000  C
  H5       1.0000 0.98950  0.58040  0.16410  Biso   1.000  H
  C6       1.0000 0.97025  0.52877  0.38920  Biso   1.000  C
  H6       1.0000 0.96230  0.52160  0.47430  Biso   1.000  H
  N9       1.0000 0.97402  0.56394  0.35020  Biso   1.000  N
  B1       1.0000 0.97770  0.46249  0.28890  Biso   1.000  B
  H7       1.0000 0.97350  0.45230  0.37910  Biso   1.000  H
  Mn1      1.0000 0.86414  0.37165  0.07845  Biso   1.000  Mn
  N10      1.0000 0.87460  0.36931  0.88160  Biso   1.000  N
  C7       1.0000 0.90623  0.36215  0.82670  Biso   1.000  C
  H8       1.0000 0.90810  0.36280  0.73330  Biso   1.000  H
  C8       1.0000 0.93893  0.35309  0.90460  Biso   1.000  C
  C9       1.0000 0.97280  0.35110  0.83590  Biso   1.000  C
  H9       1.0000 0.97350  0.35470  0.74320  Biso   1.000  H
  C10      1.0000 0.00520  0.34390  0.90470  Biso   1.000  C
  H10      1.0000 0.02750  0.34270  0.85850  Biso   1.000  H
  C11      1.0000 0.00450  0.33860  0.03820  Biso   1.000  C
  H11      1.0000 0.02660  0.33440  0.08370  Biso   1.000  H
  C12      1.0000 0.97160  0.33920  0.11010  Biso   1.000  C
  H12      1.0000 0.97180  0.33480  0.20240  Biso   1.000  H
  C13      1.0000 0.93872  0.34638  0.04470  Biso   1.000  C
  O1       1.0000 0.90745  0.34547  0.12040  Biso   1.000  O
  N11      1.0000 0.82098  0.40082  0.01460  Biso   1.000  N
  C14      1.0000 0.79459  0.41333  0.09040  Biso   1.000  C
  H13      1.0000 0.77650  0.42780  0.04960  Biso   1.000  H
  C15      1.0000 0.79104  0.40658  0.23360  Biso   1.000  C
  C16      1.0000 0.75790  0.41780  0.29790  Biso   1.000  C
  H14      1.0000 0.74040  0.43110  0.24920  Biso   1.000  H
  C17      1.0000 0.75110  0.40960  0.43120  Biso   1.000  C
  H15      1.0000 0.72910  0.41730  0.47110  Biso   1.000  H
  C18      1.0000 0.77680  0.39000  0.50590  Biso   1.000  C
  H16      1.0000 0.77180  0.38400  0.59520  Biso   1.000  H
  C19      1.0000 0.80960  0.37950  0.44740  Biso   1.000  C
  H17      1.0000 0.82700  0.36680  0.49880  Biso   1.000  H
  C20      1.0000 0.81771  0.38748  0.31290  Biso   1.000  C
  O2       1.0000 0.84966  0.37578  0.26140  Biso   1.000  O
  C21      1.0000 0.84233  0.37977  0.79810  Biso   1.000  C
  H18      1.0000 0.82600  0.35870  0.78640  Biso   1.000  H
  H19      1.0000 0.85050  0.38800  0.70990  Biso   1.000  H
  C22      1.0000 0.82247  0.41044  0.86960  Biso   1.000  C
  H20      1.0000 0.83560  0.43360  0.85700  Biso   1.000  H
  H21      1.0000 0.79760  0.41320  0.83390  Biso   1.000  H
  N12      1.0000 0.44733  0.96218  0.55670  Biso   1.000  N
  N13      1.0000 0.44721  0.95093  0.69090  Biso   1.000  N
  C23      1.0000 0.41861  0.94525  0.50350  Biso   1.000  C
  H22      1.0000 0.41200  0.94740  0.41330  Biso   1.000  H
  C24      1.0000 0.41833  0.92875  0.70920  Biso   1.000  C
  H23      1.0000 0.41200  0.91780  0.79080  Biso   1.000  H
  N14      1.0000 0.39948  0.92423  0.59390  Biso   1.000  N
  N15      1.0000 0.52780  0.96246  0.60760  Biso   1.000  N
  N16      1.0000 0.51507  0.94934  0.72920  Biso   1.000  N
  C25      1.0000 0.55906  0.94545  0.58700  Biso   1.000  C
  H24      1.0000 0.57380  0.94970  0.51180  Biso   1.000  H
  C26      1.0000 0.53989  0.92449  0.77270  Biso   1.000  C
  H25      1.0000 0.53790  0.91130  0.85290  Biso   1.000  H
  N17      1.0000 0.56808  0.92116  0.68490  Biso   1.000  N
  N18      1.0000 0.48848  0.02545  0.67850  Biso   1.000  N
  N19      1.0000 0.47929  0.00520  0.79120  Biso   1.000  N
  C27      1.0000 0.48490  0.06017  0.71980  Biso   1.000  C
  H26      1.0000 0.48950  0.08040  0.66410  Biso   1.000  H
  C28      1.0000 0.47025  0.02877  0.88920  Biso   1.000  C
  H27      1.0000 0.46230  0.02160  0.97430  Biso   1.000  H
  N20      1.0000 0.47402  0.06394  0.85020  Biso   1.000  N
  B2       1.0000 0.47770  0.96249  0.78890  Biso   1.000  B
  H28      1.0000 0.47350  0.95230  0.87910  Biso   1.000  H
  Mn2      1.0000 0.36414  0.87165  0.57845  Biso   1.000  Mn
  N21      1.0000 0.37460  0.86931  0.38160  Biso   1.000  N
  C29      1.0000 0.40623  0.86215  0.32670  Biso   1.000  C
  H29      1.0000 0.40810  0.86280  0.23330  Biso   1.000  H
  C30      1.0000 0.43893  0.85309  0.40460  Biso   1.000  C
  C31      1.0000 0.47280  0.85110  0.33590  Biso   1.000  C
  H30      1.0000 0.47350  0.85470  0.24320  Biso   1.000  H
  C32      1.0000 0.50520  0.84390  0.40470  Biso   1.000  C
  H31      1.0000 0.52750  0.84270  0.35850  Biso   1.000  H
  C33      1.0000 0.50450  0.83860  0.53820  Biso   1.000  C
  H32      1.0000 0.52660  0.83440  0.58370  Biso   1.000  H
  C34      1.0000 0.47160  0.83920  0.61010  Biso   1.000  C
  H33      1.0000 0.47180  0.83480  0.70240  Biso   1.000  H
  C35      1.0000 0.43872  0.84638  0.54470  Biso   1.000  C
  O3       1.0000 0.40745  0.84547  0.62040  Biso   1.000  O
  N22      1.0000 0.32098  0.90082  0.51460  Biso   1.000  N
  C36      1.0000 0.29459  0.91333  0.59040  Biso   1.000  C
  H34      1.0000 0.27650  0.92780  0.54960  Biso   1.000  H
  C37      1.0000 0.29104  0.90658  0.73360  Biso   1.000  C
  C38      1.0000 0.25790  0.91780  0.79790  Biso   1.000  C
  H35      1.0000 0.24040  0.93110  0.74920  Biso   1.000  H
  C39      1.0000 0.25110  0.90960  0.93120  Biso   1.000  C
  H36      1.0000 0.22910  0.91730  0.97110  Biso   1.000  H
  C40      1.0000 0.27680  0.89000  0.00590  Biso   1.000  C
  H37      1.0000 0.27180  0.88400  0.09520  Biso   1.000  H
  C41      1.0000 0.30960  0.87950  0.94740  Biso   1.000  C
  H38      1.0000 0.32700  0.86680  0.99880  Biso   1.000  H
  C42      1.0000 0.31771  0.88748  0.81290  Biso   1.000  C
  O4       1.0000 0.34966  0.87578  0.76140  Biso   1.000  O
  C43      1.0000 0.34233  0.87977  0.29810  Biso   1.000  C
  H39      1.0000 0.32600  0.85870  0.28640  Biso   1.000  H
  H40      1.0000 0.35050  0.88800  0.20990  Biso   1.000  H
  C44      1.0000 0.32247  0.91044  0.36960  Biso   1.000  C
  H41      1.0000 0.33560  0.93360  0.35700  Biso   1.000  H
  H42      1.0000 0.29760  0.91320  0.33390  Biso   1.000  H
  N23      1.0000 0.55267  0.53782  0.55670  Biso   1.000  N
  N24      1.0000 0.55279  0.54907  0.69090  Biso   1.000  N
  C45      1.0000 0.58139  0.55475  0.50350  Biso   1.000  C
  H43      1.0000 0.58800  0.55260  0.41330  Biso   1.000  H
  C46      1.0000 0.58167  0.57125  0.70920  Biso   1.000  C
  H44      1.0000 0.58800  0.58220  0.79080  Biso   1.000  H
  N25      1.0000 0.60052  0.57577  0.59390  Biso   1.000  N
  N26      1.0000 0.47220  0.53754  0.60760  Biso   1.000  N
  N27      1.0000 0.48493  0.55066  0.72920  Biso   1.000  N
  C47      1.0000 0.44094  0.55455  0.58700  Biso   1.000  C
  H45      1.0000 0.42620  0.55030  0.51180  Biso   1.000  H
  C48      1.0000 0.46011  0.57551  0.77270  Biso   1.000  C
  H46      1.0000 0.46210  0.58870  0.85290  Biso   1.000  H
  N28      1.0000 0.43192  0.57884  0.68490  Biso   1.000  N
  N29      1.0000 0.51152  0.47455  0.67850  Biso   1.000  N
  N30      1.0000 0.52071  0.49480  0.79120  Biso   1.000  N
  C49      1.0000 0.51510  0.43983  0.71980  Biso   1.000  C
  H47      1.0000 0.51050  0.41960  0.66410  Biso   1.000  H
  C50      1.0000 0.52975  0.47123  0.88920  Biso   1.000  C
  H48      1.0000 0.53770  0.47840  0.97430  Biso   1.000  H
  N31      1.0000 0.52598  0.43606  0.85020  Biso   1.000  N
  B3       1.0000 0.52230  0.53751  0.78890  Biso   1.000  B
  H49      1.0000 0.52650  0.54770  0.87910  Biso   1.000  H
  Mn3      1.0000 0.63586  0.62835  0.57845  Biso   1.000  Mn
  N32      1.0000 0.62540  0.63069  0.38160  Biso   1.000  N
  C51      1.0000 0.59377  0.63785  0.32670  Biso   1.000  C
  H50      1.0000 0.59190  0.63720  0.23330  Biso   1.000  H
  C52      1.0000 0.56107  0.64691  0.40460  Biso   1.000  C
  C53      1.0000 0.52720  0.64890  0.33590  Biso   1.000  C
  H51      1.0000 0.52650  0.64530  0.24320  Biso   1.000  H
  C54      1.0000 0.49480  0.65610  0.40470  Biso   1.000  C
  H52      1.0000 0.47250  0.65730  0.35850  Biso   1.000  H
  C55      1.0000 0.49550  0.66140  0.53820  Biso   1.000  C
  H53      1.0000 0.47340  0.66560  0.58370  Biso   1.000  H
  C56      1.0000 0.52840  0.66080  0.61010  Biso   1.000  C
  H54      1.0000 0.52820  0.66520  0.70240  Biso   1.000  H
  C57      1.0000 0.56128  0.65362  0.54470  Biso   1.000  C
  O5       1.0000 0.59255  0.65453  0.62040  Biso   1.000  O
  N33      1.0000 0.67902  0.59918  0.51460  Biso   1.000  N
  C58      1.0000 0.70541  0.58667  0.59040  Biso   1.000  C
  H55      1.0000 0.72350  0.57220  0.54960  Biso   1.000  H
  C59      1.0000 0.70896  0.59342  0.73360  Biso   1.000  C
  C60      1.0000 0.74210  0.58220  0.79790  Biso   1.000  C
  H56      1.0000 0.75960  0.56890  0.74920  Biso   1.000  H
  C61      1.0000 0.74890  0.59040  0.93120  Biso   1.000  C
  H57      1.0000 0.77090  0.58270  0.97110  Biso   1.000  H
  C62      1.0000 0.72320  0.61000  0.00590  Biso   1.000  C
  H58      1.0000 0.72820  0.61600  0.09520  Biso   1.000  H
  C63      1.0000 0.69040  0.62050  0.94740  Biso   1.000  C
  H59      1.0000 0.67300  0.63320  0.99880  Biso   1.000  H
  C64      1.0000 0.68229  0.61252  0.81290  Biso   1.000  C
  O6       1.0000 0.65034  0.62422  0.76140  Biso   1.000  O
  C65      1.0000 0.65767  0.62023  0.29810  Biso   1.000  C
  H60      1.0000 0.67400  0.64130  0.28640  Biso   1.000  H
  H61      1.0000 0.64950  0.61200  0.20990  Biso   1.000  H
  C66      1.0000 0.67753  0.58956  0.36960  Biso   1.000  C
  H62      1.0000 0.66440  0.56640  0.35700  Biso   1.000  H
  H63      1.0000 0.70240  0.58680  0.33390  Biso   1.000  H
  N34      1.0000 0.05267  0.03782  0.05670  Biso   1.000  N
  N35      1.0000 0.05279  0.04907  0.19090  Biso   1.000  N
  C67      1.0000 0.08139  0.05475  0.00350  Biso   1.000  C
  H64      1.0000 0.08800  0.05260  0.91330  Biso   1.000  H
  C68      1.0000 0.08167  0.07125  0.20920  Biso   1.000  C
  H65      1.0000 0.08800  0.08220  0.29080  Biso   1.000  H
  N36      1.0000 0.10052  0.07577  0.09390  Biso   1.000  N
  N37      1.0000 0.97220  0.03754  0.10760  Biso   1.000  N
  N38      1.0000 0.98493  0.05066  0.22920  Biso   1.000  N
  C69      1.0000 0.94094  0.05455  0.08700  Biso   1.000  C
  H66      1.0000 0.92620  0.05030  0.01180  Biso   1.000  H
  C70      1.0000 0.96011  0.07551  0.27270  Biso   1.000  C
  H67      1.0000 0.96210  0.08870  0.35290  Biso   1.000  H
  N39      1.0000 0.93192  0.07884  0.18490  Biso   1.000  N
  N40      1.0000 0.01152  0.97455  0.17850  Biso   1.000  N
  N41      1.0000 0.02071  0.99480  0.29120  Biso   1.000  N
  C71      1.0000 0.01510  0.93983  0.21980  Biso   1.000  C
  H68      1.0000 0.01050  0.91960  0.16410  Biso   1.000  H
  C72      1.0000 0.02975  0.97123  0.38920  Biso   1.000  C
  H69      1.0000 0.03770  0.97840  0.47430  Biso   1.000  H
  N42      1.0000 0.02598  0.93606  0.35020  Biso   1.000  N
  B4       1.0000 0.02230  0.03751  0.28890  Biso   1.000  B
  H70      1.0000 0.02650  0.04770  0.37910  Biso   1.000  H
  Mn4      1.0000 0.13586  0.12835  0.07845  Biso   1.000  Mn
  N43      1.0000 0.12540  0.13069  0.88160  Biso   1.000  N
  C73      1.0000 0.09377  0.13785  0.82670  Biso   1.000  C
  H71      1.0000 0.09190  0.13720  0.73330  Biso   1.000  H
  C74      1.0000 0.06107  0.14691  0.90460  Biso   1.000  C
  C75      1.0000 0.02720  0.14890  0.83590  Biso   1.000  C
  H72      1.0000 0.02650  0.14530  0.74320  Biso   1.000  H
  C76      1.0000 0.99480  0.15610  0.90470  Biso   1.000  C
  H73      1.0000 0.97250  0.15730  0.85850  Biso   1.000  H
  C77      1.0000 0.99550  0.16140  0.03820  Biso   1.000  C
  H74      1.0000 0.97340  0.16560  0.08370  Biso   1.000  H
  C78      1.0000 0.02840  0.16080  0.11010  Biso   1.000  C
  H75      1.0000 0.02820  0.16520  0.20240  Biso   1.000  H
  C79      1.0000 0.06128  0.15362  0.04470  Biso   1.000  C
  O7       1.0000 0.09255  0.15453  0.12040  Biso   1.000  O
  N44      1.0000 0.17902  0.09918  0.01460  Biso   1.000  N
  C80      1.0000 0.20541  0.08667  0.09040  Biso   1.000  C
  H76      1.0000 0.22350  0.07220  0.04960  Biso   1.000  H
  C81      1.0000 0.20896  0.09342  0.23360  Biso   1.000  C
  C82      1.0000 0.24210  0.08220  0.29790  Biso   1.000  C
  H77      1.0000 0.25960  0.06890  0.24920  Biso   1.000  H
  C83      1.0000 0.24890  0.09040  0.43120  Biso   1.000  C
  H78      1.0000 0.27090  0.08270  0.47110  Biso   1.000  H
  C84      1.0000 0.22320  0.11000  0.50590  Biso   1.000  C
  H79      1.0000 0.22820  0.11600  0.59520  Biso   1.000  H
  C85      1.0000 0.19040  0.12050  0.44740  Biso   1.000  C
  H80      1.0000 0.17300  0.13320  0.49880  Biso   1.000  H
  C86      1.0000 0.18229  0.11252  0.31290  Biso   1.000  C
  O8       1.0000 0.15034  0.12422  0.26140  Biso   1.000  O
  C87      1.0000 0.15767  0.12023  0.79810  Biso   1.000  C
  H81      1.0000 0.17400  0.14130  0.78640  Biso   1.000  H
  H82      1.0000 0.14950  0.11200  0.70990  Biso   1.000  H
  C88      1.0000 0.17753  0.08956  0.86960  Biso   1.000  C
  H83      1.0000 0.16440  0.06640  0.85700  Biso   1.000  H
  H84      1.0000 0.20240  0.08680  0.83390  Biso   1.000  H
  N45      1.0000 0.28782  0.19733  0.30670  Biso   1.000  N
  N46      1.0000 0.29907  0.19721  0.44090  Biso   1.000  N
  C89      1.0000 0.30475  0.16861  0.25350  Biso   1.000  C
  H85      1.0000 0.30260  0.16200  0.16330  Biso   1.000  H
  C90      1.0000 0.32125  0.16833  0.45920  Biso   1.000  C
  H86      1.0000 0.33220  0.16200  0.54080  Biso   1.000  H
  N47      1.0000 0.32577  0.14948  0.34390  Biso   1.000  N
  N48      1.0000 0.28754  0.27780  0.35760  Biso   1.000  N
  N49      1.0000 0.30066  0.26507  0.47920  Biso   1.000  N
  C91      1.0000 0.30455  0.30906  0.33700  Biso   1.000  C
  H87      1.0000 0.30030  0.32380  0.26180  Biso   1.000  H
  C92      1.0000 0.32551  0.28989  0.52270  Biso   1.000  C
  H88      1.0000 0.33870  0.28790  0.60290  Biso   1.000  H
  N50      1.0000 0.32884  0.31808  0.43490  Biso   1.000  N
  N51      1.0000 0.22455  0.23848  0.42850  Biso   1.000  N
  N52      1.0000 0.24480  0.22929  0.54120  Biso   1.000  N
  C93      1.0000 0.18983  0.23490  0.46980  Biso   1.000  C
  H89      1.0000 0.16960  0.23950  0.41410  Biso   1.000  H
  C94      1.0000 0.22123  0.22025  0.63920  Biso   1.000  C
  H90      1.0000 0.22840  0.21230  0.72430  Biso   1.000  H
  N53      1.0000 0.18606  0.22402  0.60020  Biso   1.000  N
  B5       1.0000 0.28751  0.22770  0.53890  Biso   1.000  B
  H91      1.0000 0.29770  0.22350  0.62910  Biso   1.000  H
  Mn5      1.0000 0.37835  0.11414  0.32845  Biso   1.000  Mn
  N54      1.0000 0.38069  0.12460  0.13160  Biso   1.000  N
  C95      1.0000 0.38785  0.15623  0.07670  Biso   1.000  C
  H92      1.0000 0.38720  0.15810  0.98330  Biso   1.000  H
  C96      1.0000 0.39691  0.18893  0.15460  Biso   1.000  C
  C97      1.0000 0.39890  0.22280  0.08590  Biso   1.000  C
  H93      1.0000 0.39530  0.22350  0.99320  Biso   1.000  H
  C98      1.0000 0.40610  0.25520  0.15470  Biso   1.000  C
  H94      1.0000 0.40730  0.27750  0.10850  Biso   1.000  H
  C99      1.0000 0.41140  0.25450  0.28820  Biso   1.000  C
  H95      1.0000 0.41560  0.27660  0.33370  Biso   1.000  H
  C100     1.0000 0.41080  0.22160  0.36010  Biso   1.000  C
  H96      1.0000 0.41520  0.22180  0.45240  Biso   1.000  H
  C101     1.0000 0.40362  0.18872  0.29470  Biso   1.000  C
  O9       1.0000 0.40453  0.15745  0.37040  Biso   1.000  O
  N55      1.0000 0.34918  0.07098  0.26460  Biso   1.000  N
  C102     1.0000 0.33667  0.04459  0.34040  Biso   1.000  C
  H97      1.0000 0.32220  0.02650  0.29960  Biso   1.000  H
  C103     1.0000 0.34342  0.04104  0.48360  Biso   1.000  C
  C104     1.0000 0.33220  0.00790  0.54790  Biso   1.000  C
  H98      1.0000 0.31890  0.99040  0.49920  Biso   1.000  H
  C105     1.0000 0.34040  0.00110  0.68120  Biso   1.000  C
  H99      1.0000 0.33270  0.97910  0.72110  Biso   1.000  H
  C106     1.0000 0.36000  0.02680  0.75590  Biso   1.000  C
  H100     1.0000 0.36600  0.02180  0.84520  Biso   1.000  H
  C107     1.0000 0.37050  0.05960  0.69740  Biso   1.000  C
  H101     1.0000 0.38320  0.07700  0.74880  Biso   1.000  H
  C108     1.0000 0.36252  0.06771  0.56290  Biso   1.000  C
  O10      1.0000 0.37422  0.09966  0.51140  Biso   1.000  O
  C109     1.0000 0.37023  0.09233  0.04810  Biso   1.000  C
  H102     1.0000 0.39130  0.07600  0.03640  Biso   1.000  H
  H103     1.0000 0.36200  0.10050  0.95990  Biso   1.000  H
  C110     1.0000 0.33956  0.07247  0.11960  Biso   1.000  C
  H104     1.0000 0.31640  0.08560  0.10700  Biso   1.000  H
  H105     1.0000 0.33680  0.04760  0.08390  Biso   1.000  H
  N56      1.0000 0.78782  0.69733  0.80670  Biso   1.000  N
  N57      1.0000 0.79907  0.69721  0.94090  Biso   1.000  N
  C111     1.0000 0.80475  0.66861  0.75350  Biso   1.000  C
  H106     1.0000 0.80260  0.66200  0.66330  Biso   1.000  H
  C112     1.0000 0.82125  0.66833  0.95920  Biso   1.000  C
  H107     1.0000 0.83220  0.66200  0.04080  Biso   1.000  H
  N58      1.0000 0.82577  0.64948  0.84390  Biso   1.000  N
  N59      1.0000 0.78754  0.77780  0.85760  Biso   1.000  N
  N60      1.0000 0.80066  0.76507  0.97920  Biso   1.000  N
  C113     1.0000 0.80455  0.80906  0.83700  Biso   1.000  C
  H108     1.0000 0.80030  0.82380  0.76180  Biso   1.000  H
  C114     1.0000 0.82551  0.78989  0.02270  Biso   1.000  C
  H109     1.0000 0.83870  0.78790  0.10290  Biso   1.000  H
  N61      1.0000 0.82884  0.81808  0.93490  Biso   1.000  N
  N62      1.0000 0.72455  0.73848  0.92850  Biso   1.000  N
  N63      1.0000 0.74480  0.72929  0.04120  Biso   1.000  N
  C115     1.0000 0.68983  0.73490  0.96980  Biso   1.000  C
  H110     1.0000 0.66960  0.73950  0.91410  Biso   1.000  H
  C116     1.0000 0.72123  0.72025  0.13920  Biso   1.000  C
  H111     1.0000 0.72840  0.71230  0.22430  Biso   1.000  H
  N64      1.0000 0.68606  0.72402  0.10020  Biso   1.000  N
  B6       1.0000 0.78751  0.72770  0.03890  Biso   1.000  B
  H112     1.0000 0.79770  0.72350  0.12910  Biso   1.000  H
  Mn6      1.0000 0.87835  0.61414  0.82845  Biso   1.000  Mn
  N65      1.0000 0.88069  0.62460  0.63160  Biso   1.000  N
  C117     1.0000 0.88785  0.65623  0.57670  Biso   1.000  C
  H113     1.0000 0.88720  0.65810  0.48330  Biso   1.000  H
  C118     1.0000 0.89691  0.68893  0.65460  Biso   1.000  C
  C119     1.0000 0.89890  0.72280  0.58590  Biso   1.000  C
  H114     1.0000 0.89530  0.72350  0.49320  Biso   1.000  H
  C120     1.0000 0.90610  0.75520  0.65470  Biso   1.000  C
  H115     1.0000 0.90730  0.77750  0.60850  Biso   1.000  H
  C121     1.0000 0.91140  0.75450  0.78820  Biso   1.000  C
  H116     1.0000 0.91560  0.77660  0.83370  Biso   1.000  H
  C122     1.0000 0.91080  0.72160  0.86010  Biso   1.000  C
  H117     1.0000 0.91520  0.72180  0.95240  Biso   1.000  H
  C123     1.0000 0.90362  0.68872  0.79470  Biso   1.000  C
  O11      1.0000 0.90453  0.65745  0.87040  Biso   1.000  O
  N66      1.0000 0.84918  0.57098  0.76460  Biso   1.000  N
  C124     1.0000 0.83667  0.54459  0.84040  Biso   1.000  C
  H118     1.0000 0.82220  0.52650  0.79960  Biso   1.000  H
  C125     1.0000 0.84342  0.54104  0.98360  Biso   1.000  C
  C126     1.0000 0.83220  0.50790  0.04790  Biso   1.000  C
  H119     1.0000 0.81890  0.49040  0.99920  Biso   1.000  H
  C127     1.0000 0.84040  0.50110  0.18120  Biso   1.000  C
  H120     1.0000 0.83270  0.47910  0.22110  Biso   1.000  H
  C128     1.0000 0.86000  0.52680  0.25590  Biso   1.000  C
  H121     1.0000 0.86600  0.52180  0.34520  Biso   1.000  H
  C129     1.0000 0.87050  0.55960  0.19740  Biso   1.000  C
  H122     1.0000 0.88320  0.57700  0.24880  Biso   1.000  H
  C130     1.0000 0.86252  0.56771  0.06290  Biso   1.000  C
  O12      1.0000 0.87422  0.59966  0.01140  Biso   1.000  O
  C131     1.0000 0.87023  0.59233  0.54810  Biso   1.000  C
  H123     1.0000 0.89130  0.57600  0.53640  Biso   1.000  H
  H124     1.0000 0.86200  0.60050  0.45990  Biso   1.000  H
  C132     1.0000 0.83956  0.57247  0.61960  Biso   1.000  C
  H125     1.0000 0.81640  0.58560  0.60700  Biso   1.000  H
  H126     1.0000 0.83680  0.54760  0.58390  Biso   1.000  H
  N67      1.0000 0.21218  0.80267  0.80670  Biso   1.000  N
  N68      1.0000 0.20093  0.80279  0.94090  Biso   1.000  N
  C133     1.0000 0.19525  0.83139  0.75350  Biso   1.000  C
  H127     1.0000 0.19740  0.83800  0.66330  Biso   1.000  H
  C134     1.0000 0.17875  0.83167  0.95920  Biso   1.000  C
  H128     1.0000 0.16780  0.83800  0.04080  Biso   1.000  H
  N69      1.0000 0.17423  0.85052  0.84390  Biso   1.000  N
  N70      1.0000 0.21246  0.72220  0.85760  Biso   1.000  N
  N71      1.0000 0.19934  0.73493  0.97920  Biso   1.000  N
  C135     1.0000 0.19545  0.69094  0.83700  Biso   1.000  C
  H129     1.0000 0.19970  0.67620  0.76180  Biso   1.000  H
  C136     1.0000 0.17449  0.71011  0.02270  Biso   1.000  C
  H130     1.0000 0.16130  0.71210  0.10290  Biso   1.000  H
  N72      1.0000 0.17116  0.68192  0.93490  Biso   1.000  N
  N73      1.0000 0.27545  0.76152  0.92850  Biso   1.000  N
  N74      1.0000 0.25520  0.77071  0.04120  Biso   1.000  N
  C137     1.0000 0.31017  0.76510  0.96980  Biso   1.000  C
  H131     1.0000 0.33040  0.76050  0.91410  Biso   1.000  H
  C138     1.0000 0.27877  0.77975  0.13920  Biso   1.000  C
  H132     1.0000 0.27160  0.78770  0.22430  Biso   1.000  H
  N75      1.0000 0.31394  0.77598  0.10020  Biso   1.000  N
  B7       1.0000 0.21249  0.77230  0.03890  Biso   1.000  B
  H133     1.0000 0.20230  0.77650  0.12910  Biso   1.000  H
  Mn7      1.0000 0.12165  0.88586  0.82845  Biso   1.000  Mn
  N76      1.0000 0.11931  0.87540  0.63160  Biso   1.000  N
  C139     1.0000 0.11215  0.84377  0.57670  Biso   1.000  C
  H134     1.0000 0.11280  0.84190  0.48330  Biso   1.000  H
  C140     1.0000 0.10309  0.81107  0.65460  Biso   1.000  C
  C141     1.0000 0.10110  0.77720  0.58590  Biso   1.000  C
  H135     1.0000 0.10470  0.77650  0.49320  Biso   1.000  H
  C142     1.0000 0.09390  0.74480  0.65470  Biso   1.000  C
  H136     1.0000 0.09270  0.72250  0.60850  Biso   1.000  H
  C143     1.0000 0.08860  0.74550  0.78820  Biso   1.000  C
  H137     1.0000 0.08440  0.72340  0.83370  Biso   1.000  H
  C144     1.0000 0.08920  0.77840  0.86010  Biso   1.000  C
  H138     1.0000 0.08480  0.77820  0.95240  Biso   1.000  H
  C145     1.0000 0.09638  0.81128  0.79470  Biso   1.000  C
  O13      1.0000 0.09547  0.84255  0.87040  Biso   1.000  O
  N77      1.0000 0.15082  0.92902  0.76460  Biso   1.000  N
  C146     1.0000 0.16333  0.95541  0.84040  Biso   1.000  C
  H139     1.0000 0.17780  0.97350  0.79960  Biso   1.000  H
  C147     1.0000 0.15658  0.95896  0.98360  Biso   1.000  C
  C148     1.0000 0.16780  0.99210  0.04790  Biso   1.000  C
  H140     1.0000 0.18110  0.00960  0.99920  Biso   1.000  H
  C149     1.0000 0.15960  0.99890  0.18120  Biso   1.000  C
  H141     1.0000 0.16730  0.02090  0.22110  Biso   1.000  H
  C150     1.0000 0.14000  0.97320  0.25590  Biso   1.000  C
  H142     1.0000 0.13400  0.97820  0.34520  Biso   1.000  H
  C151     1.0000 0.12950  0.94040  0.19740  Biso   1.000  C
  H143     1.0000 0.11680  0.92300  0.24880  Biso   1.000  H
  C152     1.0000 0.13748  0.93229  0.06290  Biso   1.000  C
  O14      1.0000 0.12578  0.90034  0.01140  Biso   1.000  O
  C153     1.0000 0.12977  0.90767  0.54810  Biso   1.000  C
  H144     1.0000 0.10870  0.92400  0.53640  Biso   1.000  H
  H145     1.0000 0.13800  0.89950  0.45990  Biso   1.000  H
  C154     1.0000 0.16044  0.92753  0.61960  Biso   1.000  C
  H146     1.0000 0.18360  0.91440  0.60700  Biso   1.000  H
  H147     1.0000 0.16320  0.95240  0.58390  Biso   1.000  H
  N78      1.0000 0.71218  0.30267  0.30670  Biso   1.000  N
  N79      1.0000 0.70093  0.30279  0.44090  Biso   1.000  N
  C155     1.0000 0.69525  0.33139  0.25350  Biso   1.000  C
  H148     1.0000 0.69740  0.33800  0.16330  Biso   1.000  H
  C156     1.0000 0.67875  0.33167  0.45920  Biso   1.000  C
  H149     1.0000 0.66780  0.33800  0.54080  Biso   1.000  H
  N80      1.0000 0.67423  0.35052  0.34390  Biso   1.000  N
  N81      1.0000 0.71246  0.22220  0.35760  Biso   1.000  N
  N82      1.0000 0.69934  0.23493  0.47920  Biso   1.000  N
  C157     1.0000 0.69545  0.19094  0.33700  Biso   1.000  C
  H150     1.0000 0.69970  0.17620  0.26180  Biso   1.000  H
  C158     1.0000 0.67449  0.21011  0.52270  Biso   1.000  C
  H151     1.0000 0.66130  0.21210  0.60290  Biso   1.000  H
  N83      1.0000 0.67116  0.18192  0.43490  Biso   1.000  N
  N84      1.0000 0.77545  0.26152  0.42850  Biso   1.000  N
  N85      1.0000 0.75520  0.27071  0.54120  Biso   1.000  N
  C159     1.0000 0.81017  0.26510  0.46980  Biso   1.000  C
  H152     1.0000 0.83040  0.26050  0.41410  Biso   1.000  H
  C160     1.0000 0.77877  0.27975  0.63920  Biso   1.000  C
  H153     1.0000 0.77160  0.28770  0.72430  Biso   1.000  H
  N86      1.0000 0.81394  0.27598  0.60020  Biso   1.000  N
  B8       1.0000 0.71249  0.27230  0.53890  Biso   1.000  B
  H154     1.0000 0.70230  0.27650  0.62910  Biso   1.000  H
  Mn8      1.0000 0.62165  0.38586  0.32845  Biso   1.000  Mn
  N87      1.0000 0.61931  0.37540  0.13160  Biso   1.000  N
  C161     1.0000 0.61215  0.34377  0.07670  Biso   1.000  C
  H155     1.0000 0.61280  0.34190  0.98330  Biso   1.000  H
  C162     1.0000 0.60309  0.31107  0.15460  Biso   1.000  C
  C163     1.0000 0.60110  0.27720  0.08590  Biso   1.000  C
  H156     1.0000 0.60470  0.27650  0.99320  Biso   1.000  H
  C164     1.0000 0.59390  0.24480  0.15470  Biso   1.000  C
  H157     1.0000 0.59270  0.22250  0.10850  Biso   1.000  H
  C165     1.0000 0.58860  0.24550  0.28820  Biso   1.000  C
  H158     1.0000 0.58440  0.22340  0.33370  Biso   1.000  H
  C166     1.0000 0.58920  0.27840  0.36010  Biso   1.000  C
  H159     1.0000 0.58480  0.27820  0.45240  Biso   1.000  H
  C167     1.0000 0.59638  0.31128  0.29470  Biso   1.000  C
  O15      1.0000 0.59547  0.34255  0.37040  Biso   1.000  O
  N88      1.0000 0.65082  0.42902  0.26460  Biso   1.000  N
  C168     1.0000 0.66333  0.45541  0.34040  Biso   1.000  C
  H160     1.0000 0.67780  0.47350  0.29960  Biso   1.000  H
  C169     1.0000 0.65658  0.45896  0.48360  Biso   1.000  C
  C170     1.0000 0.66780  0.49210  0.54790  Biso   1.000  C
  H161     1.0000 0.68110  0.50960  0.49920  Biso   1.000  H
  C171     1.0000 0.65960  0.49890  0.68120  Biso   1.000  C
  H162     1.0000 0.66730  0.52090  0.72110  Biso   1.000  H
  C172     1.0000 0.64000  0.47320  0.75590  Biso   1.000  C
  H163     1.0000 0.63400  0.47820  0.84520  Biso   1.000  H
  C173     1.0000 0.62950  0.44040  0.69740  Biso   1.000  C
  H164     1.0000 0.61680  0.42300  0.74880  Biso   1.000  H
  C174     1.0000 0.63748  0.43229  0.56290  Biso   1.000  C
  O16      1.0000 0.62578  0.40034  0.51140  Biso   1.000  O
  C175     1.0000 0.62977  0.40767  0.04810  Biso   1.000  C
  H165     1.0000 0.60870  0.42400  0.03640  Biso   1.000  H
  H166     1.0000 0.63800  0.39950  0.95990  Biso   1.000  H
  C176     1.0000 0.66044  0.42753  0.11960  Biso   1.000  C
  H167     1.0000 0.68360  0.41440  0.10700  Biso   1.000  H
  H168     1.0000 0.66320  0.45240  0.08390  Biso   1.000  H
  N89      1.0000 0.05267  0.53782  0.94330  Biso   1.000  N
  N90      1.0000 0.05279  0.54907  0.80910  Biso   1.000  N
  C177     1.0000 0.08139  0.55475  0.99650  Biso   1.000  C
  H169     1.0000 0.08800  0.55260  0.08670  Biso   1.000  H
  C178     1.0000 0.08167  0.57125  0.79080  Biso   1.000  C
  H170     1.0000 0.08800  0.58220  0.70920  Biso   1.000  H
  N91      1.0000 0.10052  0.57577  0.90610  Biso   1.000  N
  N92      1.0000 0.97220  0.53754  0.89240  Biso   1.000  N
  N93      1.0000 0.98493  0.55066  0.77080  Biso   1.000  N
  C179     1.0000 0.94094  0.55455  0.91300  Biso   1.000  C
  H171     1.0000 0.92620  0.55030  0.98820  Biso   1.000  H
  C180     1.0000 0.96011  0.57551  0.72730  Biso   1.000  C
  H172     1.0000 0.96210  0.58870  0.64710  Biso   1.000  H
  N94      1.0000 0.93192  0.57884  0.81510  Biso   1.000  N
  N95      1.0000 0.01152  0.47455  0.82150  Biso   1.000  N
  N96      1.0000 0.02071  0.49480  0.70880  Biso   1.000  N
  C181     1.0000 0.01510  0.43983  0.78020  Biso   1.000  C
  H173     1.0000 0.01050  0.41960  0.83590  Biso   1.000  H
  C182     1.0000 0.02975  0.47123  0.61080  Biso   1.000  C
  H174     1.0000 0.03770  0.47840  0.52570  Biso   1.000  H
  N97      1.0000 0.02598  0.43606  0.64980  Biso   1.000  N
  B9       1.0000 0.02230  0.53751  0.71110  Biso   1.000  B
  H175     1.0000 0.02650  0.54770  0.62090  Biso   1.000  H
  Mn9      1.0000 0.13586  0.62835  0.92155  Biso   1.000  Mn
  N98      1.0000 0.12540  0.63069  0.11840  Biso   1.000  N
  C183     1.0000 0.09377  0.63785  0.17330  Biso   1.000  C
  H176     1.0000 0.09190  0.63720  0.26670  Biso   1.000  H
  C184     1.0000 0.06107  0.64691  0.09540  Biso   1.000  C
  C185     1.0000 0.02720  0.64890  0.16410  Biso   1.000  C
  H177     1.0000 0.02650  0.64530  0.25680  Biso   1.000  H
  C186     1.0000 0.99480  0.65610  0.09530  Biso   1.000  C
  H178     1.0000 0.97250  0.65730  0.14150  Biso   1.000  H
  C187     1.0000 0.99550  0.66140  0.96180  Biso   1.000  C
  H179     1.0000 0.97340  0.66560  0.91630  Biso   1.000  H
  C188     1.0000 0.02840  0.66080  0.88990  Biso   1.000  C
  H180     1.0000 0.02820  0.66520  0.79760  Biso   1.000  H
  C189     1.0000 0.06128  0.65362  0.95530  Biso   1.000  C
  O17      1.0000 0.09255  0.65453  0.87960  Biso   1.000  O
  N99      1.0000 0.17902  0.59918  0.98540  Biso   1.000  N
  C190     1.0000 0.20541  0.58667  0.90960  Biso   1.000  C
  H181     1.0000 0.22350  0.57220  0.95040  Biso   1.000  H
  C191     1.0000 0.20896  0.59342  0.76640  Biso   1.000  C
  C192     1.0000 0.24210  0.58220  0.70210  Biso   1.000  C
  H182     1.0000 0.25960  0.56890  0.75080  Biso   1.000  H
  C193     1.0000 0.24890  0.59040  0.56880  Biso   1.000  C
  H183     1.0000 0.27090  0.58270  0.52890  Biso   1.000  H
  C194     1.0000 0.22320  0.61000  0.49410  Biso   1.000  C
  H184     1.0000 0.22820  0.61600  0.40480  Biso   1.000  H
  C195     1.0000 0.19040  0.62050  0.55260  Biso   1.000  C
  H185     1.0000 0.17300  0.63320  0.50120  Biso   1.000  H
  C196     1.0000 0.18229  0.61252  0.68710  Biso   1.000  C
  O18      1.0000 0.15034  0.62422  0.73860  Biso   1.000  O
  C197     1.0000 0.15767  0.62023  0.20190  Biso   1.000  C
  H186     1.0000 0.17400  0.64130  0.21360  Biso   1.000  H
  H187     1.0000 0.14950  0.61200  0.29010  Biso   1.000  H
  C198     1.0000 0.17753  0.58956  0.13040  Biso   1.000  C
  H188     1.0000 0.16440  0.56640  0.14300  Biso   1.000  H
  H189     1.0000 0.20240  0.58680  0.16610  Biso   1.000  H
  N100     1.0000 0.55267  0.03782  0.44330  Biso   1.000  N
  N101     1.0000 0.55279  0.04907  0.30910  Biso   1.000  N
  C199     1.0000 0.58139  0.05475  0.49650  Biso   1.000  C
  H190     1.0000 0.58800  0.05260  0.58670  Biso   1.000  H
  C200     1.0000 0.58167  0.07125  0.29080  Biso   1.000  C
  H191     1.0000 0.58800  0.08220  0.20920  Biso   1.000  H
  N102     1.0000 0.60052  0.07577  0.40610  Biso   1.000  N
  N103     1.0000 0.47220  0.03754  0.39240  Biso   1.000  N
  N104     1.0000 0.48493  0.05066  0.27080  Biso   1.000  N
  C201     1.0000 0.44094  0.05455  0.41300  Biso   1.000  C
  H192     1.0000 0.42620  0.05030  0.48820  Biso   1.000  H
  C202     1.0000 0.46011  0.07551  0.22730  Biso   1.000  C
  H193     1.0000 0.46210  0.08870  0.14710  Biso   1.000  H
  N105     1.0000 0.43192  0.07884  0.31510  Biso   1.000  N
  N106     1.0000 0.51152  0.97455  0.32150  Biso   1.000  N
  N107     1.0000 0.52071  0.99480  0.20880  Biso   1.000  N
  C203     1.0000 0.51510  0.93983  0.28020  Biso   1.000  C
  H194     1.0000 0.51050  0.91960  0.33590  Biso   1.000  H
  C204     1.0000 0.52975  0.97123  0.11080  Biso   1.000  C
  H195     1.0000 0.53770  0.97840  0.02570  Biso   1.000  H
  N108     1.0000 0.52598  0.93606  0.14980  Biso   1.000  N
  B10      1.0000 0.52230  0.03751  0.21110  Biso   1.000  B
  H196     1.0000 0.52650  0.04770  0.12090  Biso   1.000  H
  Mn10     1.0000 0.63586  0.12835  0.42155  Biso   1.000  Mn
  N109     1.0000 0.62540  0.13069  0.61840  Biso   1.000  N
  C205     1.0000 0.59377  0.13785  0.67330  Biso   1.000  C
  H197     1.0000 0.59190  0.13720  0.76670  Biso   1.000  H
  C206     1.0000 0.56107  0.14691  0.59540  Biso   1.000  C
  C207     1.0000 0.52720  0.14890  0.66410  Biso   1.000  C
  H198     1.0000 0.52650  0.14530  0.75680  Biso   1.000  H
  C208     1.0000 0.49480  0.15610  0.59530  Biso   1.000  C
  H199     1.0000 0.47250  0.15730  0.64150  Biso   1.000  H
  C209     1.0000 0.49550  0.16140  0.46180  Biso   1.000  C
  H200     1.0000 0.47340  0.16560  0.41630  Biso   1.000  H
  C210     1.0000 0.52840  0.16080  0.38990  Biso   1.000  C
  H201     1.0000 0.52820  0.16520  0.29760  Biso   1.000  H
  C211     1.0000 0.56128  0.15362  0.45530  Biso   1.000  C
  O19      1.0000 0.59255  0.15453  0.37960  Biso   1.000  O
  N110     1.0000 0.67902  0.09918  0.48540  Biso   1.000  N
  C212     1.0000 0.70541  0.08667  0.40960  Biso   1.000  C
  H202     1.0000 0.72350  0.07220  0.45040  Biso   1.000  H
  C213     1.0000 0.70896  0.09342  0.26640  Biso   1.000  C
  C214     1.0000 0.74210  0.08220  0.20210  Biso   1.000  C
  H203     1.0000 0.75960  0.06890  0.25080  Biso   1.000  H
  C215     1.0000 0.74890  0.09040  0.06880  Biso   1.000  C
  H204     1.0000 0.77090  0.08270  0.02890  Biso   1.000  H
  C216     1.0000 0.72320  0.11000  0.99410  Biso   1.000  C
  H205     1.0000 0.72820  0.11600  0.90480  Biso   1.000  H
  C217     1.0000 0.69040  0.12050  0.05260  Biso   1.000  C
  H206     1.0000 0.67300  0.13320  0.00120  Biso   1.000  H
  C218     1.0000 0.68229  0.11252  0.18710  Biso   1.000  C
  O20      1.0000 0.65034  0.12422  0.23860  Biso   1.000  O
  C219     1.0000 0.65767  0.12023  0.70190  Biso   1.000  C
  H207     1.0000 0.67400  0.14130  0.71360  Biso   1.000  H
  H208     1.0000 0.64950  0.11200  0.79010  Biso   1.000  H
  C220     1.0000 0.67753  0.08956  0.63040  Biso   1.000  C
  H209     1.0000 0.66440  0.06640  0.64300  Biso   1.000  H
  H210     1.0000 0.70240  0.08680  0.66610  Biso   1.000  H
  N111     1.0000 0.44733  0.46218  0.44330  Biso   1.000  N
  N112     1.0000 0.44721  0.45093  0.30910  Biso   1.000  N
  C221     1.0000 0.41861  0.44525  0.49650  Biso   1.000  C
  H211     1.0000 0.41200  0.44740  0.58670  Biso   1.000  H
  C222     1.0000 0.41833  0.42875  0.29080  Biso   1.000  C
  H212     1.0000 0.41200  0.41780  0.20920  Biso   1.000  H
  N113     1.0000 0.39948  0.42423  0.40610  Biso   1.000  N
  N114     1.0000 0.52780  0.46246  0.39240  Biso   1.000  N
  N115     1.0000 0.51507  0.44934  0.27080  Biso   1.000  N
  C223     1.0000 0.55906  0.44545  0.41300  Biso   1.000  C
  H213     1.0000 0.57380  0.44970  0.48820  Biso   1.000  H
  C224     1.0000 0.53989  0.42449  0.22730  Biso   1.000  C
  H214     1.0000 0.53790  0.41130  0.14710  Biso   1.000  H
  N116     1.0000 0.56808  0.42116  0.31510  Biso   1.000  N
  N117     1.0000 0.48848  0.52545  0.32150  Biso   1.000  N
  N118     1.0000 0.47929  0.50520  0.20880  Biso   1.000  N
  C225     1.0000 0.48490  0.56017  0.28020  Biso   1.000  C
  H215     1.0000 0.48950  0.58040  0.33590  Biso   1.000  H
  C226     1.0000 0.47025  0.52877  0.11080  Biso   1.000  C
  H216     1.0000 0.46230  0.52160  0.02570  Biso   1.000  H
  N119     1.0000 0.47402  0.56394  0.14980  Biso   1.000  N
  B11      1.0000 0.47770  0.46249  0.21110  Biso   1.000  B
  H217     1.0000 0.47350  0.45230  0.12090  Biso   1.000  H
  Mn11     1.0000 0.36414  0.37165  0.42155  Biso   1.000  Mn
  N120     1.0000 0.37460  0.36931  0.61840  Biso   1.000  N
  C227     1.0000 0.40623  0.36215  0.67330  Biso   1.000  C
  H218     1.0000 0.40810  0.36280  0.76670  Biso   1.000  H
  C228     1.0000 0.43893  0.35309  0.59540  Biso   1.000  C
  C229     1.0000 0.47280  0.35110  0.66410  Biso   1.000  C
  H219     1.0000 0.47350  0.35470  0.75680  Biso   1.000  H
  C230     1.0000 0.50520  0.34390  0.59530  Biso   1.000  C
  H220     1.0000 0.52750  0.34270  0.64150  Biso   1.000  H
  C231     1.0000 0.50450  0.33860  0.46180  Biso   1.000  C
  H221     1.0000 0.52660  0.33440  0.41630  Biso   1.000  H
  C232     1.0000 0.47160  0.33920  0.38990  Biso   1.000  C
  H222     1.0000 0.47180  0.33480  0.29760  Biso   1.000  H
  C233     1.0000 0.43872  0.34638  0.45530  Biso   1.000  C
  O21      1.0000 0.40745  0.34547  0.37960  Biso   1.000  O
  N121     1.0000 0.32098  0.40082  0.48540  Biso   1.000  N
  C234     1.0000 0.29459  0.41333  0.40960  Biso   1.000  C
  H223     1.0000 0.27650  0.42780  0.45040  Biso   1.000  H
  C235     1.0000 0.29104  0.40658  0.26640  Biso   1.000  C
  C236     1.0000 0.25790  0.41780  0.20210  Biso   1.000  C
  H224     1.0000 0.24040  0.43110  0.25080  Biso   1.000  H
  C237     1.0000 0.25110  0.40960  0.06880  Biso   1.000  C
  H225     1.0000 0.22910  0.41730  0.02890  Biso   1.000  H
  C238     1.0000 0.27680  0.39000  0.99410  Biso   1.000  C
  H226     1.0000 0.27180  0.38400  0.90480  Biso   1.000  H
  C239     1.0000 0.30960  0.37950  0.05260  Biso   1.000  C
  H227     1.0000 0.32700  0.36680  0.00120  Biso   1.000  H
  C240     1.0000 0.31771  0.38748  0.18710  Biso   1.000  C
  O22      1.0000 0.34966  0.37578  0.23860  Biso   1.000  O
  C241     1.0000 0.34233  0.37977  0.70190  Biso   1.000  C
  H228     1.0000 0.32600  0.35870  0.71360  Biso   1.000  H
  H229     1.0000 0.35050  0.38800  0.79010  Biso   1.000  H
  C242     1.0000 0.32247  0.41044  0.63040  Biso   1.000  C
  H230     1.0000 0.33560  0.43360  0.64300  Biso   1.000  H
  H231     1.0000 0.29760  0.41320  0.66610  Biso   1.000  H
  N122     1.0000 0.94733  0.96218  0.94330  Biso   1.000  N
  N123     1.0000 0.94721  0.95093  0.80910  Biso   1.000  N
  C243     1.0000 0.91861  0.94525  0.99650  Biso   1.000  C
  H232     1.0000 0.91200  0.94740  0.08670  Biso   1.000  H
  C244     1.0000 0.91833  0.92875  0.79080  Biso   1.000  C
  H233     1.0000 0.91200  0.91780  0.70920  Biso   1.000  H
  N124     1.0000 0.89948  0.92423  0.90610  Biso   1.000  N
  N125     1.0000 0.02780  0.96246  0.89240  Biso   1.000  N
  N126     1.0000 0.01507  0.94934  0.77080  Biso   1.000  N
  C245     1.0000 0.05906  0.94545  0.91300  Biso   1.000  C
  H234     1.0000 0.07380  0.94970  0.98820  Biso   1.000  H
  C246     1.0000 0.03989  0.92449  0.72730  Biso   1.000  C
  H235     1.0000 0.03790  0.91130  0.64710  Biso   1.000  H
  N127     1.0000 0.06808  0.92116  0.81510  Biso   1.000  N
  N128     1.0000 0.98848  0.02545  0.82150  Biso   1.000  N
  N129     1.0000 0.97929  0.00520  0.70880  Biso   1.000  N
  C247     1.0000 0.98490  0.06017  0.78020  Biso   1.000  C
  H236     1.0000 0.98950  0.08040  0.83590  Biso   1.000  H
  C248     1.0000 0.97025  0.02877  0.61080  Biso   1.000  C
  H237     1.0000 0.96230  0.02160  0.52570  Biso   1.000  H
  N130     1.0000 0.97402  0.06394  0.64980  Biso   1.000  N
  B12      1.0000 0.97770  0.96249  0.71110  Biso   1.000  B
  H238     1.0000 0.97350  0.95230  0.62090  Biso   1.000  H
  Mn12     1.0000 0.86414  0.87165  0.92155  Biso   1.000  Mn
  N131     1.0000 0.87460  0.86931  0.11840  Biso   1.000  N
  C249     1.0000 0.90623  0.86215  0.17330  Biso   1.000  C
  H239     1.0000 0.90810  0.86280  0.26670  Biso   1.000  H
  C250     1.0000 0.93893  0.85309  0.09540  Biso   1.000  C
  C251     1.0000 0.97280  0.85110  0.16410  Biso   1.000  C
  H240     1.0000 0.97350  0.85470  0.25680  Biso   1.000  H
  C252     1.0000 0.00520  0.84390  0.09530  Biso   1.000  C
  H241     1.0000 0.02750  0.84270  0.14150  Biso   1.000  H
  C253     1.0000 0.00450  0.83860  0.96180  Biso   1.000  C
  H242     1.0000 0.02660  0.83440  0.91630  Biso   1.000  H
  C254     1.0000 0.97160  0.83920  0.88990  Biso   1.000  C
  H243     1.0000 0.97180  0.83480  0.79760  Biso   1.000  H
  C255     1.0000 0.93872  0.84638  0.95530  Biso   1.000  C
  O23      1.0000 0.90745  0.84547  0.87960  Biso   1.000  O
  N132     1.0000 0.82098  0.90082  0.98540  Biso   1.000  N
  C256     1.0000 0.79459  0.91333  0.90960  Biso   1.000  C
  H244     1.0000 0.77650  0.92780  0.95040  Biso   1.000  H
  C257     1.0000 0.79104  0.90658  0.76640  Biso   1.000  C
  C258     1.0000 0.75790  0.91780  0.70210  Biso   1.000  C
  H245     1.0000 0.74040  0.93110  0.75080  Biso   1.000  H
  C259     1.0000 0.75110  0.90960  0.56880  Biso   1.000  C
  H246     1.0000 0.72910  0.91730  0.52890  Biso   1.000  H
  C260     1.0000 0.77680  0.89000  0.49410  Biso   1.000  C
  H247     1.0000 0.77180  0.88400  0.40480  Biso   1.000  H
  C261     1.0000 0.80960  0.87950  0.55260  Biso   1.000  C
  H248     1.0000 0.82700  0.86680  0.50120  Biso   1.000  H
  C262     1.0000 0.81771  0.88748  0.68710  Biso   1.000  C
  O24      1.0000 0.84966  0.87578  0.73860  Biso   1.000  O
  C263     1.0000 0.84233  0.87977  0.20190  Biso   1.000  C
  H249     1.0000 0.82600  0.85870  0.21360  Biso   1.000  H
  H250     1.0000 0.85050  0.88800  0.29010  Biso   1.000  H
  C264     1.0000 0.82247  0.91044  0.13040  Biso   1.000  C
  H251     1.0000 0.83560  0.93360  0.14300  Biso   1.000  H
  H252     1.0000 0.79760  0.91320  0.16610  Biso   1.000  H
  N133     1.0000 0.71218  0.80267  0.69330  Biso   1.000  N
  N134     1.0000 0.70093  0.80279  0.55910  Biso   1.000  N
  C265     1.0000 0.69525  0.83139  0.74650  Biso   1.000  C
  H253     1.0000 0.69740  0.83800  0.83670  Biso   1.000  H
  C266     1.0000 0.67875  0.83167  0.54080  Biso   1.000  C
  H254     1.0000 0.66780  0.83800  0.45920  Biso   1.000  H
  N135     1.0000 0.67423  0.85052  0.65610  Biso   1.000  N
  N136     1.0000 0.71246  0.72220  0.64240  Biso   1.000  N
  N137     1.0000 0.69934  0.73493  0.52080  Biso   1.000  N
  C267     1.0000 0.69545  0.69094  0.66300  Biso   1.000  C
  H255     1.0000 0.69970  0.67620  0.73820  Biso   1.000  H
  C268     1.0000 0.67449  0.71011  0.47730  Biso   1.000  C
  H256     1.0000 0.66130  0.71210  0.39710  Biso   1.000  H
  N138     1.0000 0.67116  0.68192  0.56510  Biso   1.000  N
  N139     1.0000 0.77545  0.76152  0.57150  Biso   1.000  N
  N140     1.0000 0.75520  0.77071  0.45880  Biso   1.000  N
  C269     1.0000 0.81017  0.76510  0.53020  Biso   1.000  C
  H257     1.0000 0.83040  0.76050  0.58590  Biso   1.000  H
  C270     1.0000 0.77877  0.77975  0.36080  Biso   1.000  C
  H258     1.0000 0.77160  0.78770  0.27570  Biso   1.000  H
  N141     1.0000 0.81394  0.77598  0.39980  Biso   1.000  N
  B13      1.0000 0.71249  0.77230  0.46110  Biso   1.000  B
  H259     1.0000 0.70230  0.77650  0.37090  Biso   1.000  H
  Mn13     1.0000 0.62165  0.88586  0.67155  Biso   1.000  Mn
  N142     1.0000 0.61931  0.87540  0.86840  Biso   1.000  N
  C271     1.0000 0.61215  0.84377  0.92330  Biso   1.000  C
  H260     1.0000 0.61280  0.84190  0.01670  Biso   1.000  H
  C272     1.0000 0.60309  0.81107  0.84540  Biso   1.000  C
  C273     1.0000 0.60110  0.77720  0.91410  Biso   1.000  C
  H261     1.0000 0.60470  0.77650  0.00680  Biso   1.000  H
  C274     1.0000 0.59390  0.74480  0.84530  Biso   1.000  C
  H262     1.0000 0.59270  0.72250  0.89150  Biso   1.000  H
  C275     1.0000 0.58860  0.74550  0.71180  Biso   1.000  C
  H263     1.0000 0.58440  0.72340  0.66630  Biso   1.000  H
  C276     1.0000 0.58920  0.77840  0.63990  Biso   1.000  C
  H264     1.0000 0.58480  0.77820  0.54760  Biso   1.000  H
  C277     1.0000 0.59638  0.81128  0.70530  Biso   1.000  C
  O25      1.0000 0.59547  0.84255  0.62960  Biso   1.000  O
  N143     1.0000 0.65082  0.92902  0.73540  Biso   1.000  N
  C278     1.0000 0.66333  0.95541  0.65960  Biso   1.000  C
  H265     1.0000 0.67780  0.97350  0.70040  Biso   1.000  H
  C279     1.0000 0.65658  0.95896  0.51640  Biso   1.000  C
  C280     1.0000 0.66780  0.99210  0.45210  Biso   1.000  C
  H266     1.0000 0.68110  0.00960  0.50080  Biso   1.000  H
  C281     1.0000 0.65960  0.99890  0.31880  Biso   1.000  C
  H267     1.0000 0.66730  0.02090  0.27890  Biso   1.000  H
  C282     1.0000 0.64000  0.97320  0.24410  Biso   1.000  C
  H268     1.0000 0.63400  0.97820  0.15480  Biso   1.000  H
  C283     1.0000 0.62950  0.94040  0.30260  Biso   1.000  C
  H269     1.0000 0.61680  0.92300  0.25120  Biso   1.000  H
  C284     1.0000 0.63748  0.93229  0.43710  Biso   1.000  C
  O26      1.0000 0.62578  0.90034  0.48860  Biso   1.000  O
  C285     1.0000 0.62977  0.90767  0.95190  Biso   1.000  C
  H270     1.0000 0.60870  0.92400  0.96360  Biso   1.000  H
  H271     1.0000 0.63800  0.89950  0.04010  Biso   1.000  H
  C286     1.0000 0.66044  0.92753  0.88040  Biso   1.000  C
  H272     1.0000 0.68360  0.91440  0.89300  Biso   1.000  H
  H273     1.0000 0.66320  0.95240  0.91610  Biso   1.000  H
  N144     1.0000 0.21218  0.30267  0.19330  Biso   1.000  N
  N145     1.0000 0.20093  0.30279  0.05910  Biso   1.000  N
  C287     1.0000 0.19525  0.33139  0.24650  Biso   1.000  C
  H274     1.0000 0.19740  0.33800  0.33670  Biso   1.000  H
  C288     1.0000 0.17875  0.33167  0.04080  Biso   1.000  C
  H275     1.0000 0.16780  0.33800  0.95920  Biso   1.000  H
  N146     1.0000 0.17423  0.35052  0.15610  Biso   1.000  N
  N147     1.0000 0.21246  0.22220  0.14240  Biso   1.000  N
  N148     1.0000 0.19934  0.23493  0.02080  Biso   1.000  N
  C289     1.0000 0.19545  0.19094  0.16300  Biso   1.000  C
  H276     1.0000 0.19970  0.17620  0.23820  Biso   1.000  H
  C290     1.0000 0.17449  0.21011  0.97730  Biso   1.000  C
  H277     1.0000 0.16130  0.21210  0.89710  Biso   1.000  H
  N149     1.0000 0.17116  0.18192  0.06510  Biso   1.000  N
  N150     1.0000 0.27545  0.26152  0.07150  Biso   1.000  N
  N151     1.0000 0.25520  0.27071  0.95880  Biso   1.000  N
  C291     1.0000 0.31017  0.26510  0.03020  Biso   1.000  C
  H278     1.0000 0.33040  0.26050  0.08590  Biso   1.000  H
  C292     1.0000 0.27877  0.27975  0.86080  Biso   1.000  C
  H279     1.0000 0.27160  0.28770  0.77570  Biso   1.000  H
  N152     1.0000 0.31394  0.27598  0.89980  Biso   1.000  N
  B14      1.0000 0.21249  0.27230  0.96110  Biso   1.000  B
  H280     1.0000 0.20230  0.27650  0.87090  Biso   1.000  H
  Mn14     1.0000 0.12165  0.38586  0.17155  Biso   1.000  Mn
  N153     1.0000 0.11931  0.37540  0.36840  Biso   1.000  N
  C293     1.0000 0.11215  0.34377  0.42330  Biso   1.000  C
  H281     1.0000 0.11280  0.34190  0.51670  Biso   1.000  H
  C294     1.0000 0.10309  0.31107  0.34540  Biso   1.000  C
  C295     1.0000 0.10110  0.27720  0.41410  Biso   1.000  C
  H282     1.0000 0.10470  0.27650  0.50680  Biso   1.000  H
  C296     1.0000 0.09390  0.24480  0.34530  Biso   1.000  C
  H283     1.0000 0.09270  0.22250  0.39150  Biso   1.000  H
  C297     1.0000 0.08860  0.24550  0.21180  Biso   1.000  C
  H284     1.0000 0.08440  0.22340  0.16630  Biso   1.000  H
  C298     1.0000 0.08920  0.27840  0.13990  Biso   1.000  C
  H285     1.0000 0.08480  0.27820  0.04760  Biso   1.000  H
  C299     1.0000 0.09638  0.31128  0.20530  Biso   1.000  C
  O27      1.0000 0.09547  0.34255  0.12960  Biso   1.000  O
  N154     1.0000 0.15082  0.42902  0.23540  Biso   1.000  N
  C300     1.0000 0.16333  0.45541  0.15960  Biso   1.000  C
  H286     1.0000 0.17780  0.47350  0.20040  Biso   1.000  H
  C301     1.0000 0.15658  0.45896  0.01640  Biso   1.000  C
  C302     1.0000 0.16780  0.49210  0.95210  Biso   1.000  C
  H287     1.0000 0.18110  0.50960  0.00080  Biso   1.000  H
  C303     1.0000 0.15960  0.49890  0.81880  Biso   1.000  C
  H288     1.0000 0.16730  0.52090  0.77890  Biso   1.000  H
  C304     1.0000 0.14000  0.47320  0.74410  Biso   1.000  C
  H289     1.0000 0.13400  0.47820  0.65480  Biso   1.000  H
  C305     1.0000 0.12950  0.44040  0.80260  Biso   1.000  C
  H290     1.0000 0.11680  0.42300  0.75120  Biso   1.000  H
  C306     1.0000 0.13748  0.43229  0.93710  Biso   1.000  C
  O28      1.0000 0.12578  0.40034  0.98860  Biso   1.000  O
  C307     1.0000 0.12977  0.40767  0.45190  Biso   1.000  C
  H291     1.0000 0.10870  0.42400  0.46360  Biso   1.000  H
  H292     1.0000 0.13800  0.39950  0.54010  Biso   1.000  H
  C308     1.0000 0.16044  0.42753  0.38040  Biso   1.000  C
  H293     1.0000 0.18360  0.41440  0.39300  Biso   1.000  H
  H294     1.0000 0.16320  0.45240  0.41610  Biso   1.000  H
  N155     1.0000 0.78782  0.19733  0.19330  Biso   1.000  N
  N156     1.0000 0.79907  0.19721  0.05910  Biso   1.000  N
  C309     1.0000 0.80475  0.16861  0.24650  Biso   1.000  C
  H295     1.0000 0.80260  0.16200  0.33670  Biso   1.000  H
  C310     1.0000 0.82125  0.16833  0.04080  Biso   1.000  C
  H296     1.0000 0.83220  0.16200  0.95920  Biso   1.000  H
  N157     1.0000 0.82577  0.14948  0.15610  Biso   1.000  N
  N158     1.0000 0.78754  0.27780  0.14240  Biso   1.000  N
  N159     1.0000 0.80066  0.26507  0.02080  Biso   1.000  N
  C311     1.0000 0.80455  0.30906  0.16300  Biso   1.000  C
  H297     1.0000 0.80030  0.32380  0.23820  Biso   1.000  H
  C312     1.0000 0.82551  0.28989  0.97730  Biso   1.000  C
  H298     1.0000 0.83870  0.28790  0.89710  Biso   1.000  H
  N160     1.0000 0.82884  0.31808  0.06510  Biso   1.000  N
  N161     1.0000 0.72455  0.23848  0.07150  Biso   1.000  N
  N162     1.0000 0.74480  0.22929  0.95880  Biso   1.000  N
  C313     1.0000 0.68983  0.23490  0.03020  Biso   1.000  C
  H299     1.0000 0.66960  0.23950  0.08590  Biso   1.000  H
  C314     1.0000 0.72123  0.22025  0.86080  Biso   1.000  C
  H300     1.0000 0.72840  0.21230  0.77570  Biso   1.000  H
  N163     1.0000 0.68606  0.22402  0.89980  Biso   1.000  N
  B15      1.0000 0.78751  0.22770  0.96110  Biso   1.000  B
  H301     1.0000 0.79770  0.22350  0.87090  Biso   1.000  H
  Mn15     1.0000 0.87835  0.11414  0.17155  Biso   1.000  Mn
  N164     1.0000 0.88069  0.12460  0.36840  Biso   1.000  N
  C315     1.0000 0.88785  0.15623  0.42330  Biso   1.000  C
  H302     1.0000 0.88720  0.15810  0.51670  Biso   1.000  H
  C316     1.0000 0.89691  0.18893  0.34540  Biso   1.000  C
  C317     1.0000 0.89890  0.22280  0.41410  Biso   1.000  C
  H303     1.0000 0.89530  0.22350  0.50680  Biso   1.000  H
  C318     1.0000 0.90610  0.25520  0.34530  Biso   1.000  C
  H304     1.0000 0.90730  0.27750  0.39150  Biso   1.000  H
  C319     1.0000 0.91140  0.25450  0.21180  Biso   1.000  C
  H305     1.0000 0.91560  0.27660  0.16630  Biso   1.000  H
  C320     1.0000 0.91080  0.22160  0.13990  Biso   1.000  C
  H306     1.0000 0.91520  0.22180  0.04760  Biso   1.000  H
  C321     1.0000 0.90362  0.18872  0.20530  Biso   1.000  C
  O29      1.0000 0.90453  0.15745  0.12960  Biso   1.000  O
  N165     1.0000 0.84918  0.07098  0.23540  Biso   1.000  N
  C322     1.0000 0.83667  0.04459  0.15960  Biso   1.000  C
  H307     1.0000 0.82220  0.02650  0.20040  Biso   1.000  H
  C323     1.0000 0.84342  0.04104  0.01640  Biso   1.000  C
  C324     1.0000 0.83220  0.00790  0.95210  Biso   1.000  C
  H308     1.0000 0.81890  0.99040  0.00080  Biso   1.000  H
  C325     1.0000 0.84040  0.00110  0.81880  Biso   1.000  C
  H309     1.0000 0.83270  0.97910  0.77890  Biso   1.000  H
  C326     1.0000 0.86000  0.02680  0.74410  Biso   1.000  C
  H310     1.0000 0.86600  0.02180  0.65480  Biso   1.000  H
  C327     1.0000 0.87050  0.05960  0.80260  Biso   1.000  C
  H311     1.0000 0.88320  0.07700  0.75120  Biso   1.000  H
  C328     1.0000 0.86252  0.06771  0.93710  Biso   1.000  C
  O30      1.0000 0.87422  0.09966  0.98860  Biso   1.000  O
  C329     1.0000 0.87023  0.09233  0.45190  Biso   1.000  C
  H312     1.0000 0.89130  0.07600  0.46360  Biso   1.000  H
  H313     1.0000 0.86200  0.10050  0.54010  Biso   1.000  H
  C330     1.0000 0.83956  0.07247  0.38040  Biso   1.000  C
  H314     1.0000 0.81640  0.08560  0.39300  Biso   1.000  H
  H315     1.0000 0.83680  0.04760  0.41610  Biso   1.000  H
  N166     1.0000 0.28782  0.69733  0.69330  Biso   1.000  N
  N167     1.0000 0.29907  0.69721  0.55910  Biso   1.000  N
  C331     1.0000 0.30475  0.66861  0.74650  Biso   1.000  C
  H316     1.0000 0.30260  0.66200  0.83670  Biso   1.000  H
  C332     1.0000 0.32125  0.66833  0.54080  Biso   1.000  C
  H317     1.0000 0.33220  0.66200  0.45920  Biso   1.000  H
  N168     1.0000 0.32577  0.64948  0.65610  Biso   1.000  N
  N169     1.0000 0.28754  0.77780  0.64240  Biso   1.000  N
  N170     1.0000 0.30066  0.76507  0.52080  Biso   1.000  N
  C333     1.0000 0.30455  0.80906  0.66300  Biso   1.000  C
  H318     1.0000 0.30030  0.82380  0.73820  Biso   1.000  H
  C334     1.0000 0.32551  0.78989  0.47730  Biso   1.000  C
  H319     1.0000 0.33870  0.78790  0.39710  Biso   1.000  H
  N171     1.0000 0.32884  0.81808  0.56510  Biso   1.000  N
  N172     1.0000 0.22455  0.73848  0.57150  Biso   1.000  N
  N173     1.0000 0.24480  0.72929  0.45880  Biso   1.000  N
  C335     1.0000 0.18983  0.73490  0.53020  Biso   1.000  C
  H320     1.0000 0.16960  0.73950  0.58590  Biso   1.000  H
  C336     1.0000 0.22123  0.72025  0.36080  Biso   1.000  C
  H321     1.0000 0.22840  0.71230  0.27570  Biso   1.000  H
  N174     1.0000 0.18606  0.72402  0.39980  Biso   1.000  N
  B16      1.0000 0.28751  0.72770  0.46110  Biso   1.000  B
  H322     1.0000 0.29770  0.72350  0.37090  Biso   1.000  H
  Mn16     1.0000 0.37835  0.61414  0.67155  Biso   1.000  Mn
  N175     1.0000 0.38069  0.62460  0.86840  Biso   1.000  N
  C337     1.0000 0.38785  0.65623  0.92330  Biso   1.000  C
  H323     1.0000 0.38720  0.65810  0.01670  Biso   1.000  H
  C338     1.0000 0.39691  0.68893  0.84540  Biso   1.000  C
  C339     1.0000 0.39890  0.72280  0.91410  Biso   1.000  C
  H324     1.0000 0.39530  0.72350  0.00680  Biso   1.000  H
  C340     1.0000 0.40610  0.75520  0.84530  Biso   1.000  C
  H325     1.0000 0.40730  0.77750  0.89150  Biso   1.000  H
  C341     1.0000 0.41140  0.75450  0.71180  Biso   1.000  C
  H326     1.0000 0.41560  0.77660  0.66630  Biso   1.000  H
  C342     1.0000 0.41080  0.72160  0.63990  Biso   1.000  C
  H327     1.0000 0.41520  0.72180  0.54760  Biso   1.000  H
  C343     1.0000 0.40362  0.68872  0.70530  Biso   1.000  C
  O31      1.0000 0.40453  0.65745  0.62960  Biso   1.000  O
  N176     1.0000 0.34918  0.57098  0.73540  Biso   1.000  N
  C344     1.0000 0.33667  0.54459  0.65960  Biso   1.000  C
  H328     1.0000 0.32220  0.52650  0.70040  Biso   1.000  H
  C345     1.0000 0.34342  0.54104  0.51640  Biso   1.000  C
  C346     1.0000 0.33220  0.50790  0.45210  Biso   1.000  C
  H329     1.0000 0.31890  0.49040  0.50080  Biso   1.000  H
  C347     1.0000 0.34040  0.50110  0.31880  Biso   1.000  C
  H330     1.0000 0.33270  0.47910  0.27890  Biso   1.000  H
  C348     1.0000 0.36000  0.52680  0.24410  Biso   1.000  C
  H331     1.0000 0.36600  0.52180  0.15480  Biso   1.000  H
  C349     1.0000 0.37050  0.55960  0.30260  Biso   1.000  C
  H332     1.0000 0.38320  0.57700  0.25120  Biso   1.000  H
  C350     1.0000 0.36252  0.56771  0.43710  Biso   1.000  C
  O32      1.0000 0.37422  0.59966  0.48860  Biso   1.000  O
  C351     1.0000 0.37023  0.59233  0.95190  Biso   1.000  C
  H333     1.0000 0.39130  0.57600  0.96360  Biso   1.000  H
  H334     1.0000 0.36200  0.60050  0.04010  Biso   1.000  H
  C352     1.0000 0.33956  0.57247  0.88040  Biso   1.000  C
  H335     1.0000 0.31640  0.58560  0.89300  Biso   1.000  H
  H336     1.0000 0.33680  0.54760  0.91610  Biso   1.000  H
  Cu1      1.0000 0.00000  0.50000  0.00000  Biso   1.000  Cu
  Cu2      1.0000 0.50000  0.00000  0.50000  Biso   1.000  Cu
  Cu3      1.0000 0.50000  0.50000  0.50000  Biso   1.000  Cu
  Cu4      1.0000 0.00000  0.00000  0.00000  Biso   1.000  Cu
  Cu5      1.0000 0.25000  0.25000  0.25000  Biso   1.000  Cu
  Cu6      1.0000 0.25000  0.75000  0.75000  Biso   1.000  Cu
  Cu7      1.0000 0.75000  0.75000  0.75000  Biso   1.000  Cu
  Cu8      1.0000 0.75000  0.25000  0.25000  Biso   1.000  Cu
