data_image0
_cell_length_a       51.1116
_cell_length_b       51.1116
_cell_length_c       15.3938
_cell_angle_alpha    90
_cell_angle_beta     90
_cell_angle_gamma    120

_symmetry_space_group_name_H-M    "P 1"
_symmetry_int_tables_number       1

loop_
  _symmetry_equiv_pos_as_xyz
  'x, y, z'

loop_
  _atom_site_label
  _atom_site_occupancy
  _atom_site_fract_x
  _atom_site_fract_y
  _atom_site_fract_z
  _atom_site_thermal_displace_type
  _atom_site_B_iso_or_equiv
  _atom_site_type_symbol
  Au1      1.0000 0.16691  0.85037  0.20916  Biso   1.000  Au
  Au2      1.0000 0.17558  0.87476  0.39041  Biso   1.000  Au
  Au3      1.0000 0.11972  0.81666  0.34168  Biso   1.000  Au
  Ag1      1.0000 0.13172  0.87447  0.27970  Biso   1.000  Ag
  P1       1.0000 0.16379  0.86765  0.07660  Biso   1.000  P
  P2       1.0000 0.18405  0.91971  0.44420  Biso   1.000  P
  P3       1.0000 0.07008  0.80216  0.35090  Biso   1.000  P
  N1       1.0000 0.15660  0.90910  0.16360  Biso   1.000  N
  N2       1.0000 0.12670  0.90220  0.39650  Biso   1.000  N
  N3       1.0000 0.08200  0.84340  0.22820  Biso   1.000  N
  C1       1.0000 0.12750  0.84330  0.02850  Biso   1.000  C
  C2       1.0000 0.19440  0.87210  0.00830  Biso   1.000  C
  C3       1.0000 0.16620  0.90510  0.08680  Biso   1.000  C
  C4       1.0000 0.20790  0.95090  0.37220  Biso   1.000  C
  C5       1.0000 0.20130  0.92570  0.54970  Biso   1.000  C
  C6       1.0000 0.14830  0.92050  0.45490  Biso   1.000  C
  C7       1.0000 0.06280  0.81820  0.44560  Biso   1.000  C
  C8       1.0000 0.04750  0.76110  0.35200  Biso   1.000  C
  C9       1.0000 0.05890  0.81700  0.25850  Biso   1.000  C
  C10      1.0000 0.15850  0.93550  0.17720  Biso   1.000  C
  C11      1.0000 0.09980  0.89920  0.39880  Biso   1.000  C
  C12      1.0000 0.07740  0.85540  0.15950  Biso   1.000  C
  C13      1.0000 0.11380  0.85340  0.97080  Biso   1.000  C
  C14      1.0000 0.11210  0.81290  0.05050  Biso   1.000  C
  C15      1.0000 0.18960  0.85340  0.94100  Biso   1.000  C
  C16      1.0000 0.22330  0.89500  0.02800  Biso   1.000  C
  C17      1.0000 0.17700  0.92730  0.02170  Biso   1.000  C
  C18      1.0000 0.22780  0.94790  0.31870  Biso   1.000  C
  C19      1.0000 0.20510  0.97640  0.36360  Biso   1.000  C
  C20      1.0000 0.23110  0.94690  0.56440  Biso   1.000  C
  C21      1.0000 0.18500  0.90680  0.61670  Biso   1.000  C
  C22      1.0000 0.14180  0.93670  0.51480  Biso   1.000  C
  C23      1.0000 0.08180  0.82400  0.51910  Biso   1.000  C
  C24      1.0000 0.04110  0.82660  0.44960  Biso   1.000  C
  C25      1.0000 0.03680  0.74720  0.43500  Biso   1.000  C
  C26      1.0000 0.04480  0.74550  0.27600  Biso   1.000  C
  C27      1.0000 0.03050  0.80360  0.21700  Biso   1.000  C
  H1       1.0000 0.15100  0.93900  0.23000  Biso   1.000  H
  C28      1.0000 0.17100  0.95790  0.11650  Biso   1.000  C
  H2       1.0000 0.08520  0.88730  0.35630  Biso   1.000  H
  C29      1.0000 0.09280  0.91320  0.46250  Biso   1.000  C
  H3       1.0000 0.09310  0.87420  0.13830  Biso   1.000  H
  C30      1.0000 0.04970  0.84100  0.11690  Biso   1.000  C
  H4       1.0000 0.12440  0.87390  0.95250  Biso   1.000  H
  C31      1.0000 0.08520  0.83450  0.93920  Biso   1.000  C
  C32      1.0000 0.08290  0.79350  0.01910  Biso   1.000  C
  H5       1.0000 0.12140  0.80510  0.08750  Biso   1.000  H
  H6       1.0000 0.16960  0.83810  0.92720  Biso   1.000  H
  C33      1.0000 0.21410  0.85640  0.89090  Biso   1.000  C
  C34      1.0000 0.24780  0.89950  0.97800  Biso   1.000  C
  H7       1.0000 0.22640  0.90770  0.07650  Biso   1.000  H
  C35      1.0000 0.18550  0.92410  0.93330  Biso   1.000  C
  N4       1.0000 0.17900  0.95390  0.04000  Biso   1.000  N
  H8       1.0000 0.22900  0.93010  0.32250  Biso   1.000  H
  C36      1.0000 0.24550  0.96930  0.26100  Biso   1.000  C
  C37      1.0000 0.22220  0.99750  0.30420  Biso   1.000  C
  H9       1.0000 0.19140  0.97900  0.39910  Biso   1.000  H
  H10      1.0000 0.24240  0.96070  0.51950  Biso   1.000  H
  C38      1.0000 0.24480  0.94860  0.64330  Biso   1.000  C
  C39      1.0000 0.19710  0.90890  0.69460  Biso   1.000  C
  H11      1.0000 0.16450  0.89190  0.60720  Biso   1.000  H
  C40      1.0000 0.16430  0.95920  0.57650  Biso   1.000  C
  N5       1.0000 0.11340  0.93190  0.51880  Biso   1.000  N
  H12      1.0000 0.09730  0.81880  0.51760  Biso   1.000  H
  C41      1.0000 0.07800  0.83700  0.59180  Biso   1.000  C
  C42      1.0000 0.03790  0.84050  0.52340  Biso   1.000  C
  H13      1.0000 0.02810  0.82280  0.40130  Biso   1.000  H
  H14      1.0000 0.03870  0.75830  0.48620  Biso   1.000  H
  C43      1.0000 0.02340  0.71560  0.43400  Biso   1.000  C
  C44      1.0000 0.02940  0.71330  0.27700  Biso   1.000  C
  H15      1.0000 0.05320  0.75620  0.22300  Biso   1.000  H
  C45      1.0000 0.00260  0.77650  0.25100  Biso   1.000  C
  N6       1.0000 0.02780  0.81620  0.14430  Biso   1.000  N
  H16      1.0000 0.17390  0.97720  0.13080  Biso   1.000  H
  H17      1.0000 0.07270  0.90950  0.46670  Biso   1.000  H
  H18      1.0000 0.04710  0.84990  0.06590  Biso   1.000  H
  H19      1.0000 0.07630  0.84230  0.90020  Biso   1.000  H
  C46      1.0000 0.06940  0.80500  0.96300  Biso   1.000  C
  H20      1.0000 0.07230  0.77280  0.03550  Biso   1.000  H
  H21      1.0000 0.21080  0.84260  0.84500  Biso   1.000  H
  C47      1.0000 0.24290  0.87970  0.90970  Biso   1.000  C
  H22      1.0000 0.26750  0.91580  0.98990  Biso   1.000  H
  H23      1.0000 0.19230  0.94300  0.90150  Biso   1.000  H
  H24      1.0000 0.16800  0.90770  0.90360  Biso   1.000  H
  H25      1.0000 0.20180  0.91940  0.93530  Biso   1.000  H
  Ag2      1.0000 0.19144  0.98787  0.93908  Biso   1.000  Ag
  H26      1.0000 0.25970  0.96710  0.22640  Biso   1.000  H
  C48      1.0000 0.24240  0.99520  0.25420  Biso   1.000  C
  H27      1.0000 0.21980  0.01460  0.29760  Biso   1.000  H
  H28      1.0000 0.26550  0.96270  0.65260  Biso   1.000  H
  C49      1.0000 0.22710  0.92890  0.70810  Biso   1.000  C
  H29      1.0000 0.18490  0.89650  0.74090  Biso   1.000  H
  H30      1.0000 0.15460  0.96770  0.61230  Biso   1.000  H
  H31      1.0000 0.18100  0.97540  0.54380  Biso   1.000  H
  H32      1.0000 0.17220  0.94920  0.61400  Biso   1.000  H
  Ag3      1.0000 0.09765  0.95078  0.62631  Biso   1.000  Ag
  H33      1.0000 0.09020  0.84030  0.64170  Biso   1.000  H
  C50      1.0000 0.05560  0.84540  0.59170  Biso   1.000  C
  H34      1.0000 0.02300  0.84640  0.52480  Biso   1.000  H
  H35      1.0000 0.01690  0.70510  0.48770  Biso   1.000  H
  C51      1.0000 0.01940  0.70020  0.36500  Biso   1.000  C
  H36      1.0000 0.02600  0.70130  0.22640  Biso   1.000  H
  H37      1.0000 0.98570  0.77140  0.21130  Biso   1.000  H
  H38      1.0000 0.99770  0.78110  0.30860  Biso   1.000  H
  H39      1.0000 0.00620  0.75940  0.25550  Biso   1.000  H
  H40      1.0000 0.04940  0.79230  0.94190  Biso   1.000  H
  H41      1.0000 0.25950  0.88210  0.87570  Biso   1.000  H
  H42      1.0000 0.25440  0.01090  0.21440  Biso   1.000  H
  H43      1.0000 0.23600  0.92920  0.76270  Biso   1.000  H
  H44      1.0000 0.05320  0.85490  0.64170  Biso   1.000  H
  H45      1.0000 0.00930  0.67890  0.36990  Biso   1.000  H
  Au4      1.0000 0.83358  0.18370  0.54249  Biso   1.000  Au
  Au5      1.0000 0.84225  0.20810  0.72374  Biso   1.000  Au
  Au6      1.0000 0.78639  0.14999  0.67501  Biso   1.000  Au
  Ag4      1.0000 0.79839  0.20780  0.61303  Biso   1.000  Ag
  P4       1.0000 0.83046  0.20098  0.40993  Biso   1.000  P
  P5       1.0000 0.85072  0.25304  0.77753  Biso   1.000  P
  P6       1.0000 0.73675  0.13549  0.68423  Biso   1.000  P
  N7       1.0000 0.82327  0.24243  0.49693  Biso   1.000  N
  N8       1.0000 0.79337  0.23553  0.72983  Biso   1.000  N
  N9       1.0000 0.74867  0.17673  0.56153  Biso   1.000  N
  C52      1.0000 0.79417  0.17663  0.36183  Biso   1.000  C
  C53      1.0000 0.86107  0.20543  0.34163  Biso   1.000  C
  C54      1.0000 0.83287  0.23843  0.42013  Biso   1.000  C
  C55      1.0000 0.87457  0.28423  0.70553  Biso   1.000  C
  C56      1.0000 0.86797  0.25903  0.88303  Biso   1.000  C
  C57      1.0000 0.81497  0.25383  0.78823  Biso   1.000  C
  C58      1.0000 0.72947  0.15153  0.77893  Biso   1.000  C
  C59      1.0000 0.71417  0.09443  0.68533  Biso   1.000  C
  C60      1.0000 0.72557  0.15033  0.59183  Biso   1.000  C
  C61      1.0000 0.82517  0.26883  0.51053  Biso   1.000  C
  C62      1.0000 0.76647  0.23253  0.73213  Biso   1.000  C
  C63      1.0000 0.74407  0.18873  0.49283  Biso   1.000  C
  C64      1.0000 0.78047  0.18673  0.30413  Biso   1.000  C
  C65      1.0000 0.77877  0.14623  0.38383  Biso   1.000  C
  C66      1.0000 0.85627  0.18673  0.27433  Biso   1.000  C
  C67      1.0000 0.88997  0.22833  0.36133  Biso   1.000  C
  C68      1.0000 0.84367  0.26063  0.35503  Biso   1.000  C
  C69      1.0000 0.89447  0.28123  0.65203  Biso   1.000  C
  C70      1.0000 0.87177  0.30973  0.69693  Biso   1.000  C
  C71      1.0000 0.89777  0.28023  0.89773  Biso   1.000  C
  C72      1.0000 0.85167  0.24013  0.95003  Biso   1.000  C
  C73      1.0000 0.80847  0.27003  0.84813  Biso   1.000  C
  C74      1.0000 0.74847  0.15733  0.85243  Biso   1.000  C
  C75      1.0000 0.70777  0.15993  0.78293  Biso   1.000  C
  C76      1.0000 0.70347  0.08053  0.76833  Biso   1.000  C
  C77      1.0000 0.71147  0.07883  0.60933  Biso   1.000  C
  C78      1.0000 0.69717  0.13693  0.55033  Biso   1.000  C
  H46      1.0000 0.81767  0.27233  0.56333  Biso   1.000  H
  C79      1.0000 0.83767  0.29123  0.44983  Biso   1.000  C
  H47      1.0000 0.75187  0.22063  0.68963  Biso   1.000  H
  C80      1.0000 0.75947  0.24653  0.79583  Biso   1.000  C
  H48      1.0000 0.75977  0.20753  0.47163  Biso   1.000  H
  C81      1.0000 0.71637  0.17433  0.45023  Biso   1.000  C
  H49      1.0000 0.79107  0.20723  0.28583  Biso   1.000  H
  C82      1.0000 0.75187  0.16783  0.27253  Biso   1.000  C
  C83      1.0000 0.74957  0.12683  0.35243  Biso   1.000  C
  H50      1.0000 0.78807  0.13843  0.42083  Biso   1.000  H
  H51      1.0000 0.83627  0.17143  0.26053  Biso   1.000  H
  C84      1.0000 0.88077  0.18973  0.22423  Biso   1.000  C
  C85      1.0000 0.91447  0.23283  0.31133  Biso   1.000  C
  H52      1.0000 0.89307  0.24103  0.40983  Biso   1.000  H
  C86      1.0000 0.85217  0.25743  0.26663  Biso   1.000  C
  N10      1.0000 0.84567  0.28723  0.37333  Biso   1.000  N
  H53      1.0000 0.89567  0.26343  0.65583  Biso   1.000  H
  C87      1.0000 0.91217  0.30263  0.59433  Biso   1.000  C
  C88      1.0000 0.88887  0.33083  0.63753  Biso   1.000  C
  H54      1.0000 0.85807  0.31233  0.73243  Biso   1.000  H
  H55      1.0000 0.90907  0.29403  0.85283  Biso   1.000  H
  C89      1.0000 0.91147  0.28193  0.97663  Biso   1.000  C
  C90      1.0000 0.86377  0.24223  0.02793  Biso   1.000  C
  H56      1.0000 0.83117  0.22523  0.94053  Biso   1.000  H
  C91      1.0000 0.83097  0.29253  0.90983  Biso   1.000  C
  N11      1.0000 0.78007  0.26523  0.85213  Biso   1.000  N
  H57      1.0000 0.76397  0.15213  0.85093  Biso   1.000  H
  C92      1.0000 0.74467  0.17033  0.92513  Biso   1.000  C
  C93      1.0000 0.70457  0.17383  0.85673  Biso   1.000  C
  H58      1.0000 0.69477  0.15613  0.73463  Biso   1.000  H
  H59      1.0000 0.70537  0.09163  0.81953  Biso   1.000  H
  C94      1.0000 0.69007  0.04893  0.76733  Biso   1.000  C
  C95      1.0000 0.69607  0.04663  0.61033  Biso   1.000  C
  H60      1.0000 0.71987  0.08953  0.55633  Biso   1.000  H
  C96      1.0000 0.66927  0.10983  0.58433  Biso   1.000  C
  N12      1.0000 0.69447  0.14953  0.47763  Biso   1.000  N
  H61      1.0000 0.84057  0.31053  0.46413  Biso   1.000  H
  H62      1.0000 0.73937  0.24283  0.80003  Biso   1.000  H
  H63      1.0000 0.71377  0.18323  0.39923  Biso   1.000  H
  H64      1.0000 0.74297  0.17563  0.23353  Biso   1.000  H
  C97      1.0000 0.73607  0.13833  0.29633  Biso   1.000  C
  H65      1.0000 0.73897  0.10613  0.36883  Biso   1.000  H
  H66      1.0000 0.87747  0.17593  0.17833  Biso   1.000  H
  C98      1.0000 0.90957  0.21303  0.24303  Biso   1.000  C
  H67      1.0000 0.93417  0.24913  0.32323  Biso   1.000  H
  H68      1.0000 0.85897  0.27633  0.23483  Biso   1.000  H
  H69      1.0000 0.83467  0.24103  0.23693  Biso   1.000  H
  H70      1.0000 0.86847  0.25273  0.26863  Biso   1.000  H
  Ag5      1.0000 0.85811  0.32120  0.27241  Biso   1.000  Ag
  H71      1.0000 0.92637  0.30043  0.55973  Biso   1.000  H
  C99      1.0000 0.90907  0.32853  0.58753  Biso   1.000  C
  H72      1.0000 0.88647  0.34793  0.63093  Biso   1.000  H
  H73      1.0000 0.93217  0.29603  0.98593  Biso   1.000  H
  C100     1.0000 0.89377  0.26223  0.04143  Biso   1.000  C
  H74      1.0000 0.85157  0.22983  0.07423  Biso   1.000  H
  H75      1.0000 0.82127  0.30103  0.94563  Biso   1.000  H
  H76      1.0000 0.84767  0.30873  0.87713  Biso   1.000  H
  H77      1.0000 0.83887  0.28253  0.94733  Biso   1.000  H
  Ag6      1.0000 0.76432  0.28411  0.95964  Biso   1.000  Ag
  H78      1.0000 0.75687  0.17363  0.97503  Biso   1.000  H
  C101     1.0000 0.72227  0.17873  0.92503  Biso   1.000  C
  H79      1.0000 0.68967  0.17973  0.85813  Biso   1.000  H
  H80      1.0000 0.68357  0.03843  0.82103  Biso   1.000  H
  C102     1.0000 0.68607  0.03353  0.69833  Biso   1.000  C
  H81      1.0000 0.69267  0.03463  0.55973  Biso   1.000  H
  H82      1.0000 0.65237  0.10473  0.54463  Biso   1.000  H
  H83      1.0000 0.66437  0.11443  0.64193  Biso   1.000  H
  H84      1.0000 0.67287  0.09273  0.58883  Biso   1.000  H
  H85      1.0000 0.71607  0.12563  0.27523  Biso   1.000  H
  H86      1.0000 0.92617  0.21543  0.20903  Biso   1.000  H
  H87      1.0000 0.92107  0.34423  0.54773  Biso   1.000  H
  H88      1.0000 0.90267  0.26253  0.09603  Biso   1.000  H
  H89      1.0000 0.71987  0.18823  0.97503  Biso   1.000  H
  H90      1.0000 0.67597  0.01223  0.70323  Biso   1.000  H
  Au7      1.0000 0.50025  0.51703  0.87583  Biso   1.000  Au
  Au8      1.0000 0.50892  0.54143  0.05708  Biso   1.000  Au
  Au9      1.0000 0.45306  0.48332  0.00835  Biso   1.000  Au
  Ag7      1.0000 0.46505  0.54114  0.94637  Biso   1.000  Ag
  P7       1.0000 0.49712  0.53432  0.74327  Biso   1.000  P
  P8       1.0000 0.51738  0.58638  0.11087  Biso   1.000  P
  P9       1.0000 0.40341  0.46883  0.01757  Biso   1.000  P
  N13      1.0000 0.48993  0.57577  0.83027  Biso   1.000  N
  N14      1.0000 0.46003  0.56887  0.06317  Biso   1.000  N
  N15      1.0000 0.41533  0.51007  0.89487  Biso   1.000  N
  C103     1.0000 0.46083  0.50997  0.69517  Biso   1.000  C
  C104     1.0000 0.52773  0.53877  0.67497  Biso   1.000  C
  C105     1.0000 0.49953  0.57177  0.75347  Biso   1.000  C
  C106     1.0000 0.54123  0.61757  0.03887  Biso   1.000  C
  C107     1.0000 0.53463  0.59237  0.21637  Biso   1.000  C
  C108     1.0000 0.48163  0.58717  0.12157  Biso   1.000  C
  C109     1.0000 0.39613  0.48487  0.11227  Biso   1.000  C
  C110     1.0000 0.38083  0.42777  0.01867  Biso   1.000  C
  C111     1.0000 0.39223  0.48367  0.92517  Biso   1.000  C
  C112     1.0000 0.49183  0.60217  0.84387  Biso   1.000  C
  C113     1.0000 0.43313  0.56587  0.06547  Biso   1.000  C
  C114     1.0000 0.41073  0.52207  0.82617  Biso   1.000  C
  C115     1.0000 0.44713  0.52007  0.63747  Biso   1.000  C
  C116     1.0000 0.44543  0.47957  0.71717  Biso   1.000  C
  C117     1.0000 0.52293  0.52007  0.60767  Biso   1.000  C
  C118     1.0000 0.55663  0.56167  0.69467  Biso   1.000  C
  C119     1.0000 0.51033  0.59397  0.68837  Biso   1.000  C
  C120     1.0000 0.56113  0.61457  0.98537  Biso   1.000  C
  C121     1.0000 0.53843  0.64307  0.03027  Biso   1.000  C
  C122     1.0000 0.56443  0.61357  0.23107  Biso   1.000  C
  C123     1.0000 0.51833  0.57347  0.28337  Biso   1.000  C
  C124     1.0000 0.47513  0.60337  0.18147  Biso   1.000  C
  C125     1.0000 0.41513  0.49067  0.18577  Biso   1.000  C
  C126     1.0000 0.37443  0.49327  0.11627  Biso   1.000  C
  C127     1.0000 0.37013  0.41387  0.10167  Biso   1.000  C
  C128     1.0000 0.37813  0.41217  0.94267  Biso   1.000  C
  C129     1.0000 0.36383  0.47027  0.88367  Biso   1.000  C
  H91      1.0000 0.48433  0.60567  0.89667  Biso   1.000  H
  C130     1.0000 0.50433  0.62457  0.78317  Biso   1.000  C
  H92      1.0000 0.41853  0.55397  0.02297  Biso   1.000  H
  C131     1.0000 0.42613  0.57987  0.12917  Biso   1.000  C
  H93      1.0000 0.42643  0.54087  0.80497  Biso   1.000  H
  C132     1.0000 0.38303  0.50767  0.78357  Biso   1.000  C
  H94      1.0000 0.45773  0.54057  0.61917  Biso   1.000  H
  C133     1.0000 0.41853  0.50117  0.60587  Biso   1.000  C
  C134     1.0000 0.41623  0.46017  0.68577  Biso   1.000  C
  H95      1.0000 0.45473  0.47177  0.75417  Biso   1.000  H
  H96      1.0000 0.50293  0.50477  0.59387  Biso   1.000  H
  C135     1.0000 0.54743  0.52307  0.55757  Biso   1.000  C
  C136     1.0000 0.58113  0.56617  0.64467  Biso   1.000  C
  H97      1.0000 0.55973  0.57437  0.74317  Biso   1.000  H
  C137     1.0000 0.51883  0.59077  0.59997  Biso   1.000  C
  N16      1.0000 0.51233  0.62057  0.70667  Biso   1.000  N
  H98      1.0000 0.56233  0.59677  0.98917  Biso   1.000  H
  C138     1.0000 0.57883  0.63597  0.92767  Biso   1.000  C
  C139     1.0000 0.55553  0.66417  0.97087  Biso   1.000  C
  H99      1.0000 0.52473  0.64567  0.06577  Biso   1.000  H
  H100     1.0000 0.57573  0.62737  0.18617  Biso   1.000  H
  C140     1.0000 0.57813  0.61527  0.30997  Biso   1.000  C
  C141     1.0000 0.53043  0.57557  0.36127  Biso   1.000  C
  H101     1.0000 0.49783  0.55857  0.27387  Biso   1.000  H
  C142     1.0000 0.49763  0.62587  0.24317  Biso   1.000  C
  N17      1.0000 0.44673  0.59857  0.18547  Biso   1.000  N
  H102     1.0000 0.43063  0.48547  0.18427  Biso   1.000  H
  C143     1.0000 0.41133  0.50367  0.25847  Biso   1.000  C
  C144     1.0000 0.37123  0.50717  0.19007  Biso   1.000  C
  H103     1.0000 0.36143  0.48947  0.06797  Biso   1.000  H
  H104     1.0000 0.37203  0.42497  0.15287  Biso   1.000  H
  C145     1.0000 0.35673  0.38227  0.10067  Biso   1.000  C
  C146     1.0000 0.36273  0.37997  0.94367  Biso   1.000  C
  H105     1.0000 0.38653  0.42287  0.88967  Biso   1.000  H
  C147     1.0000 0.33593  0.44317  0.91767  Biso   1.000  C
  N18      1.0000 0.36113  0.48287  0.81097  Biso   1.000  N
  H106     1.0000 0.50723  0.64387  0.79747  Biso   1.000  H
  H107     1.0000 0.40603  0.57617  0.13337  Biso   1.000  H
  H108     1.0000 0.38043  0.51657  0.73257  Biso   1.000  H
  H109     1.0000 0.40963  0.50897  0.56687  Biso   1.000  H
  C148     1.0000 0.40273  0.47167  0.62967  Biso   1.000  C
  H110     1.0000 0.40563  0.43947  0.70217  Biso   1.000  H
  H111     1.0000 0.54413  0.50927  0.51167  Biso   1.000  H
  C149     1.0000 0.57623  0.54637  0.57637  Biso   1.000  C
  H112     1.0000 0.60083  0.58247  0.65657  Biso   1.000  H
  H113     1.0000 0.52563  0.60967  0.56817  Biso   1.000  H
  H114     1.0000 0.50133  0.57437  0.57027  Biso   1.000  H
  H115     1.0000 0.53513  0.58607  0.60197  Biso   1.000  H
  Ag8      1.0000 0.52477  0.65454  0.60575  Biso   1.000  Ag
  H116     1.0000 0.59303  0.63377  0.89307  Biso   1.000  H
  C150     1.0000 0.57573  0.66187  0.92087  Biso   1.000  C
  H117     1.0000 0.55313  0.68127  0.96427  Biso   1.000  H
  H118     1.0000 0.59883  0.62937  0.31927  Biso   1.000  H
  C151     1.0000 0.56043  0.59557  0.37477  Biso   1.000  C
  H119     1.0000 0.51823  0.56317  0.40757  Biso   1.000  H
  H120     1.0000 0.48793  0.63437  0.27897  Biso   1.000  H
  H121     1.0000 0.51433  0.64207  0.21047  Biso   1.000  H
  H122     1.0000 0.50553  0.61587  0.28067  Biso   1.000  H
  Ag9      1.0000 0.43098  0.61745  0.29298  Biso   1.000  Ag
  H123     1.0000 0.42353  0.50697  0.30837  Biso   1.000  H
  C152     1.0000 0.38893  0.51207  0.25837  Biso   1.000  C
  H124     1.0000 0.35633  0.51307  0.19147  Biso   1.000  H
  H125     1.0000 0.35023  0.37177  0.15437  Biso   1.000  H
  C153     1.0000 0.35273  0.36687  0.03167  Biso   1.000  C
  H126     1.0000 0.35933  0.36797  0.89307  Biso   1.000  H
  H127     1.0000 0.31903  0.43807  0.87797  Biso   1.000  H
  H128     1.0000 0.33103  0.44777  0.97527  Biso   1.000  H
  H129     1.0000 0.33953  0.42607  0.92217  Biso   1.000  H
  H130     1.0000 0.38273  0.45897  0.60857  Biso   1.000  H
  H131     1.0000 0.59283  0.54877  0.54237  Biso   1.000  H
  H132     1.0000 0.58773  0.67757  0.88107  Biso   1.000  H
  H133     1.0000 0.56933  0.59587  0.42937  Biso   1.000  H
  H134     1.0000 0.38653  0.52157  0.30837  Biso   1.000  H
  H135     1.0000 0.34263  0.34557  0.03657  Biso   1.000  H
  Au10     1.0000 0.14963  0.31654  0.20916  Biso   1.000  Au
  Au11     1.0000 0.12524  0.30082  0.39041  Biso   1.000  Au
  Au12     1.0000 0.18334  0.30307  0.34168  Biso   1.000  Au
  Ag10     1.0000 0.12553  0.25725  0.27970  Biso   1.000  Ag
  P10      1.0000 0.13235  0.29614  0.07660  Biso   1.000  P
  P11      1.0000 0.08029  0.26434  0.44420  Biso   1.000  P
  P12      1.0000 0.19784  0.26792  0.35090  Biso   1.000  P
  N19      1.0000 0.09090  0.24750  0.16360  Biso   1.000  N
  N20      1.0000 0.09780  0.22450  0.39650  Biso   1.000  N
  N21      1.0000 0.15660  0.23860  0.22820  Biso   1.000  N
  C154     1.0000 0.15670  0.28420  0.02850  Biso   1.000  C
  C155     1.0000 0.12790  0.32230  0.00830  Biso   1.000  C
  C156     1.0000 0.09490  0.26110  0.08680  Biso   1.000  C
  C157     1.0000 0.04910  0.25700  0.37220  Biso   1.000  C
  C158     1.0000 0.07430  0.27560  0.54970  Biso   1.000  C
  C159     1.0000 0.07950  0.22780  0.45490  Biso   1.000  C
  C160     1.0000 0.18180  0.24460  0.44560  Biso   1.000  C
  C161     1.0000 0.23890  0.28640  0.35200  Biso   1.000  C
  C162     1.0000 0.18300  0.24190  0.25850  Biso   1.000  C
  C163     1.0000 0.06450  0.22300  0.17720  Biso   1.000  C
  C164     1.0000 0.10080  0.20060  0.39880  Biso   1.000  C
  C165     1.0000 0.14460  0.22200  0.15950  Biso   1.000  C
  C166     1.0000 0.14660  0.26040  0.97080  Biso   1.000  C
  C167     1.0000 0.18710  0.29920  0.05050  Biso   1.000  C
  C168     1.0000 0.14660  0.33620  0.94100  Biso   1.000  C
  C169     1.0000 0.10500  0.32830  0.02800  Biso   1.000  C
  C170     1.0000 0.07270  0.24970  0.02170  Biso   1.000  C
  C171     1.0000 0.05210  0.27990  0.31870  Biso   1.000  C
  C172     1.0000 0.02360  0.22870  0.36360  Biso   1.000  C
  C173     1.0000 0.05310  0.28420  0.56440  Biso   1.000  C
  C174     1.0000 0.09320  0.27820  0.61670  Biso   1.000  C
  C175     1.0000 0.06330  0.20510  0.51480  Biso   1.000  C
  C176     1.0000 0.17600  0.25780  0.51910  Biso   1.000  C
  C177     1.0000 0.17340  0.21450  0.44960  Biso   1.000  C
  C178     1.0000 0.25280  0.28960  0.43500  Biso   1.000  C
  C179     1.0000 0.25450  0.29930  0.27600  Biso   1.000  C
  C180     1.0000 0.19640  0.22690  0.21700  Biso   1.000  C
  H136     1.0000 0.06100  0.21200  0.23000  Biso   1.000  H
  C181     1.0000 0.04210  0.21310  0.11650  Biso   1.000  C
  H137     1.0000 0.11270  0.19790  0.35630  Biso   1.000  H
  C182     1.0000 0.08680  0.17960  0.46250  Biso   1.000  C
  H138     1.0000 0.12580  0.21890  0.13830  Biso   1.000  H
  C183     1.0000 0.15900  0.20870  0.11690  Biso   1.000  C
  H139     1.0000 0.12610  0.25050  0.95250  Biso   1.000  H
  C184     1.0000 0.16550  0.25070  0.93920  Biso   1.000  C
  C185     1.0000 0.20650  0.28940  0.01910  Biso   1.000  C
  H140     1.0000 0.19490  0.31630  0.08750  Biso   1.000  H
  H141     1.0000 0.16190  0.33150  0.92720  Biso   1.000  H
  C186     1.0000 0.14360  0.35770  0.89090  Biso   1.000  C
  C187     1.0000 0.10050  0.34830  0.97800  Biso   1.000  C
  H142     1.0000 0.09230  0.31870  0.07650  Biso   1.000  H
  C188     1.0000 0.07590  0.26140  0.93330  Biso   1.000  C
  N22      1.0000 0.04610  0.22510  0.04000  Biso   1.000  N
  H143     1.0000 0.06990  0.29890  0.32250  Biso   1.000  H
  C189     1.0000 0.03070  0.27620  0.26100  Biso   1.000  C
  C190     1.0000 0.00250  0.22470  0.30420  Biso   1.000  C
  H144     1.0000 0.02100  0.21240  0.39910  Biso   1.000  H
  H145     1.0000 0.03930  0.28170  0.51950  Biso   1.000  H
  C191     1.0000 0.05140  0.29620  0.64330  Biso   1.000  C
  C192     1.0000 0.09110  0.28820  0.69460  Biso   1.000  C
  H146     1.0000 0.10810  0.27260  0.60720  Biso   1.000  H
  C193     1.0000 0.04080  0.20510  0.57650  Biso   1.000  C
  N23      1.0000 0.06810  0.18150  0.51880  Biso   1.000  N
  H147     1.0000 0.18120  0.27850  0.51760  Biso   1.000  H
  C194     1.0000 0.16300  0.24100  0.59180  Biso   1.000  C
  C195     1.0000 0.15950  0.19740  0.52340  Biso   1.000  C
  H148     1.0000 0.17720  0.20530  0.40130  Biso   1.000  H
  H149     1.0000 0.24170  0.28040  0.48620  Biso   1.000  H
  C196     1.0000 0.28440  0.30780  0.43400  Biso   1.000  C
  C197     1.0000 0.28670  0.31610  0.27700  Biso   1.000  C
  H150     1.0000 0.24380  0.29700  0.22300  Biso   1.000  H
  C198     1.0000 0.22350  0.22610  0.25100  Biso   1.000  C
  N24      1.0000 0.18380  0.21160  0.14430  Biso   1.000  N
  H151     1.0000 0.02280  0.19670  0.13080  Biso   1.000  H
  H152     1.0000 0.09050  0.16320  0.46670  Biso   1.000  H
  H153     1.0000 0.15010  0.19720  0.06590  Biso   1.000  H
  H154     1.0000 0.15770  0.23400  0.90020  Biso   1.000  H
  C199     1.0000 0.19500  0.26440  0.96300  Biso   1.000  C
  H155     1.0000 0.22720  0.29950  0.03550  Biso   1.000  H
  H156     1.0000 0.15740  0.36820  0.84500  Biso   1.000  H
  C200     1.0000 0.12030  0.36320  0.90970  Biso   1.000  C
  H157     1.0000 0.08420  0.35170  0.98990  Biso   1.000  H
  H158     1.0000 0.05700  0.24930  0.90150  Biso   1.000  H
  H159     1.0000 0.09230  0.26030  0.90360  Biso   1.000  H
  H160     1.0000 0.08060  0.28240  0.93530  Biso   1.000  H
  Ag11     1.0000 0.01213  0.20357  0.93908  Biso   1.000  Ag
  H161     1.0000 0.03290  0.29260  0.22640  Biso   1.000  H
  C201     1.0000 0.00480  0.24720  0.25420  Biso   1.000  C
  H162     1.0000 0.98540  0.20520  0.29760  Biso   1.000  H
  H163     1.0000 0.03730  0.30280  0.65260  Biso   1.000  H
  C202     1.0000 0.07110  0.29820  0.70810  Biso   1.000  C
  H164     1.0000 0.10350  0.28840  0.74090  Biso   1.000  H
  H165     1.0000 0.03230  0.18690  0.61230  Biso   1.000  H
  H166     1.0000 0.02460  0.20560  0.54380  Biso   1.000  H
  H167     1.0000 0.05080  0.22300  0.61400  Biso   1.000  H
  Ag12     1.0000 0.04922  0.14687  0.62631  Biso   1.000  Ag
  H168     1.0000 0.15970  0.24990  0.64170  Biso   1.000  H
  C203     1.0000 0.15460  0.21020  0.59170  Biso   1.000  C
  H169     1.0000 0.15360  0.17660  0.52480  Biso   1.000  H
  H170     1.0000 0.29490  0.31180  0.48770  Biso   1.000  H
  C204     1.0000 0.29980  0.31920  0.36500  Biso   1.000  C
  H171     1.0000 0.29870  0.32470  0.22640  Biso   1.000  H
  H172     1.0000 0.22860  0.21430  0.21130  Biso   1.000  H
  H173     1.0000 0.21890  0.21660  0.30860  Biso   1.000  H
  H174     1.0000 0.24060  0.24680  0.25550  Biso   1.000  H
  H175     1.0000 0.20770  0.25710  0.94190  Biso   1.000  H
  H176     1.0000 0.11790  0.37740  0.87570  Biso   1.000  H
  H177     1.0000 0.98910  0.24350  0.21440  Biso   1.000  H
  H178     1.0000 0.07080  0.30680  0.76270  Biso   1.000  H
  H179     1.0000 0.14510  0.19830  0.64170  Biso   1.000  H
  H180     1.0000 0.32110  0.33040  0.36990  Biso   1.000  H
  Au13     1.0000 0.81630  0.64988  0.54249  Biso   1.000  Au
  Au14     1.0000 0.79190  0.63415  0.72374  Biso   1.000  Au
  Au15     1.0000 0.85001  0.63640  0.67501  Biso   1.000  Au
  Ag13     1.0000 0.79220  0.59058  0.61303  Biso   1.000  Ag
  P13      1.0000 0.79902  0.62947  0.40993  Biso   1.000  P
  P14      1.0000 0.74696  0.59767  0.77753  Biso   1.000  P
  P15      1.0000 0.86451  0.60125  0.68423  Biso   1.000  P
  N25      1.0000 0.75757  0.58083  0.49693  Biso   1.000  N
  N26      1.0000 0.76447  0.55783  0.72983  Biso   1.000  N
  N27      1.0000 0.82327  0.57193  0.56153  Biso   1.000  N
  C205     1.0000 0.82337  0.61753  0.36183  Biso   1.000  C
  C206     1.0000 0.79457  0.65563  0.34163  Biso   1.000  C
  C207     1.0000 0.76157  0.59443  0.42013  Biso   1.000  C
  C208     1.0000 0.71577  0.59033  0.70553  Biso   1.000  C
  C209     1.0000 0.74097  0.60893  0.88303  Biso   1.000  C
  C210     1.0000 0.74617  0.56113  0.78823  Biso   1.000  C
  C211     1.0000 0.84847  0.57793  0.77893  Biso   1.000  C
  C212     1.0000 0.90557  0.61973  0.68533  Biso   1.000  C
  C213     1.0000 0.84967  0.57523  0.59183  Biso   1.000  C
  C214     1.0000 0.73117  0.55633  0.51053  Biso   1.000  C
  C215     1.0000 0.76747  0.53393  0.73213  Biso   1.000  C
  C216     1.0000 0.81127  0.55533  0.49283  Biso   1.000  C
  C217     1.0000 0.81327  0.59373  0.30413  Biso   1.000  C
  C218     1.0000 0.85377  0.63253  0.38383  Biso   1.000  C
  C219     1.0000 0.81327  0.66953  0.27433  Biso   1.000  C
  C220     1.0000 0.77167  0.66163  0.36133  Biso   1.000  C
  C221     1.0000 0.73937  0.58303  0.35503  Biso   1.000  C
  C222     1.0000 0.71877  0.61323  0.65203  Biso   1.000  C
  C223     1.0000 0.69027  0.56203  0.69693  Biso   1.000  C
  C224     1.0000 0.71977  0.61753  0.89773  Biso   1.000  C
  C225     1.0000 0.75987  0.61153  0.95003  Biso   1.000  C
  C226     1.0000 0.72997  0.53843  0.84813  Biso   1.000  C
  C227     1.0000 0.84267  0.59113  0.85243  Biso   1.000  C
  C228     1.0000 0.84007  0.54783  0.78293  Biso   1.000  C
  C229     1.0000 0.91947  0.62293  0.76833  Biso   1.000  C
  C230     1.0000 0.92117  0.63263  0.60933  Biso   1.000  C
  C231     1.0000 0.86307  0.56023  0.55033  Biso   1.000  C
  H181     1.0000 0.72767  0.54533  0.56333  Biso   1.000  H
  C232     1.0000 0.70877  0.54643  0.44983  Biso   1.000  C
  H182     1.0000 0.77937  0.53123  0.68963  Biso   1.000  H
  C233     1.0000 0.75347  0.51293  0.79583  Biso   1.000  C
  H183     1.0000 0.79247  0.55223  0.47163  Biso   1.000  H
  C234     1.0000 0.82567  0.54203  0.45023  Biso   1.000  C
  H184     1.0000 0.79277  0.58383  0.28583  Biso   1.000  H
  C235     1.0000 0.83217  0.58403  0.27253  Biso   1.000  C
  C236     1.0000 0.87317  0.62273  0.35243  Biso   1.000  C
  H185     1.0000 0.86157  0.64963  0.42083  Biso   1.000  H
  H186     1.0000 0.82857  0.66483  0.26053  Biso   1.000  H
  C237     1.0000 0.81027  0.69103  0.22423  Biso   1.000  C
  C238     1.0000 0.76717  0.68163  0.31133  Biso   1.000  C
  H187     1.0000 0.75897  0.65203  0.40983  Biso   1.000  H
  C239     1.0000 0.74257  0.59473  0.26663  Biso   1.000  C
  N28      1.0000 0.71277  0.55843  0.37333  Biso   1.000  N
  H188     1.0000 0.73657  0.63223  0.65583  Biso   1.000  H
  C240     1.0000 0.69737  0.60953  0.59433  Biso   1.000  C
  C241     1.0000 0.66917  0.55803  0.63753  Biso   1.000  C
  H189     1.0000 0.68767  0.54573  0.73243  Biso   1.000  H
  H190     1.0000 0.70597  0.61503  0.85283  Biso   1.000  H
  C242     1.0000 0.71807  0.62953  0.97663  Biso   1.000  C
  C243     1.0000 0.75777  0.62153  0.02793  Biso   1.000  C
  H191     1.0000 0.77477  0.60593  0.94053  Biso   1.000  H
  C244     1.0000 0.70747  0.53843  0.90983  Biso   1.000  C
  N29      1.0000 0.73477  0.51483  0.85213  Biso   1.000  N
  H192     1.0000 0.84787  0.61183  0.85093  Biso   1.000  H
  C245     1.0000 0.82967  0.57433  0.92513  Biso   1.000  C
  C246     1.0000 0.82617  0.53073  0.85673  Biso   1.000  C
  H193     1.0000 0.84387  0.53863  0.73463  Biso   1.000  H
  H194     1.0000 0.90837  0.61373  0.81953  Biso   1.000  H
  C247     1.0000 0.95107  0.64113  0.76733  Biso   1.000  C
  C248     1.0000 0.95337  0.64943  0.61033  Biso   1.000  C
  H195     1.0000 0.91047  0.63033  0.55633  Biso   1.000  H
  C249     1.0000 0.89017  0.55943  0.58433  Biso   1.000  C
  N30      1.0000 0.85047  0.54493  0.47763  Biso   1.000  N
  H196     1.0000 0.68947  0.53003  0.46413  Biso   1.000  H
  H197     1.0000 0.75717  0.49653  0.80003  Biso   1.000  H
  H198     1.0000 0.81677  0.53053  0.39923  Biso   1.000  H
  H199     1.0000 0.82437  0.56733  0.23353  Biso   1.000  H
  C250     1.0000 0.86167  0.59773  0.29633  Biso   1.000  C
  H200     1.0000 0.89387  0.63283  0.36883  Biso   1.000  H
  H201     1.0000 0.82407  0.70153  0.17833  Biso   1.000  H
  C251     1.0000 0.78697  0.69653  0.24303  Biso   1.000  C
  H202     1.0000 0.75087  0.68503  0.32323  Biso   1.000  H
  H203     1.0000 0.72367  0.58263  0.23483  Biso   1.000  H
  H204     1.0000 0.75897  0.59363  0.23693  Biso   1.000  H
  H205     1.0000 0.74727  0.61573  0.26863  Biso   1.000  H
  Ag14     1.0000 0.67880  0.53690  0.27241  Biso   1.000  Ag
  H206     1.0000 0.69957  0.62593  0.55973  Biso   1.000  H
  C252     1.0000 0.67147  0.58053  0.58753  Biso   1.000  C
  H207     1.0000 0.65207  0.53853  0.63093  Biso   1.000  H
  H208     1.0000 0.70397  0.63613  0.98593  Biso   1.000  H
  C253     1.0000 0.73777  0.63153  0.04143  Biso   1.000  C
  H209     1.0000 0.77017  0.62173  0.07423  Biso   1.000  H
  H210     1.0000 0.69897  0.52023  0.94563  Biso   1.000  H
  H211     1.0000 0.69127  0.53893  0.87713  Biso   1.000  H
  H212     1.0000 0.71747  0.55633  0.94733  Biso   1.000  H
  Ag15     1.0000 0.71589  0.48020  0.95964  Biso   1.000  Ag
  H213     1.0000 0.82637  0.58323  0.97503  Biso   1.000  H
  C254     1.0000 0.82127  0.54353  0.92503  Biso   1.000  C
  H214     1.0000 0.82027  0.50993  0.85813  Biso   1.000  H
  H215     1.0000 0.96157  0.64513  0.82103  Biso   1.000  H
  C255     1.0000 0.96647  0.65253  0.69833  Biso   1.000  C
  H216     1.0000 0.96537  0.65803  0.55973  Biso   1.000  H
  H217     1.0000 0.89527  0.54763  0.54463  Biso   1.000  H
  H218     1.0000 0.88557  0.54993  0.64193  Biso   1.000  H
  H219     1.0000 0.90727  0.58013  0.58883  Biso   1.000  H
  H220     1.0000 0.87437  0.59043  0.27523  Biso   1.000  H
  H221     1.0000 0.78457  0.71073  0.20903  Biso   1.000  H
  H222     1.0000 0.65577  0.57683  0.54773  Biso   1.000  H
  H223     1.0000 0.73747  0.64013  0.09603  Biso   1.000  H
  H224     1.0000 0.81177  0.53163  0.97503  Biso   1.000  H
  H225     1.0000 0.98777  0.66373  0.70323  Biso   1.000  H
  Au16     1.0000 0.48297  0.98321  0.87583  Biso   1.000  Au
  Au17     1.0000 0.45857  0.96749  0.05708  Biso   1.000  Au
  Au18     1.0000 0.51668  0.96973  0.00835  Biso   1.000  Au
  Ag16     1.0000 0.45886  0.92392  0.94637  Biso   1.000  Ag
  P16      1.0000 0.46568  0.96281  0.74327  Biso   1.000  P
  P17      1.0000 0.41362  0.93101  0.11087  Biso   1.000  P
  P18      1.0000 0.53117  0.93459  0.01757  Biso   1.000  P
  N31      1.0000 0.42423  0.91417  0.83027  Biso   1.000  N
  N32      1.0000 0.43113  0.89117  0.06317  Biso   1.000  N
  N33      1.0000 0.48993  0.90527  0.89487  Biso   1.000  N
  C256     1.0000 0.49003  0.95087  0.69517  Biso   1.000  C
  C257     1.0000 0.46123  0.98897  0.67497  Biso   1.000  C
  C258     1.0000 0.42823  0.92777  0.75347  Biso   1.000  C
  C259     1.0000 0.38243  0.92367  0.03887  Biso   1.000  C
  C260     1.0000 0.40763  0.94227  0.21637  Biso   1.000  C
  C261     1.0000 0.41283  0.89447  0.12157  Biso   1.000  C
  C262     1.0000 0.51513  0.91127  0.11227  Biso   1.000  C
  C263     1.0000 0.57223  0.95307  0.01867  Biso   1.000  C
  C264     1.0000 0.51633  0.90857  0.92517  Biso   1.000  C
  C265     1.0000 0.39783  0.88967  0.84387  Biso   1.000  C
  C266     1.0000 0.43413  0.86727  0.06547  Biso   1.000  C
  C267     1.0000 0.47793  0.88867  0.82617  Biso   1.000  C
  C268     1.0000 0.47993  0.92707  0.63747  Biso   1.000  C
  C269     1.0000 0.52043  0.96587  0.71717  Biso   1.000  C
  C270     1.0000 0.47993  0.00287  0.60767  Biso   1.000  C
  C271     1.0000 0.43833  0.99497  0.69467  Biso   1.000  C
  C272     1.0000 0.40603  0.91637  0.68837  Biso   1.000  C
  C273     1.0000 0.38543  0.94657  0.98537  Biso   1.000  C
  C274     1.0000 0.35693  0.89537  0.03027  Biso   1.000  C
  C275     1.0000 0.38643  0.95087  0.23107  Biso   1.000  C
  C276     1.0000 0.42653  0.94487  0.28337  Biso   1.000  C
  C277     1.0000 0.39663  0.87177  0.18147  Biso   1.000  C
  C278     1.0000 0.50933  0.92447  0.18577  Biso   1.000  C
  C279     1.0000 0.50673  0.88117  0.11627  Biso   1.000  C
  C280     1.0000 0.58613  0.95627  0.10167  Biso   1.000  C
  C281     1.0000 0.58783  0.96597  0.94267  Biso   1.000  C
  C282     1.0000 0.52973  0.89357  0.88367  Biso   1.000  C
  H226     1.0000 0.39433  0.87867  0.89667  Biso   1.000  H
  C283     1.0000 0.37543  0.87977  0.78317  Biso   1.000  C
  H227     1.0000 0.44603  0.86457  0.02297  Biso   1.000  H
  C284     1.0000 0.42013  0.84627  0.12917  Biso   1.000  C
  H228     1.0000 0.45913  0.88557  0.80497  Biso   1.000  H
  C285     1.0000 0.49233  0.87537  0.78357  Biso   1.000  C
  H229     1.0000 0.45943  0.91717  0.61917  Biso   1.000  H
  C286     1.0000 0.49883  0.91737  0.60587  Biso   1.000  C
  C287     1.0000 0.53983  0.95607  0.68577  Biso   1.000  C
  H230     1.0000 0.52823  0.98297  0.75417  Biso   1.000  H
  H231     1.0000 0.49523  0.99817  0.59387  Biso   1.000  H
  C288     1.0000 0.47693  0.02437  0.55757  Biso   1.000  C
  C289     1.0000 0.43383  0.01497  0.64467  Biso   1.000  C
  H232     1.0000 0.42563  0.98537  0.74317  Biso   1.000  H
  C290     1.0000 0.40923  0.92807  0.59997  Biso   1.000  C
  N34      1.0000 0.37943  0.89177  0.70667  Biso   1.000  N
  H233     1.0000 0.40323  0.96557  0.98917  Biso   1.000  H
  C291     1.0000 0.36403  0.94287  0.92767  Biso   1.000  C
  C292     1.0000 0.33583  0.89137  0.97087  Biso   1.000  C
  H234     1.0000 0.35433  0.87907  0.06577  Biso   1.000  H
  H235     1.0000 0.37263  0.94837  0.18617  Biso   1.000  H
  C293     1.0000 0.38473  0.96287  0.30997  Biso   1.000  C
  C294     1.0000 0.42443  0.95487  0.36127  Biso   1.000  C
  H236     1.0000 0.44143  0.93927  0.27387  Biso   1.000  H
  C295     1.0000 0.37413  0.87177  0.24317  Biso   1.000  C
  N35      1.0000 0.40143  0.84817  0.18547  Biso   1.000  N
  H237     1.0000 0.51453  0.94517  0.18427  Biso   1.000  H
  C296     1.0000 0.49633  0.90767  0.25847  Biso   1.000  C
  C297     1.0000 0.49283  0.86407  0.19007  Biso   1.000  C
  H238     1.0000 0.51053  0.87197  0.06797  Biso   1.000  H
  H239     1.0000 0.57503  0.94707  0.15287  Biso   1.000  H
  C298     1.0000 0.61773  0.97447  0.10067  Biso   1.000  C
  C299     1.0000 0.62003  0.98277  0.94367  Biso   1.000  C
  H240     1.0000 0.57713  0.96367  0.88967  Biso   1.000  H
  C300     1.0000 0.55683  0.89277  0.91767  Biso   1.000  C
  N36      1.0000 0.51713  0.87827  0.81097  Biso   1.000  N
  H241     1.0000 0.35613  0.86337  0.79747  Biso   1.000  H
  H242     1.0000 0.42383  0.82987  0.13337  Biso   1.000  H
  H243     1.0000 0.48343  0.86387  0.73257  Biso   1.000  H
  H244     1.0000 0.49103  0.90067  0.56687  Biso   1.000  H
  C301     1.0000 0.52833  0.93107  0.62967  Biso   1.000  C
  H245     1.0000 0.56053  0.96617  0.70217  Biso   1.000  H
  H246     1.0000 0.49073  0.03487  0.51167  Biso   1.000  H
  C302     1.0000 0.45363  0.02987  0.57637  Biso   1.000  C
  H247     1.0000 0.41753  0.01837  0.65657  Biso   1.000  H
  H248     1.0000 0.39033  0.91597  0.56817  Biso   1.000  H
  H249     1.0000 0.42563  0.92697  0.57027  Biso   1.000  H
  H250     1.0000 0.41393  0.94907  0.60197  Biso   1.000  H
  Ag17     1.0000 0.34546  0.87024  0.60575  Biso   1.000  Ag
  H251     1.0000 0.36623  0.95927  0.89307  Biso   1.000  H
  C303     1.0000 0.33813  0.91387  0.92087  Biso   1.000  C
  H252     1.0000 0.31873  0.87187  0.96427  Biso   1.000  H
  H253     1.0000 0.37063  0.96947  0.31927  Biso   1.000  H
  C304     1.0000 0.40443  0.96487  0.37477  Biso   1.000  C
  H254     1.0000 0.43683  0.95507  0.40757  Biso   1.000  H
  H255     1.0000 0.36563  0.85357  0.27897  Biso   1.000  H
  H256     1.0000 0.35793  0.87227  0.21047  Biso   1.000  H
  H257     1.0000 0.38413  0.88967  0.28067  Biso   1.000  H
  Ag18     1.0000 0.38255  0.81354  0.29298  Biso   1.000  Ag
  H258     1.0000 0.49303  0.91657  0.30837  Biso   1.000  H
  C305     1.0000 0.48793  0.87687  0.25837  Biso   1.000  C
  H259     1.0000 0.48693  0.84327  0.19147  Biso   1.000  H
  H260     1.0000 0.62823  0.97847  0.15437  Biso   1.000  H
  C306     1.0000 0.63313  0.98587  0.03167  Biso   1.000  C
  H261     1.0000 0.63203  0.99137  0.89307  Biso   1.000  H
  H262     1.0000 0.56193  0.88097  0.87797  Biso   1.000  H
  H263     1.0000 0.55223  0.88327  0.97527  Biso   1.000  H
  H264     1.0000 0.57393  0.91347  0.92217  Biso   1.000  H
  H265     1.0000 0.54103  0.92377  0.60857  Biso   1.000  H
  H266     1.0000 0.45123  0.04407  0.54237  Biso   1.000  H
  H267     1.0000 0.32243  0.91017  0.88107  Biso   1.000  H
  H268     1.0000 0.40413  0.97347  0.42937  Biso   1.000  H
  H269     1.0000 0.47843  0.86497  0.30837  Biso   1.000  H
  H270     1.0000 0.65443  0.99707  0.03657  Biso   1.000  H
  Au19     1.0000 0.68346  0.83309  0.20916  Biso   1.000  Au
  Au20     1.0000 0.69918  0.82442  0.39041  Biso   1.000  Au
  Au21     1.0000 0.69693  0.88028  0.34168  Biso   1.000  Au
  Ag19     1.0000 0.74275  0.86828  0.27970  Biso   1.000  Ag
  P19      1.0000 0.70386  0.83621  0.07660  Biso   1.000  P
  P20      1.0000 0.73566  0.81595  0.44420  Biso   1.000  P
  P21      1.0000 0.73208  0.92992  0.35090  Biso   1.000  P
  N37      1.0000 0.75250  0.84340  0.16360  Biso   1.000  N
  N38      1.0000 0.77550  0.87330  0.39650  Biso   1.000  N
  N39      1.0000 0.76140  0.91800  0.22820  Biso   1.000  N
  C307     1.0000 0.71580  0.87250  0.02850  Biso   1.000  C
  C308     1.0000 0.67770  0.80560  0.00830  Biso   1.000  C
  C309     1.0000 0.73890  0.83380  0.08680  Biso   1.000  C
  C310     1.0000 0.74300  0.79210  0.37220  Biso   1.000  C
  C311     1.0000 0.72440  0.79870  0.54970  Biso   1.000  C
  C312     1.0000 0.77220  0.85170  0.45490  Biso   1.000  C
  C313     1.0000 0.75540  0.93720  0.44560  Biso   1.000  C
  C314     1.0000 0.71360  0.95250  0.35200  Biso   1.000  C
  C315     1.0000 0.75810  0.94110  0.25850  Biso   1.000  C
  C316     1.0000 0.77700  0.84150  0.17720  Biso   1.000  C
  C317     1.0000 0.79940  0.90020  0.39880  Biso   1.000  C
  C318     1.0000 0.77800  0.92260  0.15950  Biso   1.000  C
  C319     1.0000 0.73960  0.88620  0.97080  Biso   1.000  C
  C320     1.0000 0.70080  0.88790  0.05050  Biso   1.000  C
  C321     1.0000 0.66380  0.81040  0.94100  Biso   1.000  C
  C322     1.0000 0.67170  0.77670  0.02800  Biso   1.000  C
  C323     1.0000 0.75030  0.82300  0.02170  Biso   1.000  C
  C324     1.0000 0.72010  0.77220  0.31870  Biso   1.000  C
  C325     1.0000 0.77130  0.79490  0.36360  Biso   1.000  C
  C326     1.0000 0.71580  0.76890  0.56440  Biso   1.000  C
  C327     1.0000 0.72180  0.81500  0.61670  Biso   1.000  C
  C328     1.0000 0.79490  0.85820  0.51480  Biso   1.000  C
  C329     1.0000 0.74220  0.91820  0.51910  Biso   1.000  C
  C330     1.0000 0.78550  0.95890  0.44960  Biso   1.000  C
  C331     1.0000 0.71040  0.96320  0.43500  Biso   1.000  C
  C332     1.0000 0.70070  0.95520  0.27600  Biso   1.000  C
  C333     1.0000 0.77310  0.96950  0.21700  Biso   1.000  C
  H271     1.0000 0.78800  0.84900  0.23000  Biso   1.000  H
  C334     1.0000 0.78690  0.82900  0.11650  Biso   1.000  C
  H272     1.0000 0.80210  0.91480  0.35630  Biso   1.000  H
  C335     1.0000 0.82040  0.90720  0.46250  Biso   1.000  C
  H273     1.0000 0.78110  0.90690  0.13830  Biso   1.000  H
  C336     1.0000 0.79130  0.95030  0.11690  Biso   1.000  C
  H274     1.0000 0.74950  0.87560  0.95250  Biso   1.000  H
  C337     1.0000 0.74930  0.91480  0.93920  Biso   1.000  C
  C338     1.0000 0.71060  0.91710  0.01910  Biso   1.000  C
  H275     1.0000 0.68370  0.87860  0.08750  Biso   1.000  H
  H276     1.0000 0.66850  0.83040  0.92720  Biso   1.000  H
  C339     1.0000 0.64230  0.78590  0.89090  Biso   1.000  C
  C340     1.0000 0.65170  0.75220  0.97800  Biso   1.000  C
  H277     1.0000 0.68130  0.77360  0.07650  Biso   1.000  H
  C341     1.0000 0.73860  0.81450  0.93330  Biso   1.000  C
  N40      1.0000 0.77490  0.82100  0.04000  Biso   1.000  N
  H278     1.0000 0.70110  0.77100  0.32250  Biso   1.000  H
  C342     1.0000 0.72380  0.75450  0.26100  Biso   1.000  C
  C343     1.0000 0.77530  0.77780  0.30420  Biso   1.000  C
  H279     1.0000 0.78760  0.80860  0.39910  Biso   1.000  H
  H280     1.0000 0.71830  0.75760  0.51950  Biso   1.000  H
  C344     1.0000 0.70380  0.75520  0.64330  Biso   1.000  C
  C345     1.0000 0.71180  0.80290  0.69460  Biso   1.000  C
  H281     1.0000 0.72740  0.83550  0.60720  Biso   1.000  H
  C346     1.0000 0.79490  0.83570  0.57650  Biso   1.000  C
  N41      1.0000 0.81850  0.88660  0.51880  Biso   1.000  N
  H282     1.0000 0.72150  0.90270  0.51760  Biso   1.000  H
  C347     1.0000 0.75900  0.92200  0.59180  Biso   1.000  C
  C348     1.0000 0.80260  0.96210  0.52340  Biso   1.000  C
  H283     1.0000 0.79470  0.97190  0.40130  Biso   1.000  H
  H284     1.0000 0.71960  0.96130  0.48620  Biso   1.000  H
  C349     1.0000 0.69220  0.97660  0.43400  Biso   1.000  C
  C350     1.0000 0.68390  0.97060  0.27700  Biso   1.000  C
  H285     1.0000 0.70300  0.94680  0.22300  Biso   1.000  H
  C351     1.0000 0.77390  0.99740  0.25100  Biso   1.000  C
  N42      1.0000 0.78840  0.97220  0.14430  Biso   1.000  N
  H286     1.0000 0.80330  0.82610  0.13080  Biso   1.000  H
  H287     1.0000 0.83680  0.92730  0.46670  Biso   1.000  H
  H288     1.0000 0.80280  0.95290  0.06590  Biso   1.000  H
  H289     1.0000 0.76600  0.92370  0.90020  Biso   1.000  H
  C352     1.0000 0.73560  0.93060  0.96300  Biso   1.000  C
  H290     1.0000 0.70050  0.92770  0.03550  Biso   1.000  H
  H291     1.0000 0.63180  0.78920  0.84500  Biso   1.000  H
  C353     1.0000 0.63680  0.75710  0.90970  Biso   1.000  C
  H292     1.0000 0.64830  0.73250  0.98990  Biso   1.000  H
  H293     1.0000 0.75070  0.80770  0.90150  Biso   1.000  H
  H294     1.0000 0.73970  0.83200  0.90360  Biso   1.000  H
  H295     1.0000 0.71760  0.79820  0.93530  Biso   1.000  H
  Ag20     1.0000 0.79643  0.80856  0.93908  Biso   1.000  Ag
  H296     1.0000 0.70740  0.74030  0.22640  Biso   1.000  H
  C354     1.0000 0.75280  0.75760  0.25420  Biso   1.000  C
  H297     1.0000 0.79480  0.78020  0.29760  Biso   1.000  H
  H298     1.0000 0.69720  0.73450  0.65260  Biso   1.000  H
  C355     1.0000 0.70180  0.77290  0.70810  Biso   1.000  C
  H299     1.0000 0.71160  0.81510  0.74090  Biso   1.000  H
  H300     1.0000 0.81310  0.84540  0.61230  Biso   1.000  H
  H301     1.0000 0.79440  0.81900  0.54380  Biso   1.000  H
  H302     1.0000 0.77700  0.82780  0.61400  Biso   1.000  H
  Ag21     1.0000 0.85313  0.90235  0.62631  Biso   1.000  Ag
  H303     1.0000 0.75010  0.90980  0.64170  Biso   1.000  H
  C356     1.0000 0.78980  0.94440  0.59170  Biso   1.000  C
  H304     1.0000 0.82340  0.97700  0.52480  Biso   1.000  H
  H305     1.0000 0.68820  0.98310  0.48770  Biso   1.000  H
  C357     1.0000 0.68080  0.98060  0.36500  Biso   1.000  C
  H306     1.0000 0.67530  0.97400  0.22640  Biso   1.000  H
  H307     1.0000 0.78570  0.01430  0.21130  Biso   1.000  H
  H308     1.0000 0.78340  0.00230  0.30860  Biso   1.000  H
  H309     1.0000 0.75320  0.99380  0.25550  Biso   1.000  H
  H310     1.0000 0.74290  0.95060  0.94190  Biso   1.000  H
  H311     1.0000 0.62260  0.74050  0.87570  Biso   1.000  H
  H312     1.0000 0.75650  0.74560  0.21440  Biso   1.000  H
  H313     1.0000 0.69320  0.76400  0.76270  Biso   1.000  H
  H314     1.0000 0.80170  0.94680  0.64170  Biso   1.000  H
  H315     1.0000 0.66960  0.99070  0.36990  Biso   1.000  H
  Au22     1.0000 0.35012  0.16642  0.54249  Biso   1.000  Au
  Au23     1.0000 0.36585  0.15775  0.72374  Biso   1.000  Au
  Au24     1.0000 0.36360  0.21361  0.67501  Biso   1.000  Au
  Ag22     1.0000 0.40942  0.20161  0.61303  Biso   1.000  Ag
  P22      1.0000 0.37053  0.16954  0.40993  Biso   1.000  P
  P23      1.0000 0.40233  0.14928  0.77753  Biso   1.000  P
  P24      1.0000 0.39875  0.26325  0.68423  Biso   1.000  P
  N43      1.0000 0.41917  0.17673  0.49693  Biso   1.000  N
  N44      1.0000 0.44217  0.20663  0.72983  Biso   1.000  N
  N45      1.0000 0.42807  0.25133  0.56153  Biso   1.000  N
  C358     1.0000 0.38247  0.20583  0.36183  Biso   1.000  C
  C359     1.0000 0.34437  0.13893  0.34163  Biso   1.000  C
  C360     1.0000 0.40557  0.16713  0.42013  Biso   1.000  C
  C361     1.0000 0.40967  0.12543  0.70553  Biso   1.000  C
  C362     1.0000 0.39107  0.13203  0.88303  Biso   1.000  C
  C363     1.0000 0.43887  0.18503  0.78823  Biso   1.000  C
  C364     1.0000 0.42207  0.27053  0.77893  Biso   1.000  C
  C365     1.0000 0.38027  0.28583  0.68533  Biso   1.000  C
  C366     1.0000 0.42477  0.27443  0.59183  Biso   1.000  C
  C367     1.0000 0.44367  0.17483  0.51053  Biso   1.000  C
  C368     1.0000 0.46607  0.23353  0.73213  Biso   1.000  C
  C369     1.0000 0.44467  0.25593  0.49283  Biso   1.000  C
  C370     1.0000 0.40627  0.21953  0.30413  Biso   1.000  C
  C371     1.0000 0.36747  0.22123  0.38383  Biso   1.000  C
  C372     1.0000 0.33047  0.14373  0.27433  Biso   1.000  C
  C373     1.0000 0.33837  0.11003  0.36133  Biso   1.000  C
  C374     1.0000 0.41697  0.15633  0.35503  Biso   1.000  C
  C375     1.0000 0.38677  0.10553  0.65203  Biso   1.000  C
  C376     1.0000 0.43797  0.12823  0.69693  Biso   1.000  C
  C377     1.0000 0.38247  0.10223  0.89773  Biso   1.000  C
  C378     1.0000 0.38847  0.14833  0.95003  Biso   1.000  C
  C379     1.0000 0.46157  0.19153  0.84813  Biso   1.000  C
  C380     1.0000 0.40887  0.25153  0.85243  Biso   1.000  C
  C381     1.0000 0.45217  0.29223  0.78293  Biso   1.000  C
  C382     1.0000 0.37707  0.29653  0.76833  Biso   1.000  C
  C383     1.0000 0.36737  0.28853  0.60933  Biso   1.000  C
  C384     1.0000 0.43977  0.30283  0.55033  Biso   1.000  C
  H316     1.0000 0.45467  0.18233  0.56333  Biso   1.000  H
  C385     1.0000 0.45357  0.16233  0.44983  Biso   1.000  C
  H317     1.0000 0.46877  0.24813  0.68963  Biso   1.000  H
  C386     1.0000 0.48707  0.24053  0.79583  Biso   1.000  C
  H318     1.0000 0.44777  0.24023  0.47163  Biso   1.000  H
  C387     1.0000 0.45797  0.28363  0.45023  Biso   1.000  C
  H319     1.0000 0.41617  0.20893  0.28583  Biso   1.000  H
  C388     1.0000 0.41597  0.24813  0.27253  Biso   1.000  C
  C389     1.0000 0.37727  0.25043  0.35243  Biso   1.000  C
  H320     1.0000 0.35037  0.21193  0.42083  Biso   1.000  H
  H321     1.0000 0.33517  0.16373  0.26053  Biso   1.000  H
  C390     1.0000 0.30897  0.11923  0.22423  Biso   1.000  C
  C391     1.0000 0.31837  0.08553  0.31133  Biso   1.000  C
  H322     1.0000 0.34797  0.10693  0.40983  Biso   1.000  H
  C392     1.0000 0.40527  0.14783  0.26663  Biso   1.000  C
  N46      1.0000 0.44157  0.15433  0.37333  Biso   1.000  N
  H323     1.0000 0.36777  0.10433  0.65583  Biso   1.000  H
  C393     1.0000 0.39047  0.08783  0.59433  Biso   1.000  C
  C394     1.0000 0.44197  0.11113  0.63753  Biso   1.000  C
  H324     1.0000 0.45427  0.14193  0.73243  Biso   1.000  H
  H325     1.0000 0.38497  0.09093  0.85283  Biso   1.000  H
  C395     1.0000 0.37047  0.08853  0.97663  Biso   1.000  C
  C396     1.0000 0.37847  0.13623  0.02793  Biso   1.000  C
  H326     1.0000 0.39407  0.16883  0.94053  Biso   1.000  H
  C397     1.0000 0.46157  0.16903  0.90983  Biso   1.000  C
  N47      1.0000 0.48517  0.21993  0.85213  Biso   1.000  N
  H327     1.0000 0.38817  0.23603  0.85093  Biso   1.000  H
  C398     1.0000 0.42567  0.25533  0.92513  Biso   1.000  C
  C399     1.0000 0.46927  0.29543  0.85673  Biso   1.000  C
  H328     1.0000 0.46137  0.30523  0.73463  Biso   1.000  H
  H329     1.0000 0.38627  0.29463  0.81953  Biso   1.000  H
  C400     1.0000 0.35887  0.30993  0.76733  Biso   1.000  C
  C401     1.0000 0.35057  0.30393  0.61033  Biso   1.000  C
  H330     1.0000 0.36967  0.28013  0.55633  Biso   1.000  H
  C402     1.0000 0.44057  0.33073  0.58433  Biso   1.000  C
  N48      1.0000 0.45507  0.30553  0.47763  Biso   1.000  N
  H331     1.0000 0.46997  0.15943  0.46413  Biso   1.000  H
  H332     1.0000 0.50347  0.26063  0.80003  Biso   1.000  H
  H333     1.0000 0.46947  0.28623  0.39923  Biso   1.000  H
  H334     1.0000 0.43267  0.25703  0.23353  Biso   1.000  H
  C403     1.0000 0.40227  0.26393  0.29633  Biso   1.000  C
  H335     1.0000 0.36717  0.26103  0.36883  Biso   1.000  H
  H336     1.0000 0.29847  0.12253  0.17833  Biso   1.000  H
  C404     1.0000 0.30347  0.09043  0.24303  Biso   1.000  C
  H337     1.0000 0.31497  0.06583  0.32323  Biso   1.000  H
  H338     1.0000 0.41737  0.14103  0.23483  Biso   1.000  H
  H339     1.0000 0.40637  0.16533  0.23693  Biso   1.000  H
  H340     1.0000 0.38427  0.13153  0.26863  Biso   1.000  H
  Ag23     1.0000 0.46310  0.14189  0.27241  Biso   1.000  Ag
  H341     1.0000 0.37407  0.07363  0.55973  Biso   1.000  H
  C405     1.0000 0.41947  0.09093  0.58753  Biso   1.000  C
  H342     1.0000 0.46147  0.11353  0.63093  Biso   1.000  H
  H343     1.0000 0.36387  0.06783  0.98593  Biso   1.000  H
  C406     1.0000 0.36847  0.10623  0.04143  Biso   1.000  C
  H344     1.0000 0.37827  0.14843  0.07423  Biso   1.000  H
  H345     1.0000 0.47977  0.17873  0.94563  Biso   1.000  H
  H346     1.0000 0.46107  0.15233  0.87713  Biso   1.000  H
  H347     1.0000 0.44367  0.16113  0.94733  Biso   1.000  H
  Ag24     1.0000 0.51980  0.23568  0.95964  Biso   1.000  Ag
  H348     1.0000 0.41677  0.24313  0.97503  Biso   1.000  H
  C407     1.0000 0.45647  0.27773  0.92503  Biso   1.000  C
  H349     1.0000 0.49007  0.31033  0.85813  Biso   1.000  H
  H350     1.0000 0.35487  0.31643  0.82103  Biso   1.000  H
  C408     1.0000 0.34747  0.31393  0.69833  Biso   1.000  C
  H351     1.0000 0.34197  0.30733  0.55973  Biso   1.000  H
  H352     1.0000 0.45237  0.34763  0.54463  Biso   1.000  H
  H353     1.0000 0.45007  0.33563  0.64193  Biso   1.000  H
  H354     1.0000 0.41987  0.32713  0.58883  Biso   1.000  H
  H355     1.0000 0.40957  0.28393  0.27523  Biso   1.000  H
  H356     1.0000 0.28927  0.07383  0.20903  Biso   1.000  H
  H357     1.0000 0.42317  0.07893  0.54773  Biso   1.000  H
  H358     1.0000 0.35987  0.09733  0.09603  Biso   1.000  H
  H359     1.0000 0.46837  0.28013  0.97503  Biso   1.000  H
  H360     1.0000 0.33627  0.32403  0.70323  Biso   1.000  H
  Au25     1.0000 0.01679  0.49975  0.87583  Biso   1.000  Au
  Au26     1.0000 0.03251  0.49108  0.05708  Biso   1.000  Au
  Au27     1.0000 0.03027  0.54694  0.00835  Biso   1.000  Au
  Ag25     1.0000 0.07608  0.53495  0.94637  Biso   1.000  Ag
  P25      1.0000 0.03719  0.50288  0.74327  Biso   1.000  P
  P26      1.0000 0.06899  0.48262  0.11087  Biso   1.000  P
  P27      1.0000 0.06541  0.59659  0.01757  Biso   1.000  P
  N49      1.0000 0.08583  0.51007  0.83027  Biso   1.000  N
  N50      1.0000 0.10883  0.53997  0.06317  Biso   1.000  N
  N51      1.0000 0.09473  0.58467  0.89487  Biso   1.000  N
  C409     1.0000 0.04913  0.53917  0.69517  Biso   1.000  C
  C410     1.0000 0.01103  0.47227  0.67497  Biso   1.000  C
  C411     1.0000 0.07223  0.50047  0.75347  Biso   1.000  C
  C412     1.0000 0.07633  0.45877  0.03887  Biso   1.000  C
  C413     1.0000 0.05773  0.46537  0.21637  Biso   1.000  C
  C414     1.0000 0.10553  0.51837  0.12157  Biso   1.000  C
  C415     1.0000 0.08873  0.60387  0.11227  Biso   1.000  C
  C416     1.0000 0.04693  0.61917  0.01867  Biso   1.000  C
  C417     1.0000 0.09143  0.60777  0.92517  Biso   1.000  C
  C418     1.0000 0.11033  0.50817  0.84387  Biso   1.000  C
  C419     1.0000 0.13273  0.56687  0.06547  Biso   1.000  C
  C420     1.0000 0.11133  0.58927  0.82617  Biso   1.000  C
  C421     1.0000 0.07293  0.55287  0.63747  Biso   1.000  C
  C422     1.0000 0.03413  0.55457  0.71717  Biso   1.000  C
  C423     1.0000 0.99713  0.47707  0.60767  Biso   1.000  C
  C424     1.0000 0.00503  0.44337  0.69467  Biso   1.000  C
  C425     1.0000 0.08363  0.48967  0.68837  Biso   1.000  C
  C426     1.0000 0.05343  0.43887  0.98537  Biso   1.000  C
  C427     1.0000 0.10463  0.46157  0.03027  Biso   1.000  C
  C428     1.0000 0.04913  0.43557  0.23107  Biso   1.000  C
  C429     1.0000 0.05513  0.48167  0.28337  Biso   1.000  C
  C430     1.0000 0.12823  0.52487  0.18147  Biso   1.000  C
  C431     1.0000 0.07553  0.58487  0.18577  Biso   1.000  C
  C432     1.0000 0.11883  0.62557  0.11627  Biso   1.000  C
  C433     1.0000 0.04373  0.62987  0.10167  Biso   1.000  C
  C434     1.0000 0.03403  0.62187  0.94267  Biso   1.000  C
  C435     1.0000 0.10643  0.63617  0.88367  Biso   1.000  C
  H361     1.0000 0.12133  0.51567  0.89667  Biso   1.000  H
  C436     1.0000 0.12023  0.49567  0.78317  Biso   1.000  C
  H362     1.0000 0.13543  0.58147  0.02297  Biso   1.000  H
  C437     1.0000 0.15373  0.57387  0.12917  Biso   1.000  C
  H363     1.0000 0.11443  0.57357  0.80497  Biso   1.000  H
  C438     1.0000 0.12463  0.61697  0.78357  Biso   1.000  C
  H364     1.0000 0.08283  0.54227  0.61917  Biso   1.000  H
  C439     1.0000 0.08263  0.58147  0.60587  Biso   1.000  C
  C440     1.0000 0.04393  0.58377  0.68577  Biso   1.000  C
  H365     1.0000 0.01703  0.54527  0.75417  Biso   1.000  H
  H366     1.0000 0.00183  0.49707  0.59387  Biso   1.000  H
  C441     1.0000 0.97563  0.45257  0.55757  Biso   1.000  C
  C442     1.0000 0.98503  0.41887  0.64467  Biso   1.000  C
  H367     1.0000 0.01463  0.44027  0.74317  Biso   1.000  H
  C443     1.0000 0.07193  0.48117  0.59997  Biso   1.000  C
  N52      1.0000 0.10823  0.48767  0.70667  Biso   1.000  N
  H368     1.0000 0.03443  0.43767  0.98917  Biso   1.000  H
  C444     1.0000 0.05713  0.42117  0.92767  Biso   1.000  C
  C445     1.0000 0.10863  0.44447  0.97087  Biso   1.000  C
  H369     1.0000 0.12093  0.47527  0.06577  Biso   1.000  H
  H370     1.0000 0.05163  0.42427  0.18617  Biso   1.000  H
  C446     1.0000 0.03713  0.42187  0.30997  Biso   1.000  C
  C447     1.0000 0.04513  0.46957  0.36127  Biso   1.000  C
  H371     1.0000 0.06073  0.50217  0.27387  Biso   1.000  H
  C448     1.0000 0.12823  0.50237  0.24317  Biso   1.000  C
  N53      1.0000 0.15183  0.55327  0.18547  Biso   1.000  N
  H372     1.0000 0.05483  0.56937  0.18427  Biso   1.000  H
  C449     1.0000 0.09233  0.58867  0.25847  Biso   1.000  C
  C450     1.0000 0.13593  0.62877  0.19007  Biso   1.000  C
  H373     1.0000 0.12803  0.63857  0.06797  Biso   1.000  H
  H374     1.0000 0.05293  0.62797  0.15287  Biso   1.000  H
  C451     1.0000 0.02553  0.64327  0.10067  Biso   1.000  C
  C452     1.0000 0.01723  0.63727  0.94367  Biso   1.000  C
  H375     1.0000 0.03633  0.61347  0.88967  Biso   1.000  H
  C453     1.0000 0.10723  0.66407  0.91767  Biso   1.000  C
  N54      1.0000 0.12173  0.63887  0.81097  Biso   1.000  N
  H376     1.0000 0.13663  0.49277  0.79747  Biso   1.000  H
  H377     1.0000 0.17013  0.59397  0.13337  Biso   1.000  H
  H378     1.0000 0.13613  0.61957  0.73257  Biso   1.000  H
  H379     1.0000 0.09933  0.59037  0.56687  Biso   1.000  H
  C454     1.0000 0.06893  0.59727  0.62967  Biso   1.000  C
  H380     1.0000 0.03383  0.59437  0.70217  Biso   1.000  H
  H381     1.0000 0.96513  0.45587  0.51167  Biso   1.000  H
  C455     1.0000 0.97013  0.42377  0.57637  Biso   1.000  C
  H382     1.0000 0.98163  0.39917  0.65657  Biso   1.000  H
  H383     1.0000 0.08403  0.47437  0.56817  Biso   1.000  H
  H384     1.0000 0.07303  0.49867  0.57027  Biso   1.000  H
  H385     1.0000 0.05093  0.46487  0.60197  Biso   1.000  H
  Ag26     1.0000 0.12976  0.47523  0.60575  Biso   1.000  Ag
  H386     1.0000 0.04073  0.40697  0.89307  Biso   1.000  H
  C456     1.0000 0.08613  0.42427  0.92087  Biso   1.000  C
  H387     1.0000 0.12813  0.44687  0.96427  Biso   1.000  H
  H388     1.0000 0.03053  0.40117  0.31927  Biso   1.000  H
  C457     1.0000 0.03513  0.43957  0.37477  Biso   1.000  C
  H389     1.0000 0.04493  0.48177  0.40757  Biso   1.000  H
  H390     1.0000 0.14643  0.51207  0.27897  Biso   1.000  H
  H391     1.0000 0.12773  0.48567  0.21047  Biso   1.000  H
  H392     1.0000 0.11033  0.49447  0.28067  Biso   1.000  H
  Ag27     1.0000 0.18646  0.56902  0.29298  Biso   1.000  Ag
  H393     1.0000 0.08343  0.57647  0.30837  Biso   1.000  H
  C458     1.0000 0.12313  0.61107  0.25837  Biso   1.000  C
  H394     1.0000 0.15673  0.64367  0.19147  Biso   1.000  H
  H395     1.0000 0.02153  0.64977  0.15437  Biso   1.000  H
  C459     1.0000 0.01413  0.64727  0.03167  Biso   1.000  C
  H396     1.0000 0.00863  0.64067  0.89307  Biso   1.000  H
  H397     1.0000 0.11903  0.68097  0.87797  Biso   1.000  H
  H398     1.0000 0.11673  0.66897  0.97527  Biso   1.000  H
  H399     1.0000 0.08653  0.66047  0.92217  Biso   1.000  H
  H400     1.0000 0.07623  0.61727  0.60857  Biso   1.000  H
  H401     1.0000 0.95593  0.40717  0.54237  Biso   1.000  H
  H402     1.0000 0.08983  0.41227  0.88107  Biso   1.000  H
  H403     1.0000 0.02653  0.43067  0.42937  Biso   1.000  H
  H404     1.0000 0.13503  0.61347  0.30837  Biso   1.000  H
  H405     1.0000 0.00293  0.65737  0.03657  Biso   1.000  H
  Au28     1.0000 0.83309  0.14963  0.79084  Biso   1.000  Au
  Au29     1.0000 0.82442  0.12524  0.60959  Biso   1.000  Au
  Au30     1.0000 0.88028  0.18334  0.65832  Biso   1.000  Au
  Ag28     1.0000 0.86828  0.12553  0.72030  Biso   1.000  Ag
  P28      1.0000 0.83621  0.13235  0.92340  Biso   1.000  P
  P29      1.0000 0.81595  0.08029  0.55580  Biso   1.000  P
  P30      1.0000 0.92992  0.19784  0.64910  Biso   1.000  P
  N55      1.0000 0.84340  0.09090  0.83640  Biso   1.000  N
  N56      1.0000 0.87330  0.09780  0.60350  Biso   1.000  N
  N57      1.0000 0.91800  0.15660  0.77180  Biso   1.000  N
  C460     1.0000 0.87250  0.15670  0.97150  Biso   1.000  C
  C461     1.0000 0.80560  0.12790  0.99170  Biso   1.000  C
  C462     1.0000 0.83380  0.09490  0.91320  Biso   1.000  C
  C463     1.0000 0.79210  0.04910  0.62780  Biso   1.000  C
  C464     1.0000 0.79870  0.07430  0.45030  Biso   1.000  C
  C465     1.0000 0.85170  0.07950  0.54510  Biso   1.000  C
  C466     1.0000 0.93720  0.18180  0.55440  Biso   1.000  C
  C467     1.0000 0.95250  0.23890  0.64800  Biso   1.000  C
  C468     1.0000 0.94110  0.18300  0.74150  Biso   1.000  C
  C469     1.0000 0.84150  0.06450  0.82280  Biso   1.000  C
  C470     1.0000 0.90020  0.10080  0.60120  Biso   1.000  C
  C471     1.0000 0.92260  0.14460  0.84050  Biso   1.000  C
  C472     1.0000 0.88620  0.14660  0.02920  Biso   1.000  C
  C473     1.0000 0.88790  0.18710  0.94950  Biso   1.000  C
  C474     1.0000 0.81040  0.14660  0.05900  Biso   1.000  C
  C475     1.0000 0.77670  0.10500  0.97200  Biso   1.000  C
  C476     1.0000 0.82300  0.07270  0.97830  Biso   1.000  C
  C477     1.0000 0.77220  0.05210  0.68130  Biso   1.000  C
  C478     1.0000 0.79490  0.02360  0.63640  Biso   1.000  C
  C479     1.0000 0.76890  0.05310  0.43560  Biso   1.000  C
  C480     1.0000 0.81500  0.09320  0.38330  Biso   1.000  C
  C481     1.0000 0.85820  0.06330  0.48520  Biso   1.000  C
  C482     1.0000 0.91820  0.17600  0.48090  Biso   1.000  C
  C483     1.0000 0.95890  0.17340  0.55040  Biso   1.000  C
  C484     1.0000 0.96320  0.25280  0.56500  Biso   1.000  C
  C485     1.0000 0.95520  0.25450  0.72400  Biso   1.000  C
  C486     1.0000 0.96950  0.19640  0.78300  Biso   1.000  C
  H406     1.0000 0.84900  0.06100  0.77000  Biso   1.000  H
  C487     1.0000 0.82900  0.04210  0.88350  Biso   1.000  C
  H407     1.0000 0.91480  0.11270  0.64370  Biso   1.000  H
  C488     1.0000 0.90720  0.08680  0.53750  Biso   1.000  C
  H408     1.0000 0.90690  0.12580  0.86170  Biso   1.000  H
  C489     1.0000 0.95030  0.15900  0.88310  Biso   1.000  C
  H409     1.0000 0.87560  0.12610  0.04750  Biso   1.000  H
  C490     1.0000 0.91480  0.16550  0.06080  Biso   1.000  C
  C491     1.0000 0.91710  0.20650  0.98090  Biso   1.000  C
  H410     1.0000 0.87860  0.19490  0.91250  Biso   1.000  H
  H411     1.0000 0.83040  0.16190  0.07280  Biso   1.000  H
  C492     1.0000 0.78590  0.14360  0.10910  Biso   1.000  C
  C493     1.0000 0.75220  0.10050  0.02200  Biso   1.000  C
  H412     1.0000 0.77360  0.09230  0.92350  Biso   1.000  H
  C494     1.0000 0.81450  0.07590  0.06670  Biso   1.000  C
  N58      1.0000 0.82100  0.04610  0.96000  Biso   1.000  N
  H413     1.0000 0.77100  0.06990  0.67750  Biso   1.000  H
  C495     1.0000 0.75450  0.03070  0.73900  Biso   1.000  C
  C496     1.0000 0.77780  0.00250  0.69580  Biso   1.000  C
  H414     1.0000 0.80860  0.02100  0.60090  Biso   1.000  H
  H415     1.0000 0.75760  0.03930  0.48050  Biso   1.000  H
  C497     1.0000 0.75520  0.05140  0.35670  Biso   1.000  C
  C498     1.0000 0.80290  0.09110  0.30540  Biso   1.000  C
  H416     1.0000 0.83550  0.10810  0.39280  Biso   1.000  H
  C499     1.0000 0.83570  0.04080  0.42350  Biso   1.000  C
  N59      1.0000 0.88660  0.06810  0.48120  Biso   1.000  N
  H417     1.0000 0.90270  0.18120  0.48240  Biso   1.000  H
  C500     1.0000 0.92200  0.16300  0.40820  Biso   1.000  C
  C501     1.0000 0.96210  0.15950  0.47660  Biso   1.000  C
  H418     1.0000 0.97190  0.17720  0.59870  Biso   1.000  H
  H419     1.0000 0.96130  0.24170  0.51380  Biso   1.000  H
  C502     1.0000 0.97660  0.28440  0.56600  Biso   1.000  C
  C503     1.0000 0.97060  0.28670  0.72300  Biso   1.000  C
  H420     1.0000 0.94680  0.24380  0.77700  Biso   1.000  H
  C504     1.0000 0.99740  0.22350  0.74900  Biso   1.000  C
  N60      1.0000 0.97220  0.18380  0.85570  Biso   1.000  N
  H421     1.0000 0.82610  0.02280  0.86920  Biso   1.000  H
  H422     1.0000 0.92730  0.09050  0.53330  Biso   1.000  H
  H423     1.0000 0.95290  0.15010  0.93410  Biso   1.000  H
  H424     1.0000 0.92370  0.15770  0.09980  Biso   1.000  H
  C505     1.0000 0.93060  0.19500  0.03700  Biso   1.000  C
  H425     1.0000 0.92770  0.22720  0.96450  Biso   1.000  H
  H426     1.0000 0.78920  0.15740  0.15500  Biso   1.000  H
  C506     1.0000 0.75710  0.12030  0.09030  Biso   1.000  C
  H427     1.0000 0.73250  0.08420  0.01010  Biso   1.000  H
  H428     1.0000 0.80770  0.05700  0.09850  Biso   1.000  H
  H429     1.0000 0.83200  0.09230  0.09640  Biso   1.000  H
  H430     1.0000 0.79820  0.08060  0.06470  Biso   1.000  H
  Ag29     1.0000 0.80856  0.01213  0.06092  Biso   1.000  Ag
  H431     1.0000 0.74030  0.03290  0.77360  Biso   1.000  H
  C507     1.0000 0.75760  0.00480  0.74580  Biso   1.000  C
  H432     1.0000 0.78020  0.98540  0.70240  Biso   1.000  H
  H433     1.0000 0.73450  0.03730  0.34740  Biso   1.000  H
  C508     1.0000 0.77290  0.07110  0.29190  Biso   1.000  C
  H434     1.0000 0.81510  0.10350  0.25910  Biso   1.000  H
  H435     1.0000 0.84540  0.03230  0.38770  Biso   1.000  H
  H436     1.0000 0.81900  0.02460  0.45620  Biso   1.000  H
  H437     1.0000 0.82780  0.05080  0.38600  Biso   1.000  H
  Ag30     1.0000 0.90235  0.04922  0.37369  Biso   1.000  Ag
  H438     1.0000 0.90980  0.15970  0.35830  Biso   1.000  H
  C509     1.0000 0.94440  0.15460  0.40830  Biso   1.000  C
  H439     1.0000 0.97700  0.15360  0.47520  Biso   1.000  H
  H440     1.0000 0.98310  0.29490  0.51230  Biso   1.000  H
  C510     1.0000 0.98060  0.29980  0.63500  Biso   1.000  C
  H441     1.0000 0.97400  0.29870  0.77360  Biso   1.000  H
  H442     1.0000 0.01430  0.22860  0.78870  Biso   1.000  H
  H443     1.0000 0.00230  0.21890  0.69140  Biso   1.000  H
  H444     1.0000 0.99380  0.24060  0.74450  Biso   1.000  H
  H445     1.0000 0.95060  0.20770  0.05810  Biso   1.000  H
  H446     1.0000 0.74050  0.11790  0.12430  Biso   1.000  H
  H447     1.0000 0.74560  0.98910  0.78560  Biso   1.000  H
  H448     1.0000 0.76400  0.07080  0.23730  Biso   1.000  H
  H449     1.0000 0.94680  0.14510  0.35830  Biso   1.000  H
  H450     1.0000 0.99070  0.32110  0.63010  Biso   1.000  H
  Au31     1.0000 0.49975  0.48297  0.12417  Biso   1.000  Au
  Au32     1.0000 0.49108  0.45857  0.94292  Biso   1.000  Au
  Au33     1.0000 0.54694  0.51668  0.99165  Biso   1.000  Au
  Ag31     1.0000 0.53495  0.45886  0.05363  Biso   1.000  Ag
  P31      1.0000 0.50288  0.46568  0.25673  Biso   1.000  P
  P32      1.0000 0.48262  0.41362  0.88913  Biso   1.000  P
  P33      1.0000 0.59659  0.53117  0.98243  Biso   1.000  P
  N61      1.0000 0.51007  0.42423  0.16973  Biso   1.000  N
  N62      1.0000 0.53997  0.43113  0.93683  Biso   1.000  N
  N63      1.0000 0.58467  0.48993  0.10513  Biso   1.000  N
  C511     1.0000 0.53917  0.49003  0.30483  Biso   1.000  C
  C512     1.0000 0.47227  0.46123  0.32503  Biso   1.000  C
  C513     1.0000 0.50047  0.42823  0.24653  Biso   1.000  C
  C514     1.0000 0.45877  0.38243  0.96113  Biso   1.000  C
  C515     1.0000 0.46537  0.40763  0.78363  Biso   1.000  C
  C516     1.0000 0.51837  0.41283  0.87843  Biso   1.000  C
  C517     1.0000 0.60387  0.51513  0.88773  Biso   1.000  C
  C518     1.0000 0.61917  0.57223  0.98133  Biso   1.000  C
  C519     1.0000 0.60777  0.51633  0.07483  Biso   1.000  C
  C520     1.0000 0.50817  0.39783  0.15613  Biso   1.000  C
  C521     1.0000 0.56687  0.43413  0.93453  Biso   1.000  C
  C522     1.0000 0.58927  0.47793  0.17383  Biso   1.000  C
  C523     1.0000 0.55287  0.47993  0.36253  Biso   1.000  C
  C524     1.0000 0.55457  0.52043  0.28283  Biso   1.000  C
  C525     1.0000 0.47707  0.47993  0.39233  Biso   1.000  C
  C526     1.0000 0.44337  0.43833  0.30533  Biso   1.000  C
  C527     1.0000 0.48967  0.40603  0.31163  Biso   1.000  C
  C528     1.0000 0.43887  0.38543  0.01463  Biso   1.000  C
  C529     1.0000 0.46157  0.35693  0.96973  Biso   1.000  C
  C530     1.0000 0.43557  0.38643  0.76893  Biso   1.000  C
  C531     1.0000 0.48167  0.42653  0.71663  Biso   1.000  C
  C532     1.0000 0.52487  0.39663  0.81853  Biso   1.000  C
  C533     1.0000 0.58487  0.50933  0.81423  Biso   1.000  C
  C534     1.0000 0.62557  0.50673  0.88373  Biso   1.000  C
  C535     1.0000 0.62987  0.58613  0.89833  Biso   1.000  C
  C536     1.0000 0.62187  0.58783  0.05733  Biso   1.000  C
  C537     1.0000 0.63617  0.52973  0.11633  Biso   1.000  C
  H451     1.0000 0.51567  0.39433  0.10333  Biso   1.000  H
  C538     1.0000 0.49567  0.37543  0.21683  Biso   1.000  C
  H452     1.0000 0.58147  0.44603  0.97703  Biso   1.000  H
  C539     1.0000 0.57387  0.42013  0.87083  Biso   1.000  C
  H453     1.0000 0.57357  0.45913  0.19503  Biso   1.000  H
  C540     1.0000 0.61697  0.49233  0.21643  Biso   1.000  C
  H454     1.0000 0.54227  0.45943  0.38083  Biso   1.000  H
  C541     1.0000 0.58147  0.49883  0.39413  Biso   1.000  C
  C542     1.0000 0.58377  0.53983  0.31423  Biso   1.000  C
  H455     1.0000 0.54527  0.52823  0.24583  Biso   1.000  H
  H456     1.0000 0.49707  0.49523  0.40613  Biso   1.000  H
  C543     1.0000 0.45257  0.47693  0.44243  Biso   1.000  C
  C544     1.0000 0.41887  0.43383  0.35533  Biso   1.000  C
  H457     1.0000 0.44027  0.42563  0.25683  Biso   1.000  H
  C545     1.0000 0.48117  0.40923  0.40003  Biso   1.000  C
  N64      1.0000 0.48767  0.37943  0.29333  Biso   1.000  N
  H458     1.0000 0.43767  0.40323  0.01083  Biso   1.000  H
  C546     1.0000 0.42117  0.36403  0.07233  Biso   1.000  C
  C547     1.0000 0.44447  0.33583  0.02913  Biso   1.000  C
  H459     1.0000 0.47527  0.35433  0.93423  Biso   1.000  H
  H460     1.0000 0.42427  0.37263  0.81383  Biso   1.000  H
  C548     1.0000 0.42187  0.38473  0.69003  Biso   1.000  C
  C549     1.0000 0.46957  0.42443  0.63873  Biso   1.000  C
  H461     1.0000 0.50217  0.44143  0.72613  Biso   1.000  H
  C550     1.0000 0.50237  0.37413  0.75683  Biso   1.000  C
  N65      1.0000 0.55327  0.40143  0.81453  Biso   1.000  N
  H462     1.0000 0.56937  0.51453  0.81573  Biso   1.000  H
  C551     1.0000 0.58867  0.49633  0.74153  Biso   1.000  C
  C552     1.0000 0.62877  0.49283  0.80993  Biso   1.000  C
  H463     1.0000 0.63857  0.51053  0.93203  Biso   1.000  H
  H464     1.0000 0.62797  0.57503  0.84713  Biso   1.000  H
  C553     1.0000 0.64327  0.61773  0.89933  Biso   1.000  C
  C554     1.0000 0.63727  0.62003  0.05633  Biso   1.000  C
  H465     1.0000 0.61347  0.57713  0.11033  Biso   1.000  H
  C555     1.0000 0.66407  0.55683  0.08233  Biso   1.000  C
  N66      1.0000 0.63887  0.51713  0.18903  Biso   1.000  N
  H466     1.0000 0.49277  0.35613  0.20253  Biso   1.000  H
  H467     1.0000 0.59397  0.42383  0.86663  Biso   1.000  H
  H468     1.0000 0.61957  0.48343  0.26743  Biso   1.000  H
  H469     1.0000 0.59037  0.49103  0.43313  Biso   1.000  H
  C556     1.0000 0.59727  0.52833  0.37033  Biso   1.000  C
  H470     1.0000 0.59437  0.56053  0.29783  Biso   1.000  H
  H471     1.0000 0.45587  0.49073  0.48833  Biso   1.000  H
  C557     1.0000 0.42377  0.45363  0.42363  Biso   1.000  C
  H472     1.0000 0.39917  0.41753  0.34343  Biso   1.000  H
  H473     1.0000 0.47437  0.39033  0.43183  Biso   1.000  H
  H474     1.0000 0.49867  0.42563  0.42973  Biso   1.000  H
  H475     1.0000 0.46487  0.41393  0.39803  Biso   1.000  H
  Ag32     1.0000 0.47523  0.34546  0.39425  Biso   1.000  Ag
  H476     1.0000 0.40697  0.36623  0.10693  Biso   1.000  H
  C558     1.0000 0.42427  0.33813  0.07913  Biso   1.000  C
  H477     1.0000 0.44687  0.31873  0.03573  Biso   1.000  H
  H478     1.0000 0.40117  0.37063  0.68073  Biso   1.000  H
  C559     1.0000 0.43957  0.40443  0.62523  Biso   1.000  C
  H479     1.0000 0.48177  0.43683  0.59243  Biso   1.000  H
  H480     1.0000 0.51207  0.36563  0.72103  Biso   1.000  H
  H481     1.0000 0.48567  0.35793  0.78953  Biso   1.000  H
  H482     1.0000 0.49447  0.38413  0.71933  Biso   1.000  H
  Ag33     1.0000 0.56902  0.38255  0.70702  Biso   1.000  Ag
  H483     1.0000 0.57647  0.49303  0.69163  Biso   1.000  H
  C560     1.0000 0.61107  0.48793  0.74163  Biso   1.000  C
  H484     1.0000 0.64367  0.48693  0.80853  Biso   1.000  H
  H485     1.0000 0.64977  0.62823  0.84563  Biso   1.000  H
  C561     1.0000 0.64727  0.63313  0.96833  Biso   1.000  C
  H486     1.0000 0.64067  0.63203  0.10693  Biso   1.000  H
  H487     1.0000 0.68097  0.56193  0.12203  Biso   1.000  H
  H488     1.0000 0.66897  0.55223  0.02473  Biso   1.000  H
  H489     1.0000 0.66047  0.57393  0.07783  Biso   1.000  H
  H490     1.0000 0.61727  0.54103  0.39143  Biso   1.000  H
  H491     1.0000 0.40717  0.45123  0.45763  Biso   1.000  H
  H492     1.0000 0.41227  0.32243  0.11893  Biso   1.000  H
  H493     1.0000 0.43067  0.40413  0.57063  Biso   1.000  H
  H494     1.0000 0.61347  0.47843  0.69163  Biso   1.000  H
  H495     1.0000 0.65737  0.65443  0.96343  Biso   1.000  H
  Au34     1.0000 0.16642  0.81630  0.45751  Biso   1.000  Au
  Au35     1.0000 0.15775  0.79190  0.27626  Biso   1.000  Au
  Au36     1.0000 0.21361  0.85001  0.32499  Biso   1.000  Au
  Ag34     1.0000 0.20161  0.79220  0.38697  Biso   1.000  Ag
  P34      1.0000 0.16954  0.79902  0.59007  Biso   1.000  P
  P35      1.0000 0.14928  0.74696  0.22247  Biso   1.000  P
  P36      1.0000 0.26325  0.86451  0.31577  Biso   1.000  P
  N67      1.0000 0.17673  0.75757  0.50307  Biso   1.000  N
  N68      1.0000 0.20663  0.76447  0.27017  Biso   1.000  N
  N69      1.0000 0.25133  0.82327  0.43847  Biso   1.000  N
  C562     1.0000 0.20583  0.82337  0.63817  Biso   1.000  C
  C563     1.0000 0.13893  0.79457  0.65837  Biso   1.000  C
  C564     1.0000 0.16713  0.76157  0.57987  Biso   1.000  C
  C565     1.0000 0.12543  0.71577  0.29447  Biso   1.000  C
  C566     1.0000 0.13203  0.74097  0.11697  Biso   1.000  C
  C567     1.0000 0.18503  0.74617  0.21177  Biso   1.000  C
  C568     1.0000 0.27053  0.84847  0.22107  Biso   1.000  C
  C569     1.0000 0.28583  0.90557  0.31467  Biso   1.000  C
  C570     1.0000 0.27443  0.84967  0.40817  Biso   1.000  C
  C571     1.0000 0.17483  0.73117  0.48947  Biso   1.000  C
  C572     1.0000 0.23353  0.76747  0.26787  Biso   1.000  C
  C573     1.0000 0.25593  0.81127  0.50717  Biso   1.000  C
  C574     1.0000 0.21953  0.81327  0.69587  Biso   1.000  C
  C575     1.0000 0.22123  0.85377  0.61617  Biso   1.000  C
  C576     1.0000 0.14373  0.81327  0.72567  Biso   1.000  C
  C577     1.0000 0.11003  0.77167  0.63867  Biso   1.000  C
  C578     1.0000 0.15633  0.73937  0.64497  Biso   1.000  C
  C579     1.0000 0.10553  0.71877  0.34797  Biso   1.000  C
  C580     1.0000 0.12823  0.69027  0.30307  Biso   1.000  C
  C581     1.0000 0.10223  0.71977  0.10227  Biso   1.000  C
  C582     1.0000 0.14833  0.75987  0.04997  Biso   1.000  C
  C583     1.0000 0.19153  0.72997  0.15187  Biso   1.000  C
  C584     1.0000 0.25153  0.84267  0.14757  Biso   1.000  C
  C585     1.0000 0.29223  0.84007  0.21707  Biso   1.000  C
  C586     1.0000 0.29653  0.91947  0.23167  Biso   1.000  C
  C587     1.0000 0.28853  0.92117  0.39067  Biso   1.000  C
  C588     1.0000 0.30283  0.86307  0.44967  Biso   1.000  C
  H496     1.0000 0.18233  0.72767  0.43667  Biso   1.000  H
  C589     1.0000 0.16233  0.70877  0.55017  Biso   1.000  C
  H497     1.0000 0.24813  0.77937  0.31037  Biso   1.000  H
  C590     1.0000 0.24053  0.75347  0.20417  Biso   1.000  C
  H498     1.0000 0.24023  0.79247  0.52837  Biso   1.000  H
  C591     1.0000 0.28363  0.82567  0.54977  Biso   1.000  C
  H499     1.0000 0.20893  0.79277  0.71417  Biso   1.000  H
  C592     1.0000 0.24813  0.83217  0.72747  Biso   1.000  C
  C593     1.0000 0.25043  0.87317  0.64757  Biso   1.000  C
  H500     1.0000 0.21193  0.86157  0.57917  Biso   1.000  H
  H501     1.0000 0.16373  0.82857  0.73947  Biso   1.000  H
  C594     1.0000 0.11923  0.81027  0.77577  Biso   1.000  C
  C595     1.0000 0.08553  0.76717  0.68867  Biso   1.000  C
  H502     1.0000 0.10693  0.75897  0.59017  Biso   1.000  H
  C596     1.0000 0.14783  0.74257  0.73337  Biso   1.000  C
  N70      1.0000 0.15433  0.71277  0.62667  Biso   1.000  N
  H503     1.0000 0.10433  0.73657  0.34417  Biso   1.000  H
  C597     1.0000 0.08783  0.69737  0.40567  Biso   1.000  C
  C598     1.0000 0.11113  0.66917  0.36247  Biso   1.000  C
  H504     1.0000 0.14193  0.68767  0.26757  Biso   1.000  H
  H505     1.0000 0.09093  0.70597  0.14717  Biso   1.000  H
  C599     1.0000 0.08853  0.71807  0.02337  Biso   1.000  C
  C600     1.0000 0.13623  0.75777  0.97207  Biso   1.000  C
  H506     1.0000 0.16883  0.77477  0.05947  Biso   1.000  H
  C601     1.0000 0.16903  0.70747  0.09017  Biso   1.000  C
  N71      1.0000 0.21993  0.73477  0.14787  Biso   1.000  N
  H507     1.0000 0.23603  0.84787  0.14907  Biso   1.000  H
  C602     1.0000 0.25533  0.82967  0.07487  Biso   1.000  C
  C603     1.0000 0.29543  0.82617  0.14327  Biso   1.000  C
  H508     1.0000 0.30523  0.84387  0.26537  Biso   1.000  H
  H509     1.0000 0.29463  0.90837  0.18047  Biso   1.000  H
  C604     1.0000 0.30993  0.95107  0.23267  Biso   1.000  C
  C605     1.0000 0.30393  0.95337  0.38967  Biso   1.000  C
  H510     1.0000 0.28013  0.91047  0.44367  Biso   1.000  H
  C606     1.0000 0.33073  0.89017  0.41567  Biso   1.000  C
  N72      1.0000 0.30553  0.85047  0.52237  Biso   1.000  N
  H511     1.0000 0.15943  0.68947  0.53587  Biso   1.000  H
  H512     1.0000 0.26063  0.75717  0.19997  Biso   1.000  H
  H513     1.0000 0.28623  0.81677  0.60077  Biso   1.000  H
  H514     1.0000 0.25703  0.82437  0.76647  Biso   1.000  H
  C607     1.0000 0.26393  0.86167  0.70367  Biso   1.000  C
  H515     1.0000 0.26103  0.89387  0.63117  Biso   1.000  H
  H516     1.0000 0.12253  0.82407  0.82167  Biso   1.000  H
  C608     1.0000 0.09043  0.78697  0.75697  Biso   1.000  C
  H517     1.0000 0.06583  0.75087  0.67677  Biso   1.000  H
  H518     1.0000 0.14103  0.72367  0.76517  Biso   1.000  H
  H519     1.0000 0.16533  0.75897  0.76307  Biso   1.000  H
  H520     1.0000 0.13153  0.74727  0.73137  Biso   1.000  H
  Ag35     1.0000 0.14189  0.67880  0.72759  Biso   1.000  Ag
  H521     1.0000 0.07363  0.69957  0.44027  Biso   1.000  H
  C609     1.0000 0.09093  0.67147  0.41247  Biso   1.000  C
  H522     1.0000 0.11353  0.65207  0.36907  Biso   1.000  H
  H523     1.0000 0.06783  0.70397  0.01407  Biso   1.000  H
  C610     1.0000 0.10623  0.73777  0.95857  Biso   1.000  C
  H524     1.0000 0.14843  0.77017  0.92577  Biso   1.000  H
  H525     1.0000 0.17873  0.69897  0.05437  Biso   1.000  H
  H526     1.0000 0.15233  0.69127  0.12287  Biso   1.000  H
  H527     1.0000 0.16113  0.71747  0.05267  Biso   1.000  H
  Ag36     1.0000 0.23568  0.71589  0.04036  Biso   1.000  Ag
  H528     1.0000 0.24313  0.82637  0.02497  Biso   1.000  H
  C611     1.0000 0.27773  0.82127  0.07497  Biso   1.000  C
  H529     1.0000 0.31033  0.82027  0.14187  Biso   1.000  H
  H530     1.0000 0.31643  0.96157  0.17897  Biso   1.000  H
  C612     1.0000 0.31393  0.96647  0.30167  Biso   1.000  C
  H531     1.0000 0.30733  0.96537  0.44027  Biso   1.000  H
  H532     1.0000 0.34763  0.89527  0.45537  Biso   1.000  H
  H533     1.0000 0.33563  0.88557  0.35807  Biso   1.000  H
  H534     1.0000 0.32713  0.90727  0.41117  Biso   1.000  H
  H535     1.0000 0.28393  0.87437  0.72477  Biso   1.000  H
  H536     1.0000 0.07383  0.78457  0.79097  Biso   1.000  H
  H537     1.0000 0.07893  0.65577  0.45227  Biso   1.000  H
  H538     1.0000 0.09733  0.73747  0.90397  Biso   1.000  H
  H539     1.0000 0.28013  0.81177  0.02497  Biso   1.000  H
  H540     1.0000 0.32403  0.98777  0.29677  Biso   1.000  H
  Au37     1.0000 0.85037  0.68346  0.79084  Biso   1.000  Au
  Au38     1.0000 0.87476  0.69918  0.60959  Biso   1.000  Au
  Au39     1.0000 0.81666  0.69693  0.65832  Biso   1.000  Au
  Ag37     1.0000 0.87447  0.74275  0.72030  Biso   1.000  Ag
  P37      1.0000 0.86765  0.70386  0.92340  Biso   1.000  P
  P38      1.0000 0.91971  0.73566  0.55580  Biso   1.000  P
  P39      1.0000 0.80216  0.73208  0.64910  Biso   1.000  P
  N73      1.0000 0.90910  0.75250  0.83640  Biso   1.000  N
  N74      1.0000 0.90220  0.77550  0.60350  Biso   1.000  N
  N75      1.0000 0.84340  0.76140  0.77180  Biso   1.000  N
  C613     1.0000 0.84330  0.71580  0.97150  Biso   1.000  C
  C614     1.0000 0.87210  0.67770  0.99170  Biso   1.000  C
  C615     1.0000 0.90510  0.73890  0.91320  Biso   1.000  C
  C616     1.0000 0.95090  0.74300  0.62780  Biso   1.000  C
  C617     1.0000 0.92570  0.72440  0.45030  Biso   1.000  C
  C618     1.0000 0.92050  0.77220  0.54510  Biso   1.000  C
  C619     1.0000 0.81820  0.75540  0.55440  Biso   1.000  C
  C620     1.0000 0.76110  0.71360  0.64800  Biso   1.000  C
  C621     1.0000 0.81700  0.75810  0.74150  Biso   1.000  C
  C622     1.0000 0.93550  0.77700  0.82280  Biso   1.000  C
  C623     1.0000 0.89920  0.79940  0.60120  Biso   1.000  C
  C624     1.0000 0.85540  0.77800  0.84050  Biso   1.000  C
  C625     1.0000 0.85340  0.73960  0.02920  Biso   1.000  C
  C626     1.0000 0.81290  0.70080  0.94950  Biso   1.000  C
  C627     1.0000 0.85340  0.66380  0.05900  Biso   1.000  C
  C628     1.0000 0.89500  0.67170  0.97200  Biso   1.000  C
  C629     1.0000 0.92730  0.75030  0.97830  Biso   1.000  C
  C630     1.0000 0.94790  0.72010  0.68130  Biso   1.000  C
  C631     1.0000 0.97640  0.77130  0.63640  Biso   1.000  C
  C632     1.0000 0.94690  0.71580  0.43560  Biso   1.000  C
  C633     1.0000 0.90680  0.72180  0.38330  Biso   1.000  C
  C634     1.0000 0.93670  0.79490  0.48520  Biso   1.000  C
  C635     1.0000 0.82400  0.74220  0.48090  Biso   1.000  C
  C636     1.0000 0.82660  0.78550  0.55040  Biso   1.000  C
  C637     1.0000 0.74720  0.71040  0.56500  Biso   1.000  C
  C638     1.0000 0.74550  0.70070  0.72400  Biso   1.000  C
  C639     1.0000 0.80360  0.77310  0.78300  Biso   1.000  C
  H541     1.0000 0.93900  0.78800  0.77000  Biso   1.000  H
  C640     1.0000 0.95790  0.78690  0.88350  Biso   1.000  C
  H542     1.0000 0.88730  0.80210  0.64370  Biso   1.000  H
  C641     1.0000 0.91320  0.82040  0.53750  Biso   1.000  C
  H543     1.0000 0.87420  0.78110  0.86170  Biso   1.000  H
  C642     1.0000 0.84100  0.79130  0.88310  Biso   1.000  C
  H544     1.0000 0.87390  0.74950  0.04750  Biso   1.000  H
  C643     1.0000 0.83450  0.74930  0.06080  Biso   1.000  C
  C644     1.0000 0.79350  0.71060  0.98090  Biso   1.000  C
  H545     1.0000 0.80510  0.68370  0.91250  Biso   1.000  H
  H546     1.0000 0.83810  0.66850  0.07280  Biso   1.000  H
  C645     1.0000 0.85640  0.64230  0.10910  Biso   1.000  C
  C646     1.0000 0.89950  0.65170  0.02200  Biso   1.000  C
  H547     1.0000 0.90770  0.68130  0.92350  Biso   1.000  H
  C647     1.0000 0.92410  0.73860  0.06670  Biso   1.000  C
  N76      1.0000 0.95390  0.77490  0.96000  Biso   1.000  N
  H548     1.0000 0.93010  0.70110  0.67750  Biso   1.000  H
  C648     1.0000 0.96930  0.72380  0.73900  Biso   1.000  C
  C649     1.0000 0.99750  0.77530  0.69580  Biso   1.000  C
  H549     1.0000 0.97900  0.78760  0.60090  Biso   1.000  H
  H550     1.0000 0.96070  0.71830  0.48050  Biso   1.000  H
  C650     1.0000 0.94860  0.70380  0.35670  Biso   1.000  C
  C651     1.0000 0.90890  0.71180  0.30540  Biso   1.000  C
  H551     1.0000 0.89190  0.72740  0.39280  Biso   1.000  H
  C652     1.0000 0.95920  0.79490  0.42350  Biso   1.000  C
  N77      1.0000 0.93190  0.81850  0.48120  Biso   1.000  N
  H552     1.0000 0.81880  0.72150  0.48240  Biso   1.000  H
  C653     1.0000 0.83700  0.75900  0.40820  Biso   1.000  C
  C654     1.0000 0.84050  0.80260  0.47660  Biso   1.000  C
  H553     1.0000 0.82280  0.79470  0.59870  Biso   1.000  H
  H554     1.0000 0.75830  0.71960  0.51380  Biso   1.000  H
  C655     1.0000 0.71560  0.69220  0.56600  Biso   1.000  C
  C656     1.0000 0.71330  0.68390  0.72300  Biso   1.000  C
  H555     1.0000 0.75620  0.70300  0.77700  Biso   1.000  H
  C657     1.0000 0.77650  0.77390  0.74900  Biso   1.000  C
  N78      1.0000 0.81620  0.78840  0.85570  Biso   1.000  N
  H556     1.0000 0.97720  0.80330  0.86920  Biso   1.000  H
  H557     1.0000 0.90950  0.83680  0.53330  Biso   1.000  H
  H558     1.0000 0.84990  0.80280  0.93410  Biso   1.000  H
  H559     1.0000 0.84230  0.76600  0.09980  Biso   1.000  H
  C658     1.0000 0.80500  0.73560  0.03700  Biso   1.000  C
  H560     1.0000 0.77280  0.70050  0.96450  Biso   1.000  H
  H561     1.0000 0.84260  0.63180  0.15500  Biso   1.000  H
  C659     1.0000 0.87970  0.63680  0.09030  Biso   1.000  C
  H562     1.0000 0.91580  0.64830  0.01010  Biso   1.000  H
  H563     1.0000 0.94300  0.75070  0.09850  Biso   1.000  H
  H564     1.0000 0.90770  0.73970  0.09640  Biso   1.000  H
  H565     1.0000 0.91940  0.71760  0.06470  Biso   1.000  H
  Ag38     1.0000 0.98787  0.79643  0.06092  Biso   1.000  Ag
  H566     1.0000 0.96710  0.70740  0.77360  Biso   1.000  H
  C660     1.0000 0.99520  0.75280  0.74580  Biso   1.000  C
  H567     1.0000 0.01460  0.79480  0.70240  Biso   1.000  H
  H568     1.0000 0.96270  0.69720  0.34740  Biso   1.000  H
  C661     1.0000 0.92890  0.70180  0.29190  Biso   1.000  C
  H569     1.0000 0.89650  0.71160  0.25910  Biso   1.000  H
  H570     1.0000 0.96770  0.81310  0.38770  Biso   1.000  H
  H571     1.0000 0.97540  0.79440  0.45620  Biso   1.000  H
  H572     1.0000 0.94920  0.77700  0.38600  Biso   1.000  H
  Ag39     1.0000 0.95078  0.85313  0.37369  Biso   1.000  Ag
  H573     1.0000 0.84030  0.75010  0.35830  Biso   1.000  H
  C662     1.0000 0.84540  0.78980  0.40830  Biso   1.000  C
  H574     1.0000 0.84640  0.82340  0.47520  Biso   1.000  H
  H575     1.0000 0.70510  0.68820  0.51230  Biso   1.000  H
  C663     1.0000 0.70020  0.68080  0.63500  Biso   1.000  C
  H576     1.0000 0.70130  0.67530  0.77360  Biso   1.000  H
  H577     1.0000 0.77140  0.78570  0.78870  Biso   1.000  H
  H578     1.0000 0.78110  0.78340  0.69140  Biso   1.000  H
  H579     1.0000 0.75940  0.75320  0.74450  Biso   1.000  H
  H580     1.0000 0.79230  0.74290  0.05810  Biso   1.000  H
  H581     1.0000 0.88210  0.62260  0.12430  Biso   1.000  H
  H582     1.0000 0.01090  0.75650  0.78560  Biso   1.000  H
  H583     1.0000 0.92920  0.69320  0.23730  Biso   1.000  H
  H584     1.0000 0.85490  0.80170  0.35830  Biso   1.000  H
  H585     1.0000 0.67890  0.66960  0.63010  Biso   1.000  H
  Au40     1.0000 0.51703  0.01679  0.12417  Biso   1.000  Au
  Au41     1.0000 0.54143  0.03251  0.94292  Biso   1.000  Au
  Au42     1.0000 0.48332  0.03027  0.99165  Biso   1.000  Au
  Ag40     1.0000 0.54114  0.07608  0.05363  Biso   1.000  Ag
  P40      1.0000 0.53432  0.03719  0.25673  Biso   1.000  P
  P41      1.0000 0.58638  0.06899  0.88913  Biso   1.000  P
  P42      1.0000 0.46883  0.06541  0.98243  Biso   1.000  P
  N79      1.0000 0.57577  0.08583  0.16973  Biso   1.000  N
  N80      1.0000 0.56887  0.10883  0.93683  Biso   1.000  N
  N81      1.0000 0.51007  0.09473  0.10513  Biso   1.000  N
  C664     1.0000 0.50997  0.04913  0.30483  Biso   1.000  C
  C665     1.0000 0.53877  0.01103  0.32503  Biso   1.000  C
  C666     1.0000 0.57177  0.07223  0.24653  Biso   1.000  C
  C667     1.0000 0.61757  0.07633  0.96113  Biso   1.000  C
  C668     1.0000 0.59237  0.05773  0.78363  Biso   1.000  C
  C669     1.0000 0.58717  0.10553  0.87843  Biso   1.000  C
  C670     1.0000 0.48487  0.08873  0.88773  Biso   1.000  C
  C671     1.0000 0.42777  0.04693  0.98133  Biso   1.000  C
  C672     1.0000 0.48367  0.09143  0.07483  Biso   1.000  C
  C673     1.0000 0.60217  0.11033  0.15613  Biso   1.000  C
  C674     1.0000 0.56587  0.13273  0.93453  Biso   1.000  C
  C675     1.0000 0.52207  0.11133  0.17383  Biso   1.000  C
  C676     1.0000 0.52007  0.07293  0.36253  Biso   1.000  C
  C677     1.0000 0.47957  0.03413  0.28283  Biso   1.000  C
  C678     1.0000 0.52007  0.99713  0.39233  Biso   1.000  C
  C679     1.0000 0.56167  0.00503  0.30533  Biso   1.000  C
  C680     1.0000 0.59397  0.08363  0.31163  Biso   1.000  C
  C681     1.0000 0.61457  0.05343  0.01463  Biso   1.000  C
  C682     1.0000 0.64307  0.10463  0.96973  Biso   1.000  C
  C683     1.0000 0.61357  0.04913  0.76893  Biso   1.000  C
  C684     1.0000 0.57347  0.05513  0.71663  Biso   1.000  C
  C685     1.0000 0.60337  0.12823  0.81853  Biso   1.000  C
  C686     1.0000 0.49067  0.07553  0.81423  Biso   1.000  C
  C687     1.0000 0.49327  0.11883  0.88373  Biso   1.000  C
  C688     1.0000 0.41387  0.04373  0.89833  Biso   1.000  C
  C689     1.0000 0.41217  0.03403  0.05733  Biso   1.000  C
  C690     1.0000 0.47027  0.10643  0.11633  Biso   1.000  C
  H586     1.0000 0.60567  0.12133  0.10333  Biso   1.000  H
  C691     1.0000 0.62457  0.12023  0.21683  Biso   1.000  C
  H587     1.0000 0.55397  0.13543  0.97703  Biso   1.000  H
  C692     1.0000 0.57987  0.15373  0.87083  Biso   1.000  C
  H588     1.0000 0.54087  0.11443  0.19503  Biso   1.000  H
  C693     1.0000 0.50767  0.12463  0.21643  Biso   1.000  C
  H589     1.0000 0.54057  0.08283  0.38083  Biso   1.000  H
  C694     1.0000 0.50117  0.08263  0.39413  Biso   1.000  C
  C695     1.0000 0.46017  0.04393  0.31423  Biso   1.000  C
  H590     1.0000 0.47177  0.01703  0.24583  Biso   1.000  H
  H591     1.0000 0.50477  0.00183  0.40613  Biso   1.000  H
  C696     1.0000 0.52307  0.97563  0.44243  Biso   1.000  C
  C697     1.0000 0.56617  0.98503  0.35533  Biso   1.000  C
  H592     1.0000 0.57437  0.01463  0.25683  Biso   1.000  H
  C698     1.0000 0.59077  0.07193  0.40003  Biso   1.000  C
  N82      1.0000 0.62057  0.10823  0.29333  Biso   1.000  N
  H593     1.0000 0.59677  0.03443  0.01083  Biso   1.000  H
  C699     1.0000 0.63597  0.05713  0.07233  Biso   1.000  C
  C700     1.0000 0.66417  0.10863  0.02913  Biso   1.000  C
  H594     1.0000 0.64567  0.12093  0.93423  Biso   1.000  H
  H595     1.0000 0.62737  0.05163  0.81383  Biso   1.000  H
  C701     1.0000 0.61527  0.03713  0.69003  Biso   1.000  C
  C702     1.0000 0.57557  0.04513  0.63873  Biso   1.000  C
  H596     1.0000 0.55857  0.06073  0.72613  Biso   1.000  H
  C703     1.0000 0.62587  0.12823  0.75683  Biso   1.000  C
  N83      1.0000 0.59857  0.15183  0.81453  Biso   1.000  N
  H597     1.0000 0.48547  0.05483  0.81573  Biso   1.000  H
  C704     1.0000 0.50367  0.09233  0.74153  Biso   1.000  C
  C705     1.0000 0.50717  0.13593  0.80993  Biso   1.000  C
  H598     1.0000 0.48947  0.12803  0.93203  Biso   1.000  H
  H599     1.0000 0.42497  0.05293  0.84713  Biso   1.000  H
  C706     1.0000 0.38227  0.02553  0.89933  Biso   1.000  C
  C707     1.0000 0.37997  0.01723  0.05633  Biso   1.000  C
  H600     1.0000 0.42287  0.03633  0.11033  Biso   1.000  H
  C708     1.0000 0.44317  0.10723  0.08233  Biso   1.000  C
  N84      1.0000 0.48287  0.12173  0.18903  Biso   1.000  N
  H601     1.0000 0.64387  0.13663  0.20253  Biso   1.000  H
  H602     1.0000 0.57617  0.17013  0.86663  Biso   1.000  H
  H603     1.0000 0.51657  0.13613  0.26743  Biso   1.000  H
  H604     1.0000 0.50897  0.09933  0.43313  Biso   1.000  H
  C709     1.0000 0.47167  0.06893  0.37033  Biso   1.000  C
  H605     1.0000 0.43947  0.03383  0.29783  Biso   1.000  H
  H606     1.0000 0.50927  0.96513  0.48833  Biso   1.000  H
  C710     1.0000 0.54637  0.97013  0.42363  Biso   1.000  C
  H607     1.0000 0.58247  0.98163  0.34343  Biso   1.000  H
  H608     1.0000 0.60967  0.08403  0.43183  Biso   1.000  H
  H609     1.0000 0.57437  0.07303  0.42973  Biso   1.000  H
  H610     1.0000 0.58607  0.05093  0.39803  Biso   1.000  H
  Ag41     1.0000 0.65454  0.12976  0.39425  Biso   1.000  Ag
  H611     1.0000 0.63377  0.04073  0.10693  Biso   1.000  H
  C711     1.0000 0.66187  0.08613  0.07913  Biso   1.000  C
  H612     1.0000 0.68127  0.12813  0.03573  Biso   1.000  H
  H613     1.0000 0.62937  0.03053  0.68073  Biso   1.000  H
  C712     1.0000 0.59557  0.03513  0.62523  Biso   1.000  C
  H614     1.0000 0.56317  0.04493  0.59243  Biso   1.000  H
  H615     1.0000 0.63437  0.14643  0.72103  Biso   1.000  H
  H616     1.0000 0.64207  0.12773  0.78953  Biso   1.000  H
  H617     1.0000 0.61587  0.11033  0.71933  Biso   1.000  H
  Ag42     1.0000 0.61745  0.18646  0.70702  Biso   1.000  Ag
  H618     1.0000 0.50697  0.08343  0.69163  Biso   1.000  H
  C713     1.0000 0.51207  0.12313  0.74163  Biso   1.000  C
  H619     1.0000 0.51307  0.15673  0.80853  Biso   1.000  H
  H620     1.0000 0.37177  0.02153  0.84563  Biso   1.000  H
  C714     1.0000 0.36687  0.01413  0.96833  Biso   1.000  C
  H621     1.0000 0.36797  0.00863  0.10693  Biso   1.000  H
  H622     1.0000 0.43807  0.11903  0.12203  Biso   1.000  H
  H623     1.0000 0.44777  0.11673  0.02473  Biso   1.000  H
  H624     1.0000 0.42607  0.08653  0.07783  Biso   1.000  H
  H625     1.0000 0.45897  0.07623  0.39143  Biso   1.000  H
  H626     1.0000 0.54877  0.95593  0.45763  Biso   1.000  H
  H627     1.0000 0.67757  0.08983  0.11893  Biso   1.000  H
  H628     1.0000 0.59587  0.02653  0.57063  Biso   1.000  H
  H629     1.0000 0.52157  0.13503  0.69163  Biso   1.000  H
  H630     1.0000 0.34557  0.00293  0.96343  Biso   1.000  H
  Au43     1.0000 0.18370  0.35012  0.45751  Biso   1.000  Au
  Au44     1.0000 0.20810  0.36585  0.27626  Biso   1.000  Au
  Au45     1.0000 0.14999  0.36360  0.32499  Biso   1.000  Au
  Ag43     1.0000 0.20780  0.40942  0.38697  Biso   1.000  Ag
  P43      1.0000 0.20098  0.37053  0.59007  Biso   1.000  P
  P44      1.0000 0.25304  0.40233  0.22247  Biso   1.000  P
  P45      1.0000 0.13549  0.39875  0.31577  Biso   1.000  P
  N85      1.0000 0.24243  0.41917  0.50307  Biso   1.000  N
  N86      1.0000 0.23553  0.44217  0.27017  Biso   1.000  N
  N87      1.0000 0.17673  0.42807  0.43847  Biso   1.000  N
  C715     1.0000 0.17663  0.38247  0.63817  Biso   1.000  C
  C716     1.0000 0.20543  0.34437  0.65837  Biso   1.000  C
  C717     1.0000 0.23843  0.40557  0.57987  Biso   1.000  C
  C718     1.0000 0.28423  0.40967  0.29447  Biso   1.000  C
  C719     1.0000 0.25903  0.39107  0.11697  Biso   1.000  C
  C720     1.0000 0.25383  0.43887  0.21177  Biso   1.000  C
  C721     1.0000 0.15153  0.42207  0.22107  Biso   1.000  C
  C722     1.0000 0.09443  0.38027  0.31467  Biso   1.000  C
  C723     1.0000 0.15033  0.42477  0.40817  Biso   1.000  C
  C724     1.0000 0.26883  0.44367  0.48947  Biso   1.000  C
  C725     1.0000 0.23253  0.46607  0.26787  Biso   1.000  C
  C726     1.0000 0.18873  0.44467  0.50717  Biso   1.000  C
  C727     1.0000 0.18673  0.40627  0.69587  Biso   1.000  C
  C728     1.0000 0.14623  0.36747  0.61617  Biso   1.000  C
  C729     1.0000 0.18673  0.33047  0.72567  Biso   1.000  C
  C730     1.0000 0.22833  0.33837  0.63867  Biso   1.000  C
  C731     1.0000 0.26063  0.41697  0.64497  Biso   1.000  C
  C732     1.0000 0.28123  0.38677  0.34797  Biso   1.000  C
  C733     1.0000 0.30973  0.43797  0.30307  Biso   1.000  C
  C734     1.0000 0.28023  0.38247  0.10227  Biso   1.000  C
  C735     1.0000 0.24013  0.38847  0.04997  Biso   1.000  C
  C736     1.0000 0.27003  0.46157  0.15187  Biso   1.000  C
  C737     1.0000 0.15733  0.40887  0.14757  Biso   1.000  C
  C738     1.0000 0.15993  0.45217  0.21707  Biso   1.000  C
  C739     1.0000 0.08053  0.37707  0.23167  Biso   1.000  C
  C740     1.0000 0.07883  0.36737  0.39067  Biso   1.000  C
  C741     1.0000 0.13693  0.43977  0.44967  Biso   1.000  C
  H631     1.0000 0.27233  0.45467  0.43667  Biso   1.000  H
  C742     1.0000 0.29123  0.45357  0.55017  Biso   1.000  C
  H632     1.0000 0.22063  0.46877  0.31037  Biso   1.000  H
  C743     1.0000 0.24653  0.48707  0.20417  Biso   1.000  C
  H633     1.0000 0.20753  0.44777  0.52837  Biso   1.000  H
  C744     1.0000 0.17433  0.45797  0.54977  Biso   1.000  C
  H634     1.0000 0.20723  0.41617  0.71417  Biso   1.000  H
  C745     1.0000 0.16783  0.41597  0.72747  Biso   1.000  C
  C746     1.0000 0.12683  0.37727  0.64757  Biso   1.000  C
  H635     1.0000 0.13843  0.35037  0.57917  Biso   1.000  H
  H636     1.0000 0.17143  0.33517  0.73947  Biso   1.000  H
  C747     1.0000 0.18973  0.30897  0.77577  Biso   1.000  C
  C748     1.0000 0.23283  0.31837  0.68867  Biso   1.000  C
  H637     1.0000 0.24103  0.34797  0.59017  Biso   1.000  H
  C749     1.0000 0.25743  0.40527  0.73337  Biso   1.000  C
  N88      1.0000 0.28723  0.44157  0.62667  Biso   1.000  N
  H638     1.0000 0.26343  0.36777  0.34417  Biso   1.000  H
  C750     1.0000 0.30263  0.39047  0.40567  Biso   1.000  C
  C751     1.0000 0.33083  0.44197  0.36247  Biso   1.000  C
  H639     1.0000 0.31233  0.45427  0.26757  Biso   1.000  H
  H640     1.0000 0.29403  0.38497  0.14717  Biso   1.000  H
  C752     1.0000 0.28193  0.37047  0.02337  Biso   1.000  C
  C753     1.0000 0.24223  0.37847  0.97207  Biso   1.000  C
  H641     1.0000 0.22523  0.39407  0.05947  Biso   1.000  H
  C754     1.0000 0.29253  0.46157  0.09017  Biso   1.000  C
  N89      1.0000 0.26523  0.48517  0.14787  Biso   1.000  N
  H642     1.0000 0.15213  0.38817  0.14907  Biso   1.000  H
  C755     1.0000 0.17033  0.42567  0.07487  Biso   1.000  C
  C756     1.0000 0.17383  0.46927  0.14327  Biso   1.000  C
  H643     1.0000 0.15613  0.46137  0.26537  Biso   1.000  H
  H644     1.0000 0.09163  0.38627  0.18047  Biso   1.000  H
  C757     1.0000 0.04893  0.35887  0.23267  Biso   1.000  C
  C758     1.0000 0.04663  0.35057  0.38967  Biso   1.000  C
  H645     1.0000 0.08953  0.36967  0.44367  Biso   1.000  H
  C759     1.0000 0.10983  0.44057  0.41567  Biso   1.000  C
  N90      1.0000 0.14953  0.45507  0.52237  Biso   1.000  N
  H646     1.0000 0.31053  0.46997  0.53587  Biso   1.000  H
  H647     1.0000 0.24283  0.50347  0.19997  Biso   1.000  H
  H648     1.0000 0.18323  0.46947  0.60077  Biso   1.000  H
  H649     1.0000 0.17563  0.43267  0.76647  Biso   1.000  H
  C760     1.0000 0.13833  0.40227  0.70367  Biso   1.000  C
  H650     1.0000 0.10613  0.36717  0.63117  Biso   1.000  H
  H651     1.0000 0.17593  0.29847  0.82167  Biso   1.000  H
  C761     1.0000 0.21303  0.30347  0.75697  Biso   1.000  C
  H652     1.0000 0.24913  0.31497  0.67677  Biso   1.000  H
  H653     1.0000 0.27633  0.41737  0.76517  Biso   1.000  H
  H654     1.0000 0.24103  0.40637  0.76307  Biso   1.000  H
  H655     1.0000 0.25273  0.38427  0.73137  Biso   1.000  H
  Ag44     1.0000 0.32120  0.46310  0.72759  Biso   1.000  Ag
  H656     1.0000 0.30043  0.37407  0.44027  Biso   1.000  H
  C762     1.0000 0.32853  0.41947  0.41247  Biso   1.000  C
  H657     1.0000 0.34793  0.46147  0.36907  Biso   1.000  H
  H658     1.0000 0.29603  0.36387  0.01407  Biso   1.000  H
  C763     1.0000 0.26223  0.36847  0.95857  Biso   1.000  C
  H659     1.0000 0.22983  0.37827  0.92577  Biso   1.000  H
  H660     1.0000 0.30103  0.47977  0.05437  Biso   1.000  H
  H661     1.0000 0.30873  0.46107  0.12287  Biso   1.000  H
  H662     1.0000 0.28253  0.44367  0.05267  Biso   1.000  H
  Ag45     1.0000 0.28411  0.51980  0.04036  Biso   1.000  Ag
  H663     1.0000 0.17363  0.41677  0.02497  Biso   1.000  H
  C764     1.0000 0.17873  0.45647  0.07497  Biso   1.000  C
  H664     1.0000 0.17973  0.49007  0.14187  Biso   1.000  H
  H665     1.0000 0.03843  0.35487  0.17897  Biso   1.000  H
  C765     1.0000 0.03353  0.34747  0.30167  Biso   1.000  C
  H666     1.0000 0.03463  0.34197  0.44027  Biso   1.000  H
  H667     1.0000 0.10473  0.45237  0.45537  Biso   1.000  H
  H668     1.0000 0.11443  0.45007  0.35807  Biso   1.000  H
  H669     1.0000 0.09273  0.41987  0.41117  Biso   1.000  H
  H670     1.0000 0.12563  0.40957  0.72477  Biso   1.000  H
  H671     1.0000 0.21543  0.28927  0.79097  Biso   1.000  H
  H672     1.0000 0.34423  0.42317  0.45227  Biso   1.000  H
  H673     1.0000 0.26253  0.35987  0.90397  Biso   1.000  H
  H674     1.0000 0.18823  0.46837  0.02497  Biso   1.000  H
  H675     1.0000 0.01223  0.33627  0.29677  Biso   1.000  H
  Au46     1.0000 0.31654  0.16691  0.79084  Biso   1.000  Au
  Au47     1.0000 0.30082  0.17558  0.60959  Biso   1.000  Au
  Au48     1.0000 0.30307  0.11972  0.65832  Biso   1.000  Au
  Ag46     1.0000 0.25725  0.13172  0.72030  Biso   1.000  Ag
  P46      1.0000 0.29614  0.16379  0.92340  Biso   1.000  P
  P47      1.0000 0.26434  0.18405  0.55580  Biso   1.000  P
  P48      1.0000 0.26792  0.07008  0.64910  Biso   1.000  P
  N91      1.0000 0.24750  0.15660  0.83640  Biso   1.000  N
  N92      1.0000 0.22450  0.12670  0.60350  Biso   1.000  N
  N93      1.0000 0.23860  0.08200  0.77180  Biso   1.000  N
  C766     1.0000 0.28420  0.12750  0.97150  Biso   1.000  C
  C767     1.0000 0.32230  0.19440  0.99170  Biso   1.000  C
  C768     1.0000 0.26110  0.16620  0.91320  Biso   1.000  C
  C769     1.0000 0.25700  0.20790  0.62780  Biso   1.000  C
  C770     1.0000 0.27560  0.20130  0.45030  Biso   1.000  C
  C771     1.0000 0.22780  0.14830  0.54510  Biso   1.000  C
  C772     1.0000 0.24460  0.06280  0.55440  Biso   1.000  C
  C773     1.0000 0.28640  0.04750  0.64800  Biso   1.000  C
  C774     1.0000 0.24190  0.05890  0.74150  Biso   1.000  C
  C775     1.0000 0.22300  0.15850  0.82280  Biso   1.000  C
  C776     1.0000 0.20060  0.09980  0.60120  Biso   1.000  C
  C777     1.0000 0.22200  0.07740  0.84050  Biso   1.000  C
  C778     1.0000 0.26040  0.11380  0.02920  Biso   1.000  C
  C779     1.0000 0.29920  0.11210  0.94950  Biso   1.000  C
  C780     1.0000 0.33620  0.18960  0.05900  Biso   1.000  C
  C781     1.0000 0.32830  0.22330  0.97200  Biso   1.000  C
  C782     1.0000 0.24970  0.17700  0.97830  Biso   1.000  C
  C783     1.0000 0.27990  0.22780  0.68130  Biso   1.000  C
  C784     1.0000 0.22870  0.20510  0.63640  Biso   1.000  C
  C785     1.0000 0.28420  0.23110  0.43560  Biso   1.000  C
  C786     1.0000 0.27820  0.18500  0.38330  Biso   1.000  C
  C787     1.0000 0.20510  0.14180  0.48520  Biso   1.000  C
  C788     1.0000 0.25780  0.08180  0.48090  Biso   1.000  C
  C789     1.0000 0.21450  0.04110  0.55040  Biso   1.000  C
  C790     1.0000 0.28960  0.03680  0.56500  Biso   1.000  C
  C791     1.0000 0.29930  0.04480  0.72400  Biso   1.000  C
  C792     1.0000 0.22690  0.03050  0.78300  Biso   1.000  C
  H676     1.0000 0.21200  0.15100  0.77000  Biso   1.000  H
  C793     1.0000 0.21310  0.17100  0.88350  Biso   1.000  C
  H677     1.0000 0.19790  0.08520  0.64370  Biso   1.000  H
  C794     1.0000 0.17960  0.09280  0.53750  Biso   1.000  C
  H678     1.0000 0.21890  0.09310  0.86170  Biso   1.000  H
  C795     1.0000 0.20870  0.04970  0.88310  Biso   1.000  C
  H679     1.0000 0.25050  0.12440  0.04750  Biso   1.000  H
  C796     1.0000 0.25070  0.08520  0.06080  Biso   1.000  C
  C797     1.0000 0.28940  0.08290  0.98090  Biso   1.000  C
  H680     1.0000 0.31630  0.12140  0.91250  Biso   1.000  H
  H681     1.0000 0.33150  0.16960  0.07280  Biso   1.000  H
  C798     1.0000 0.35770  0.21410  0.10910  Biso   1.000  C
  C799     1.0000 0.34830  0.24780  0.02200  Biso   1.000  C
  H682     1.0000 0.31870  0.22640  0.92350  Biso   1.000  H
  C800     1.0000 0.26140  0.18550  0.06670  Biso   1.000  C
  N94      1.0000 0.22510  0.17900  0.96000  Biso   1.000  N
  H683     1.0000 0.29890  0.22900  0.67750  Biso   1.000  H
  C801     1.0000 0.27620  0.24550  0.73900  Biso   1.000  C
  C802     1.0000 0.22470  0.22220  0.69580  Biso   1.000  C
  H684     1.0000 0.21240  0.19140  0.60090  Biso   1.000  H
  H685     1.0000 0.28170  0.24240  0.48050  Biso   1.000  H
  C803     1.0000 0.29620  0.24480  0.35670  Biso   1.000  C
  C804     1.0000 0.28820  0.19710  0.30540  Biso   1.000  C
  H686     1.0000 0.27260  0.16450  0.39280  Biso   1.000  H
  C805     1.0000 0.20510  0.16430  0.42350  Biso   1.000  C
  N95      1.0000 0.18150  0.11340  0.48120  Biso   1.000  N
  H687     1.0000 0.27850  0.09730  0.48240  Biso   1.000  H
  C806     1.0000 0.24100  0.07800  0.40820  Biso   1.000  C
  C807     1.0000 0.19740  0.03790  0.47660  Biso   1.000  C
  H688     1.0000 0.20530  0.02810  0.59870  Biso   1.000  H
  H689     1.0000 0.28040  0.03870  0.51380  Biso   1.000  H
  C808     1.0000 0.30780  0.02340  0.56600  Biso   1.000  C
  C809     1.0000 0.31610  0.02940  0.72300  Biso   1.000  C
  H690     1.0000 0.29700  0.05320  0.77700  Biso   1.000  H
  C810     1.0000 0.22610  0.00260  0.74900  Biso   1.000  C
  N96      1.0000 0.21160  0.02780  0.85570  Biso   1.000  N
  H691     1.0000 0.19670  0.17390  0.86920  Biso   1.000  H
  H692     1.0000 0.16320  0.07270  0.53330  Biso   1.000  H
  H693     1.0000 0.19720  0.04710  0.93410  Biso   1.000  H
  H694     1.0000 0.23400  0.07630  0.09980  Biso   1.000  H
  C811     1.0000 0.26440  0.06940  0.03700  Biso   1.000  C
  H695     1.0000 0.29950  0.07230  0.96450  Biso   1.000  H
  H696     1.0000 0.36820  0.21080  0.15500  Biso   1.000  H
  C812     1.0000 0.36320  0.24290  0.09030  Biso   1.000  C
  H697     1.0000 0.35170  0.26750  0.01010  Biso   1.000  H
  H698     1.0000 0.24930  0.19230  0.09850  Biso   1.000  H
  H699     1.0000 0.26030  0.16800  0.09640  Biso   1.000  H
  H700     1.0000 0.28240  0.20180  0.06470  Biso   1.000  H
  Ag47     1.0000 0.20357  0.19144  0.06092  Biso   1.000  Ag
  H701     1.0000 0.29260  0.25970  0.77360  Biso   1.000  H
  C813     1.0000 0.24720  0.24240  0.74580  Biso   1.000  C
  H702     1.0000 0.20520  0.21980  0.70240  Biso   1.000  H
  H703     1.0000 0.30280  0.26550  0.34740  Biso   1.000  H
  C814     1.0000 0.29820  0.22710  0.29190  Biso   1.000  C
  H704     1.0000 0.28840  0.18490  0.25910  Biso   1.000  H
  H705     1.0000 0.18690  0.15460  0.38770  Biso   1.000  H
  H706     1.0000 0.20560  0.18100  0.45620  Biso   1.000  H
  H707     1.0000 0.22300  0.17220  0.38600  Biso   1.000  H
  Ag48     1.0000 0.14687  0.09765  0.37369  Biso   1.000  Ag
  H708     1.0000 0.24990  0.09020  0.35830  Biso   1.000  H
  C815     1.0000 0.21020  0.05560  0.40830  Biso   1.000  C
  H709     1.0000 0.17660  0.02300  0.47520  Biso   1.000  H
  H710     1.0000 0.31180  0.01690  0.51230  Biso   1.000  H
  C816     1.0000 0.31920  0.01940  0.63500  Biso   1.000  C
  H711     1.0000 0.32470  0.02600  0.77360  Biso   1.000  H
  H712     1.0000 0.21430  0.98570  0.78870  Biso   1.000  H
  H713     1.0000 0.21660  0.99770  0.69140  Biso   1.000  H
  H714     1.0000 0.24680  0.00620  0.74450  Biso   1.000  H
  H715     1.0000 0.25710  0.04940  0.05810  Biso   1.000  H
  H716     1.0000 0.37740  0.25950  0.12430  Biso   1.000  H
  H717     1.0000 0.24350  0.25440  0.78560  Biso   1.000  H
  H718     1.0000 0.30680  0.23600  0.23730  Biso   1.000  H
  H719     1.0000 0.19830  0.05320  0.35830  Biso   1.000  H
  H720     1.0000 0.33040  0.00930  0.63010  Biso   1.000  H
  Au49     1.0000 0.98321  0.50025  0.12417  Biso   1.000  Au
  Au50     1.0000 0.96749  0.50892  0.94292  Biso   1.000  Au
  Au51     1.0000 0.96973  0.45306  0.99165  Biso   1.000  Au
  Ag49     1.0000 0.92392  0.46505  0.05363  Biso   1.000  Ag
  P49      1.0000 0.96281  0.49712  0.25673  Biso   1.000  P
  P50      1.0000 0.93101  0.51738  0.88913  Biso   1.000  P
  P51      1.0000 0.93459  0.40341  0.98243  Biso   1.000  P
  N97      1.0000 0.91417  0.48993  0.16973  Biso   1.000  N
  N98      1.0000 0.89117  0.46003  0.93683  Biso   1.000  N
  N99      1.0000 0.90527  0.41533  0.10513  Biso   1.000  N
  C817     1.0000 0.95087  0.46083  0.30483  Biso   1.000  C
  C818     1.0000 0.98897  0.52773  0.32503  Biso   1.000  C
  C819     1.0000 0.92777  0.49953  0.24653  Biso   1.000  C
  C820     1.0000 0.92367  0.54123  0.96113  Biso   1.000  C
  C821     1.0000 0.94227  0.53463  0.78363  Biso   1.000  C
  C822     1.0000 0.89447  0.48163  0.87843  Biso   1.000  C
  C823     1.0000 0.91127  0.39613  0.88773  Biso   1.000  C
  C824     1.0000 0.95307  0.38083  0.98133  Biso   1.000  C
  C825     1.0000 0.90857  0.39223  0.07483  Biso   1.000  C
  C826     1.0000 0.88967  0.49183  0.15613  Biso   1.000  C
  C827     1.0000 0.86727  0.43313  0.93453  Biso   1.000  C
  C828     1.0000 0.88867  0.41073  0.17383  Biso   1.000  C
  C829     1.0000 0.92707  0.44713  0.36253  Biso   1.000  C
  C830     1.0000 0.96587  0.44543  0.28283  Biso   1.000  C
  C831     1.0000 0.00287  0.52293  0.39233  Biso   1.000  C
  C832     1.0000 0.99497  0.55663  0.30533  Biso   1.000  C
  C833     1.0000 0.91637  0.51033  0.31163  Biso   1.000  C
  C834     1.0000 0.94657  0.56113  0.01463  Biso   1.000  C
  C835     1.0000 0.89537  0.53843  0.96973  Biso   1.000  C
  C836     1.0000 0.95087  0.56443  0.76893  Biso   1.000  C
  C837     1.0000 0.94487  0.51833  0.71663  Biso   1.000  C
  C838     1.0000 0.87177  0.47513  0.81853  Biso   1.000  C
  C839     1.0000 0.92447  0.41513  0.81423  Biso   1.000  C
  C840     1.0000 0.88117  0.37443  0.88373  Biso   1.000  C
  C841     1.0000 0.95627  0.37013  0.89833  Biso   1.000  C
  C842     1.0000 0.96597  0.37813  0.05733  Biso   1.000  C
  C843     1.0000 0.89357  0.36383  0.11633  Biso   1.000  C
  H721     1.0000 0.87867  0.48433  0.10333  Biso   1.000  H
  C844     1.0000 0.87977  0.50433  0.21683  Biso   1.000  C
  H722     1.0000 0.86457  0.41853  0.97703  Biso   1.000  H
  C845     1.0000 0.84627  0.42613  0.87083  Biso   1.000  C
  H723     1.0000 0.88557  0.42643  0.19503  Biso   1.000  H
  C846     1.0000 0.87537  0.38303  0.21643  Biso   1.000  C
  H724     1.0000 0.91717  0.45773  0.38083  Biso   1.000  H
  C847     1.0000 0.91737  0.41853  0.39413  Biso   1.000  C
  C848     1.0000 0.95607  0.41623  0.31423  Biso   1.000  C
  H725     1.0000 0.98297  0.45473  0.24583  Biso   1.000  H
  H726     1.0000 0.99817  0.50293  0.40613  Biso   1.000  H
  C849     1.0000 0.02437  0.54743  0.44243  Biso   1.000  C
  C850     1.0000 0.01497  0.58113  0.35533  Biso   1.000  C
  H727     1.0000 0.98537  0.55973  0.25683  Biso   1.000  H
  C851     1.0000 0.92807  0.51883  0.40003  Biso   1.000  C
  N100     1.0000 0.89177  0.51233  0.29333  Biso   1.000  N
  H728     1.0000 0.96557  0.56233  0.01083  Biso   1.000  H
  C852     1.0000 0.94287  0.57883  0.07233  Biso   1.000  C
  C853     1.0000 0.89137  0.55553  0.02913  Biso   1.000  C
  H729     1.0000 0.87907  0.52473  0.93423  Biso   1.000  H
  H730     1.0000 0.94837  0.57573  0.81383  Biso   1.000  H
  C854     1.0000 0.96287  0.57813  0.69003  Biso   1.000  C
  C855     1.0000 0.95487  0.53043  0.63873  Biso   1.000  C
  H731     1.0000 0.93927  0.49783  0.72613  Biso   1.000  H
  C856     1.0000 0.87177  0.49763  0.75683  Biso   1.000  C
  N101     1.0000 0.84817  0.44673  0.81453  Biso   1.000  N
  H732     1.0000 0.94517  0.43063  0.81573  Biso   1.000  H
  C857     1.0000 0.90767  0.41133  0.74153  Biso   1.000  C
  C858     1.0000 0.86407  0.37123  0.80993  Biso   1.000  C
  H733     1.0000 0.87197  0.36143  0.93203  Biso   1.000  H
  H734     1.0000 0.94707  0.37203  0.84713  Biso   1.000  H
  C859     1.0000 0.97447  0.35673  0.89933  Biso   1.000  C
  C860     1.0000 0.98277  0.36273  0.05633  Biso   1.000  C
  H735     1.0000 0.96367  0.38653  0.11033  Biso   1.000  H
  C861     1.0000 0.89277  0.33593  0.08233  Biso   1.000  C
  N102     1.0000 0.87827  0.36113  0.18903  Biso   1.000  N
  H736     1.0000 0.86337  0.50723  0.20253  Biso   1.000  H
  H737     1.0000 0.82987  0.40603  0.86663  Biso   1.000  H
  H738     1.0000 0.86387  0.38043  0.26743  Biso   1.000  H
  H739     1.0000 0.90067  0.40963  0.43313  Biso   1.000  H
  C862     1.0000 0.93107  0.40273  0.37033  Biso   1.000  C
  H740     1.0000 0.96617  0.40563  0.29783  Biso   1.000  H
  H741     1.0000 0.03487  0.54413  0.48833  Biso   1.000  H
  C863     1.0000 0.02987  0.57623  0.42363  Biso   1.000  C
  H742     1.0000 0.01837  0.60083  0.34343  Biso   1.000  H
  H743     1.0000 0.91597  0.52563  0.43183  Biso   1.000  H
  H744     1.0000 0.92697  0.50133  0.42973  Biso   1.000  H
  H745     1.0000 0.94907  0.53513  0.39803  Biso   1.000  H
  Ag50     1.0000 0.87024  0.52477  0.39425  Biso   1.000  Ag
  H746     1.0000 0.95927  0.59303  0.10693  Biso   1.000  H
  C864     1.0000 0.91387  0.57573  0.07913  Biso   1.000  C
  H747     1.0000 0.87187  0.55313  0.03573  Biso   1.000  H
  H748     1.0000 0.96947  0.59883  0.68073  Biso   1.000  H
  C865     1.0000 0.96487  0.56043  0.62523  Biso   1.000  C
  H749     1.0000 0.95507  0.51823  0.59243  Biso   1.000  H
  H750     1.0000 0.85357  0.48793  0.72103  Biso   1.000  H
  H751     1.0000 0.87227  0.51433  0.78953  Biso   1.000  H
  H752     1.0000 0.88967  0.50553  0.71933  Biso   1.000  H
  Ag51     1.0000 0.81354  0.43098  0.70702  Biso   1.000  Ag
  H753     1.0000 0.91657  0.42353  0.69163  Biso   1.000  H
  C866     1.0000 0.87687  0.38893  0.74163  Biso   1.000  C
  H754     1.0000 0.84327  0.35633  0.80853  Biso   1.000  H
  H755     1.0000 0.97847  0.35023  0.84563  Biso   1.000  H
  C867     1.0000 0.98587  0.35273  0.96833  Biso   1.000  C
  H756     1.0000 0.99137  0.35933  0.10693  Biso   1.000  H
  H757     1.0000 0.88097  0.31903  0.12203  Biso   1.000  H
  H758     1.0000 0.88327  0.33103  0.02473  Biso   1.000  H
  H759     1.0000 0.91347  0.33953  0.07783  Biso   1.000  H
  H760     1.0000 0.92377  0.38273  0.39143  Biso   1.000  H
  H761     1.0000 0.04407  0.59283  0.45763  Biso   1.000  H
  H762     1.0000 0.91017  0.58773  0.11893  Biso   1.000  H
  H763     1.0000 0.97347  0.56933  0.57063  Biso   1.000  H
  H764     1.0000 0.86497  0.38653  0.69163  Biso   1.000  H
  H765     1.0000 0.99707  0.34263  0.96343  Biso   1.000  H
  Au52     1.0000 0.64988  0.83358  0.45751  Biso   1.000  Au
  Au53     1.0000 0.63415  0.84225  0.27626  Biso   1.000  Au
  Au54     1.0000 0.63640  0.78639  0.32499  Biso   1.000  Au
  Ag52     1.0000 0.59058  0.79839  0.38697  Biso   1.000  Ag
  P52      1.0000 0.62947  0.83046  0.59007  Biso   1.000  P
  P53      1.0000 0.59767  0.85072  0.22247  Biso   1.000  P
  P54      1.0000 0.60125  0.73675  0.31577  Biso   1.000  P
  N103     1.0000 0.58083  0.82327  0.50307  Biso   1.000  N
  N104     1.0000 0.55783  0.79337  0.27017  Biso   1.000  N
  N105     1.0000 0.57193  0.74867  0.43847  Biso   1.000  N
  C868     1.0000 0.61753  0.79417  0.63817  Biso   1.000  C
  C869     1.0000 0.65563  0.86107  0.65837  Biso   1.000  C
  C870     1.0000 0.59443  0.83287  0.57987  Biso   1.000  C
  C871     1.0000 0.59033  0.87457  0.29447  Biso   1.000  C
  C872     1.0000 0.60893  0.86797  0.11697  Biso   1.000  C
  C873     1.0000 0.56113  0.81497  0.21177  Biso   1.000  C
  C874     1.0000 0.57793  0.72947  0.22107  Biso   1.000  C
  C875     1.0000 0.61973  0.71417  0.31467  Biso   1.000  C
  C876     1.0000 0.57523  0.72557  0.40817  Biso   1.000  C
  C877     1.0000 0.55633  0.82517  0.48947  Biso   1.000  C
  C878     1.0000 0.53393  0.76647  0.26787  Biso   1.000  C
  C879     1.0000 0.55533  0.74407  0.50717  Biso   1.000  C
  C880     1.0000 0.59373  0.78047  0.69587  Biso   1.000  C
  C881     1.0000 0.63253  0.77877  0.61617  Biso   1.000  C
  C882     1.0000 0.66953  0.85627  0.72567  Biso   1.000  C
  C883     1.0000 0.66163  0.88997  0.63867  Biso   1.000  C
  C884     1.0000 0.58303  0.84367  0.64497  Biso   1.000  C
  C885     1.0000 0.61323  0.89447  0.34797  Biso   1.000  C
  C886     1.0000 0.56203  0.87177  0.30307  Biso   1.000  C
  C887     1.0000 0.61753  0.89777  0.10227  Biso   1.000  C
  C888     1.0000 0.61153  0.85167  0.04997  Biso   1.000  C
  C889     1.0000 0.53843  0.80847  0.15187  Biso   1.000  C
  C890     1.0000 0.59113  0.74847  0.14757  Biso   1.000  C
  C891     1.0000 0.54783  0.70777  0.21707  Biso   1.000  C
  C892     1.0000 0.62293  0.70347  0.23167  Biso   1.000  C
  C893     1.0000 0.63263  0.71147  0.39067  Biso   1.000  C
  C894     1.0000 0.56023  0.69717  0.44967  Biso   1.000  C
  H766     1.0000 0.54533  0.81767  0.43667  Biso   1.000  H
  C895     1.0000 0.54643  0.83767  0.55017  Biso   1.000  C
  H767     1.0000 0.53123  0.75187  0.31037  Biso   1.000  H
  C896     1.0000 0.51293  0.75947  0.20417  Biso   1.000  C
  H768     1.0000 0.55223  0.75977  0.52837  Biso   1.000  H
  C897     1.0000 0.54203  0.71637  0.54977  Biso   1.000  C
  H769     1.0000 0.58383  0.79107  0.71417  Biso   1.000  H
  C898     1.0000 0.58403  0.75187  0.72747  Biso   1.000  C
  C899     1.0000 0.62273  0.74957  0.64757  Biso   1.000  C
  H770     1.0000 0.64963  0.78807  0.57917  Biso   1.000  H
  H771     1.0000 0.66483  0.83627  0.73947  Biso   1.000  H
  C900     1.0000 0.69103  0.88077  0.77577  Biso   1.000  C
  C901     1.0000 0.68163  0.91447  0.68867  Biso   1.000  C
  H772     1.0000 0.65203  0.89307  0.59017  Biso   1.000  H
  C902     1.0000 0.59473  0.85217  0.73337  Biso   1.000  C
  N106     1.0000 0.55843  0.84567  0.62667  Biso   1.000  N
  H773     1.0000 0.63223  0.89567  0.34417  Biso   1.000  H
  C903     1.0000 0.60953  0.91217  0.40567  Biso   1.000  C
  C904     1.0000 0.55803  0.88887  0.36247  Biso   1.000  C
  H774     1.0000 0.54573  0.85807  0.26757  Biso   1.000  H
  H775     1.0000 0.61503  0.90907  0.14717  Biso   1.000  H
  C905     1.0000 0.62953  0.91147  0.02337  Biso   1.000  C
  C906     1.0000 0.62153  0.86377  0.97207  Biso   1.000  C
  H776     1.0000 0.60593  0.83117  0.05947  Biso   1.000  H
  C907     1.0000 0.53843  0.83097  0.09017  Biso   1.000  C
  N107     1.0000 0.51483  0.78007  0.14787  Biso   1.000  N
  H777     1.0000 0.61183  0.76397  0.14907  Biso   1.000  H
  C908     1.0000 0.57433  0.74467  0.07487  Biso   1.000  C
  C909     1.0000 0.53073  0.70457  0.14327  Biso   1.000  C
  H778     1.0000 0.53863  0.69477  0.26537  Biso   1.000  H
  H779     1.0000 0.61373  0.70537  0.18047  Biso   1.000  H
  C910     1.0000 0.64113  0.69007  0.23267  Biso   1.000  C
  C911     1.0000 0.64943  0.69607  0.38967  Biso   1.000  C
  H780     1.0000 0.63033  0.71987  0.44367  Biso   1.000  H
  C912     1.0000 0.55943  0.66927  0.41567  Biso   1.000  C
  N108     1.0000 0.54493  0.69447  0.52237  Biso   1.000  N
  H781     1.0000 0.53003  0.84057  0.53587  Biso   1.000  H
  H782     1.0000 0.49653  0.73937  0.19997  Biso   1.000  H
  H783     1.0000 0.53053  0.71377  0.60077  Biso   1.000  H
  H784     1.0000 0.56733  0.74297  0.76647  Biso   1.000  H
  C913     1.0000 0.59773  0.73607  0.70367  Biso   1.000  C
  H785     1.0000 0.63283  0.73897  0.63117  Biso   1.000  H
  H786     1.0000 0.70153  0.87747  0.82167  Biso   1.000  H
  C914     1.0000 0.69653  0.90957  0.75697  Biso   1.000  C
  H787     1.0000 0.68503  0.93417  0.67677  Biso   1.000  H
  H788     1.0000 0.58263  0.85897  0.76517  Biso   1.000  H
  H789     1.0000 0.59363  0.83467  0.76307  Biso   1.000  H
  H790     1.0000 0.61573  0.86847  0.73137  Biso   1.000  H
  Ag53     1.0000 0.53690  0.85811  0.72759  Biso   1.000  Ag
  H791     1.0000 0.62593  0.92637  0.44027  Biso   1.000  H
  C915     1.0000 0.58053  0.90907  0.41247  Biso   1.000  C
  H792     1.0000 0.53853  0.88647  0.36907  Biso   1.000  H
  H793     1.0000 0.63613  0.93217  0.01407  Biso   1.000  H
  C916     1.0000 0.63153  0.89377  0.95857  Biso   1.000  C
  H794     1.0000 0.62173  0.85157  0.92577  Biso   1.000  H
  H795     1.0000 0.52023  0.82127  0.05437  Biso   1.000  H
  H796     1.0000 0.53893  0.84767  0.12287  Biso   1.000  H
  H797     1.0000 0.55633  0.83887  0.05267  Biso   1.000  H
  Ag54     1.0000 0.48020  0.76432  0.04036  Biso   1.000  Ag
  H798     1.0000 0.58323  0.75687  0.02497  Biso   1.000  H
  C917     1.0000 0.54353  0.72227  0.07497  Biso   1.000  C
  H799     1.0000 0.50993  0.68967  0.14187  Biso   1.000  H
  H800     1.0000 0.64513  0.68357  0.17897  Biso   1.000  H
  C918     1.0000 0.65253  0.68607  0.30167  Biso   1.000  C
  H801     1.0000 0.65803  0.69267  0.44027  Biso   1.000  H
  H802     1.0000 0.54763  0.65237  0.45537  Biso   1.000  H
  H803     1.0000 0.54993  0.66437  0.35807  Biso   1.000  H
  H804     1.0000 0.58013  0.67287  0.41117  Biso   1.000  H
  H805     1.0000 0.59043  0.71607  0.72477  Biso   1.000  H
  H806     1.0000 0.71073  0.92617  0.79097  Biso   1.000  H
  H807     1.0000 0.57683  0.92107  0.45227  Biso   1.000  H
  H808     1.0000 0.64013  0.90267  0.90397  Biso   1.000  H
  H809     1.0000 0.53163  0.71987  0.02497  Biso   1.000  H
  H810     1.0000 0.66373  0.67597  0.29677  Biso   1.000  H
  C919     1.0000 0.16667  0.83333  0.33333  Biso   1.000  C
  C920     1.0000 0.16667  0.33333  0.33333  Biso   1.000  C
  C921     1.0000 0.66667  0.83333  0.33333  Biso   1.000  C
  C922     1.0000 0.83333  0.16667  0.66667  Biso   1.000  C
  C923     1.0000 0.50000  0.50000  0.00000  Biso   1.000  C
  C924     1.0000 0.83333  0.66667  0.66667  Biso   1.000  C
  C925     1.0000 0.50000  0.00000  0.00000  Biso   1.000  C
  C926     1.0000 0.33333  0.16667  0.66667  Biso   1.000  C
  C927     1.0000 0.00000  0.50000  0.00000  Biso   1.000  C
