data_image0
_cell_length_a       25.5845
_cell_length_b       24.5597
_cell_length_c       19.0518
_cell_angle_alpha    90
_cell_angle_beta     105.291
_cell_angle_gamma    90

_symmetry_space_group_name_H-M    "P 1"
_symmetry_int_tables_number       1

loop_
  _symmetry_equiv_pos_as_xyz
  'x, y, z'

loop_
  _atom_site_label
  _atom_site_occupancy
  _atom_site_fract_x
  _atom_site_fract_y
  _atom_site_fract_z
  _atom_site_thermal_displace_type
  _atom_site_B_iso_or_equiv
  _atom_site_type_symbol
  C1       1.0000 0.19699  0.36695  0.88680  Biso   1.000  C
  C2       1.0000 0.01590  0.40900  0.70700  Biso   1.000  C
  C3       1.0000 0.03798  0.33745  0.78722  Biso   1.000  C
  H1       1.0000 0.02410  0.44590  0.68390  Biso   1.000  H
  H2       1.0000 0.06380  0.31050  0.81300  Biso   1.000  H
  C4       1.0000 0.96311  0.40909  0.71459  Biso   1.000  C
  C5       1.0000 0.98494  0.33753  0.79489  Biso   1.000  C
  H3       1.0000 0.94010  0.44010  0.69860  Biso   1.000  H
  H4       1.0000 0.97600  0.32000  0.83740  Biso   1.000  H
  C6       1.0000 0.14996  0.25182  0.70217  Biso   1.000  C
  C7       1.0000 0.35887  0.42092  0.91794  Biso   1.000  C
  H5       1.0000 0.34630  0.38700  0.93110  Biso   1.000  H
  C8       1.0000 0.15730  0.54806  0.75430  Biso   1.000  C
  C9       1.0000 0.10872  0.37268  0.56500  Biso   1.000  C
  C10      1.0000 0.17112  0.48828  0.76010  Biso   1.000  C
  C11      1.0000 0.25342  0.22810  0.56460  Biso   1.000  C
  H6       1.0000 0.25620  0.21150  0.61050  Biso   1.000  H
  C12      1.0000 0.32424  0.30622  0.76010  Biso   1.000  C
  C13      1.0000 0.37560  0.27300  0.78700  Biso   1.000  C
  C14      1.0000 0.40847  0.44080  0.95930  Biso   1.000  C
  H7       1.0000 0.42940  0.42070  0.99960  Biso   1.000  H
  C15      1.0000 0.48001  0.51350  0.97910  Biso   1.000  C
  H8       1.0000 0.48560  0.55120  0.97300  Biso   1.000  H
  C16      1.0000 0.23384  0.30180  0.48960  Biso   1.000  C
  H9       1.0000 0.22250  0.33850  0.48070  Biso   1.000  H
  C17      1.0000 0.19460  0.35660  0.96500  Biso   1.000  C
  C18      1.0000 0.39375  0.51930  0.88400  Biso   1.000  C
  H10      1.0000 0.40390  0.55450  0.87150  Biso   1.000  H
  C19      1.0000 0.32320  0.46050  0.60190  Biso   1.000  C
  C20      1.0000 0.06980  0.39140  0.49380  Biso   1.000  C
  C21      1.0000 0.34540  0.49651  0.84550  Biso   1.000  C
  H11      1.0000 0.32310  0.51650  0.80620  Biso   1.000  H
  C22      1.0000 0.42360  0.31300  0.80360  Biso   1.000  C
  H12      1.0000 0.42150  0.33610  0.76110  Biso   1.000  H
  H13      1.0000 0.45770  0.29250  0.81510  Biso   1.000  H
  H14      1.0000 0.42220  0.33570  0.84530  Biso   1.000  H
  C23      1.0000 0.18870  0.57770  0.82250  Biso   1.000  C
  H15      1.0000 0.22770  0.57260  0.82860  Biso   1.000  H
  H16      1.0000 0.17870  0.56290  0.86490  Biso   1.000  H
  H17      1.0000 0.18010  0.61660  0.81790  Biso   1.000  H
  C24      1.0000 0.28943  0.42640  0.64220  Biso   1.000  C
  C25      1.0000 0.07680  0.36010  0.42960  Biso   1.000  C
  H18      1.0000 0.05480  0.37670  0.38480  Biso   1.000  H
  H19      1.0000 0.06510  0.32230  0.43270  Biso   1.000  H
  H20      1.0000 0.11500  0.36060  0.42930  Biso   1.000  H
  C26      1.0000 0.33550  0.51640  0.63490  Biso   1.000  C
  H21      1.0000 0.35570  0.51290  0.68610  Biso   1.000  H
  H22      1.0000 0.30150  0.53590  0.63160  Biso   1.000  H
  H23      1.0000 0.35730  0.53670  0.60850  Biso   1.000  H
  C27      1.0000 0.37340  0.24310  0.85230  Biso   1.000  C
  H24      1.0000 0.35040  0.21090  0.83860  Biso   1.000  H
  H25      1.0000 0.35830  0.26670  0.88360  Biso   1.000  H
  H26      1.0000 0.41010  0.23180  0.87870  Biso   1.000  H
  C28      1.0000 0.09740  0.55740  0.74500  Biso   1.000  C
  H27      1.0000 0.08720  0.54330  0.78760  Biso   1.000  H
  H28      1.0000 0.07660  0.53850  0.70130  Biso   1.000  H
  H29      1.0000 0.08960  0.59650  0.74010  Biso   1.000  H
  C29      1.0000 0.15650  0.40370  0.97870  Biso   1.000  C
  H30      1.0000 0.12600  0.40820  0.93550  Biso   1.000  H
  H31      1.0000 0.17710  0.43780  0.98860  Biso   1.000  H
  H32      1.0000 0.14280  0.39440  0.02060  Biso   1.000  H
  C30      1.0000 0.14030  0.19360  0.72770  Biso   1.000  C
  C31      1.0000 0.37580  0.43020  0.60970  Biso   1.000  C
  H33      1.0000 0.39440  0.42620  0.66140  Biso   1.000  H
  H34      1.0000 0.39890  0.45060  0.58530  Biso   1.000  H
  H35      1.0000 0.36820  0.39410  0.58740  Biso   1.000  H
  C32      1.0000 0.24600  0.36420  0.01920  Biso   1.000  C
  H36      1.0000 0.27190  0.33670  0.01220  Biso   1.000  H
  H37      1.0000 0.24050  0.36040  0.06790  Biso   1.000  H
  H38      1.0000 0.26010  0.40060  0.01390  Biso   1.000  H
  C33      1.0000 0.08120  0.18090  0.69950  Biso   1.000  C
  H39      1.0000 0.05980  0.21160  0.70960  Biso   1.000  H
  H40      1.0000 0.07250  0.14820  0.72360  Biso   1.000  H
  H41      1.0000 0.07260  0.17470  0.64690  Biso   1.000  H
  C34      1.0000 0.14360  0.19520  0.80900  Biso   1.000  C
  H42      1.0000 0.10910  0.20840  0.81580  Biso   1.000  H
  H43      1.0000 0.17280  0.21980  0.83360  Biso   1.000  H
  H44      1.0000 0.15090  0.15860  0.82950  Biso   1.000  H
  C35      1.0000 0.29480  0.46500  0.52330  Biso   1.000  C
  H45      1.0000 0.31270  0.49280  0.50080  Biso   1.000  H
  H46      1.0000 0.25700  0.47540  0.51780  Biso   1.000  H
  H47      1.0000 0.29610  0.42990  0.49960  Biso   1.000  H
  C36      1.0000 0.38540  0.23500  0.72750  Biso   1.000  C
  H48      1.0000 0.38330  0.25610  0.68320  Biso   1.000  H
  H49      1.0000 0.35780  0.20640  0.71720  Biso   1.000  H
  H50      1.0000 0.42140  0.21840  0.74430  Biso   1.000  H
  C37      1.0000 0.17660  0.56970  0.69030  Biso   1.000  C
  H51      1.0000 0.21580  0.56420  0.70000  Biso   1.000  H
  H52      1.0000 0.16840  0.60860  0.68400  Biso   1.000  H
  H53      1.0000 0.15810  0.55010  0.64590  Biso   1.000  H
  C38      1.0000 0.08670  0.45090  0.48460  Biso   1.000  C
  H54      1.0000 0.07320  0.47460  0.51740  Biso   1.000  H
  H55      1.0000 0.07130  0.46250  0.43420  Biso   1.000  H
  H56      1.0000 0.12630  0.45330  0.49650  Biso   1.000  H
  C39      1.0000 0.01240  0.38930  0.49930  Biso   1.000  C
  H57      1.0000 0.00950  0.40910  0.54280  Biso   1.000  H
  H58      1.0000 0.00170  0.35120  0.50270  Biso   1.000  H
  H59      1.0000 0.98840  0.40610  0.45600  Biso   1.000  H
  C40      1.0000 0.17440  0.15190  0.70660  Biso   1.000  C
  H60      1.0000 0.21250  0.15880  0.73150  Biso   1.000  H
  H61      1.0000 0.16950  0.15310  0.65380  Biso   1.000  H
  H62      1.0000 0.16400  0.11580  0.72040  Biso   1.000  H
  C41      1.0000 0.16550  0.30760  0.96620  Biso   1.000  C
  H63      1.0000 0.13750  0.30350  0.92010  Biso   1.000  H
  H64      1.0000 0.14850  0.30740  0.00670  Biso   1.000  H
  H65      1.0000 0.19120  0.27740  0.97190  Biso   1.000  H
  N1       1.0000 0.05206  0.37355  0.74158  Biso   1.000  N
  N2       1.0000 0.32843  0.44735  0.86100  Biso   1.000  N
  C42      1.0000 0.42697  0.49120  0.94040  Biso   1.000  C
  N3       1.0000 0.23728  0.27981  0.55450  Biso   1.000  N
  O1       1.0000 0.15401  0.36285  0.83922  Biso   1.000  O
  O2       1.0000 0.13333  0.45380  0.74066  Biso   1.000  O
  O3       1.0000 0.24216  0.38046  0.87697  Biso   1.000  O
  O4       1.0000 0.09524  0.38197  0.62246  Biso   1.000  O
  O5       1.0000 0.22044  0.47616  0.78356  Biso   1.000  O
  O6       1.0000 0.31671  0.34362  0.80090  Biso   1.000  O
  O7       1.0000 0.18340  0.25812  0.66564  Biso   1.000  O
  O8       1.0000 0.12283  0.28851  0.72135  Biso   1.000  O
  O9       1.0000 0.29272  0.29424  0.70037  Biso   1.000  O
  O10      1.0000 0.26206  0.38765  0.60748  Biso   1.000  O
  O11      1.0000 0.20584  0.36854  0.71938  Biso   1.000  O
  O12      1.0000 0.15270  0.35118  0.56212  Biso   1.000  O
  O13      1.0000 0.29485  0.43759  0.70741  Biso   1.000  O
  Fe1      1.0000 0.13459  0.37108  0.72886  Biso   1.000  Fe
  Fe2      1.0000 0.26159  0.40516  0.78471  Biso   1.000  Fe
  Fe3      1.0000 0.21988  0.32734  0.64172  Biso   1.000  Fe
  Co1      1.0000 0.86541  0.37108  0.77114  Biso   1.000  Co
  Co2      1.0000 0.73841  0.40516  0.71529  Biso   1.000  Co
  Co3      1.0000 0.78012  0.32734  0.85828  Biso   1.000  Co
  C43      1.0000 0.69699  0.86695  0.88680  Biso   1.000  C
  C44      1.0000 0.51590  0.90900  0.70700  Biso   1.000  C
  C45      1.0000 0.53798  0.83745  0.78722  Biso   1.000  C
  H66      1.0000 0.52410  0.94590  0.68390  Biso   1.000  H
  H67      1.0000 0.56380  0.81050  0.81300  Biso   1.000  H
  C46      1.0000 0.46311  0.90909  0.71459  Biso   1.000  C
  C47      1.0000 0.48494  0.83753  0.79489  Biso   1.000  C
  H68      1.0000 0.44010  0.94010  0.69860  Biso   1.000  H
  H69      1.0000 0.47600  0.82000  0.83740  Biso   1.000  H
  C48      1.0000 0.64996  0.75182  0.70217  Biso   1.000  C
  C49      1.0000 0.85887  0.92092  0.91794  Biso   1.000  C
  H70      1.0000 0.84630  0.88700  0.93110  Biso   1.000  H
  C50      1.0000 0.65730  0.04806  0.75430  Biso   1.000  C
  C51      1.0000 0.60872  0.87268  0.56500  Biso   1.000  C
  C52      1.0000 0.67112  0.98828  0.76010  Biso   1.000  C
  C53      1.0000 0.75342  0.72810  0.56460  Biso   1.000  C
  H71      1.0000 0.75620  0.71150  0.61050  Biso   1.000  H
  C54      1.0000 0.82424  0.80622  0.76010  Biso   1.000  C
  C55      1.0000 0.87560  0.77300  0.78700  Biso   1.000  C
  C56      1.0000 0.90847  0.94080  0.95930  Biso   1.000  C
  H72      1.0000 0.92940  0.92070  0.99960  Biso   1.000  H
  C57      1.0000 0.98001  0.01350  0.97910  Biso   1.000  C
  H73      1.0000 0.98560  0.05120  0.97300  Biso   1.000  H
  C58      1.0000 0.73384  0.80180  0.48960  Biso   1.000  C
  H74      1.0000 0.72250  0.83850  0.48070  Biso   1.000  H
  C59      1.0000 0.69460  0.85660  0.96500  Biso   1.000  C
  C60      1.0000 0.89375  0.01930  0.88400  Biso   1.000  C
  H75      1.0000 0.90390  0.05450  0.87150  Biso   1.000  H
  C61      1.0000 0.82320  0.96050  0.60190  Biso   1.000  C
  C62      1.0000 0.56980  0.89140  0.49380  Biso   1.000  C
  C63      1.0000 0.84540  0.99651  0.84550  Biso   1.000  C
  H76      1.0000 0.82310  0.01650  0.80620  Biso   1.000  H
  C64      1.0000 0.92360  0.81300  0.80360  Biso   1.000  C
  H77      1.0000 0.92150  0.83610  0.76110  Biso   1.000  H
  H78      1.0000 0.95770  0.79250  0.81510  Biso   1.000  H
  H79      1.0000 0.92220  0.83570  0.84530  Biso   1.000  H
  C65      1.0000 0.68870  0.07770  0.82250  Biso   1.000  C
  H80      1.0000 0.72770  0.07260  0.82860  Biso   1.000  H
  H81      1.0000 0.67870  0.06290  0.86490  Biso   1.000  H
  H82      1.0000 0.68010  0.11660  0.81790  Biso   1.000  H
  C66      1.0000 0.78943  0.92640  0.64220  Biso   1.000  C
  C67      1.0000 0.57680  0.86010  0.42960  Biso   1.000  C
  H83      1.0000 0.55480  0.87670  0.38480  Biso   1.000  H
  H84      1.0000 0.56510  0.82230  0.43270  Biso   1.000  H
  H85      1.0000 0.61500  0.86060  0.42930  Biso   1.000  H
  C68      1.0000 0.83550  0.01640  0.63490  Biso   1.000  C
  H86      1.0000 0.85570  0.01290  0.68610  Biso   1.000  H
  H87      1.0000 0.80150  0.03590  0.63160  Biso   1.000  H
  H88      1.0000 0.85730  0.03670  0.60850  Biso   1.000  H
  C69      1.0000 0.87340  0.74310  0.85230  Biso   1.000  C
  H89      1.0000 0.85040  0.71090  0.83860  Biso   1.000  H
  H90      1.0000 0.85830  0.76670  0.88360  Biso   1.000  H
  H91      1.0000 0.91010  0.73180  0.87870  Biso   1.000  H
  C70      1.0000 0.59740  0.05740  0.74500  Biso   1.000  C
  H92      1.0000 0.58720  0.04330  0.78760  Biso   1.000  H
  H93      1.0000 0.57660  0.03850  0.70130  Biso   1.000  H
  H94      1.0000 0.58960  0.09650  0.74010  Biso   1.000  H
  C71      1.0000 0.65650  0.90370  0.97870  Biso   1.000  C
  H95      1.0000 0.62600  0.90820  0.93550  Biso   1.000  H
  H96      1.0000 0.67710  0.93780  0.98860  Biso   1.000  H
  H97      1.0000 0.64280  0.89440  0.02060  Biso   1.000  H
  C72      1.0000 0.64030  0.69360  0.72770  Biso   1.000  C
  C73      1.0000 0.87580  0.93020  0.60970  Biso   1.000  C
  H98      1.0000 0.89440  0.92620  0.66140  Biso   1.000  H
  H99      1.0000 0.89890  0.95060  0.58530  Biso   1.000  H
  H100     1.0000 0.86820  0.89410  0.58740  Biso   1.000  H
  C74      1.0000 0.74600  0.86420  0.01920  Biso   1.000  C
  H101     1.0000 0.77190  0.83670  0.01220  Biso   1.000  H
  H102     1.0000 0.74050  0.86040  0.06790  Biso   1.000  H
  H103     1.0000 0.76010  0.90060  0.01390  Biso   1.000  H
  C75      1.0000 0.58120  0.68090  0.69950  Biso   1.000  C
  H104     1.0000 0.55980  0.71160  0.70960  Biso   1.000  H
  H105     1.0000 0.57250  0.64820  0.72360  Biso   1.000  H
  H106     1.0000 0.57260  0.67470  0.64690  Biso   1.000  H
  C76      1.0000 0.64360  0.69520  0.80900  Biso   1.000  C
  H107     1.0000 0.60910  0.70840  0.81580  Biso   1.000  H
  H108     1.0000 0.67280  0.71980  0.83360  Biso   1.000  H
  H109     1.0000 0.65090  0.65860  0.82950  Biso   1.000  H
  C77      1.0000 0.79480  0.96500  0.52330  Biso   1.000  C
  H110     1.0000 0.81270  0.99280  0.50080  Biso   1.000  H
  H111     1.0000 0.75700  0.97540  0.51780  Biso   1.000  H
  H112     1.0000 0.79610  0.92990  0.49960  Biso   1.000  H
  C78      1.0000 0.88540  0.73500  0.72750  Biso   1.000  C
  H113     1.0000 0.88330  0.75610  0.68320  Biso   1.000  H
  H114     1.0000 0.85780  0.70640  0.71720  Biso   1.000  H
  H115     1.0000 0.92140  0.71840  0.74430  Biso   1.000  H
  C79      1.0000 0.67660  0.06970  0.69030  Biso   1.000  C
  H116     1.0000 0.71580  0.06420  0.70000  Biso   1.000  H
  H117     1.0000 0.66840  0.10860  0.68400  Biso   1.000  H
  H118     1.0000 0.65810  0.05010  0.64590  Biso   1.000  H
  C80      1.0000 0.58670  0.95090  0.48460  Biso   1.000  C
  H119     1.0000 0.57320  0.97460  0.51740  Biso   1.000  H
  H120     1.0000 0.57130  0.96250  0.43420  Biso   1.000  H
  H121     1.0000 0.62630  0.95330  0.49650  Biso   1.000  H
  C81      1.0000 0.51240  0.88930  0.49930  Biso   1.000  C
  H122     1.0000 0.50950  0.90910  0.54280  Biso   1.000  H
  H123     1.0000 0.50170  0.85120  0.50270  Biso   1.000  H
  H124     1.0000 0.48840  0.90610  0.45600  Biso   1.000  H
  C82      1.0000 0.67440  0.65190  0.70660  Biso   1.000  C
  H125     1.0000 0.71250  0.65880  0.73150  Biso   1.000  H
  H126     1.0000 0.66950  0.65310  0.65380  Biso   1.000  H
  H127     1.0000 0.66400  0.61580  0.72040  Biso   1.000  H
  C83      1.0000 0.66550  0.80760  0.96620  Biso   1.000  C
  H128     1.0000 0.63750  0.80350  0.92010  Biso   1.000  H
  H129     1.0000 0.64850  0.80740  0.00670  Biso   1.000  H
  H130     1.0000 0.69120  0.77740  0.97190  Biso   1.000  H
  N4       1.0000 0.55206  0.87355  0.74158  Biso   1.000  N
  N5       1.0000 0.82843  0.94735  0.86100  Biso   1.000  N
  C84      1.0000 0.92697  0.99120  0.94040  Biso   1.000  C
  N6       1.0000 0.73728  0.77981  0.55450  Biso   1.000  N
  O14      1.0000 0.65401  0.86285  0.83922  Biso   1.000  O
  O15      1.0000 0.63333  0.95380  0.74066  Biso   1.000  O
  O16      1.0000 0.74216  0.88046  0.87697  Biso   1.000  O
  O17      1.0000 0.59524  0.88197  0.62246  Biso   1.000  O
  O18      1.0000 0.72044  0.97616  0.78356  Biso   1.000  O
  O19      1.0000 0.81671  0.84362  0.80090  Biso   1.000  O
  O20      1.0000 0.68340  0.75812  0.66564  Biso   1.000  O
  O21      1.0000 0.62283  0.78851  0.72135  Biso   1.000  O
  O22      1.0000 0.79272  0.79424  0.70037  Biso   1.000  O
  O23      1.0000 0.76206  0.88765  0.60748  Biso   1.000  O
  O24      1.0000 0.70584  0.86854  0.71938  Biso   1.000  O
  O25      1.0000 0.65270  0.85118  0.56212  Biso   1.000  O
  O26      1.0000 0.79485  0.93759  0.70741  Biso   1.000  O
  Fe4      1.0000 0.63459  0.87108  0.72886  Biso   1.000  Fe
  Fe5      1.0000 0.76159  0.90516  0.78471  Biso   1.000  Fe
  Fe6      1.0000 0.71988  0.82734  0.64172  Biso   1.000  Fe
  Co4      1.0000 0.36541  0.87108  0.77114  Biso   1.000  Co
  Co5      1.0000 0.23841  0.90516  0.71529  Biso   1.000  Co
  Co6      1.0000 0.28012  0.82734  0.85828  Biso   1.000  Co
  C85      1.0000 0.80301  0.36695  0.61320  Biso   1.000  C
  C86      1.0000 0.98410  0.40900  0.79300  Biso   1.000  C
  C87      1.0000 0.96202  0.33745  0.71278  Biso   1.000  C
  H131     1.0000 0.97590  0.44590  0.81610  Biso   1.000  H
  H132     1.0000 0.93620  0.31050  0.68700  Biso   1.000  H
  C88      1.0000 0.03689  0.40909  0.78541  Biso   1.000  C
  C89      1.0000 0.01506  0.33753  0.70511  Biso   1.000  C
  H133     1.0000 0.05990  0.44010  0.80140  Biso   1.000  H
  H134     1.0000 0.02400  0.32000  0.66260  Biso   1.000  H
  C90      1.0000 0.85004  0.25182  0.79783  Biso   1.000  C
  C91      1.0000 0.64113  0.42092  0.58206  Biso   1.000  C
  H135     1.0000 0.65370  0.38700  0.56890  Biso   1.000  H
  C92      1.0000 0.84270  0.54806  0.74570  Biso   1.000  C
  C93      1.0000 0.89128  0.37268  0.93500  Biso   1.000  C
  C94      1.0000 0.82888  0.48828  0.73990  Biso   1.000  C
  C95      1.0000 0.74658  0.22810  0.93540  Biso   1.000  C
  H136     1.0000 0.74380  0.21150  0.88950  Biso   1.000  H
  C96      1.0000 0.67576  0.30622  0.73990  Biso   1.000  C
  C97      1.0000 0.62440  0.27300  0.71300  Biso   1.000  C
  C98      1.0000 0.59153  0.44080  0.54070  Biso   1.000  C
  H137     1.0000 0.57060  0.42070  0.50040  Biso   1.000  H
  C99      1.0000 0.51999  0.51350  0.52090  Biso   1.000  C
  H138     1.0000 0.51440  0.55120  0.52700  Biso   1.000  H
  C100     1.0000 0.76616  0.30180  0.01040  Biso   1.000  C
  H139     1.0000 0.77750  0.33850  0.01930  Biso   1.000  H
  C101     1.0000 0.80540  0.35660  0.53500  Biso   1.000  C
  C102     1.0000 0.60625  0.51930  0.61600  Biso   1.000  C
  H140     1.0000 0.59610  0.55450  0.62850  Biso   1.000  H
  C103     1.0000 0.67680  0.46050  0.89810  Biso   1.000  C
  C104     1.0000 0.93020  0.39140  0.00620  Biso   1.000  C
  C105     1.0000 0.65460  0.49651  0.65450  Biso   1.000  C
  H141     1.0000 0.67690  0.51650  0.69380  Biso   1.000  H
  C106     1.0000 0.57640  0.31300  0.69640  Biso   1.000  C
  H142     1.0000 0.57850  0.33610  0.73890  Biso   1.000  H
  H143     1.0000 0.54230  0.29250  0.68490  Biso   1.000  H
  H144     1.0000 0.57780  0.33570  0.65470  Biso   1.000  H
  C107     1.0000 0.81130  0.57770  0.67750  Biso   1.000  C
  H145     1.0000 0.77230  0.57260  0.67140  Biso   1.000  H
  H146     1.0000 0.82130  0.56290  0.63510  Biso   1.000  H
  H147     1.0000 0.81990  0.61660  0.68210  Biso   1.000  H
  C108     1.0000 0.71057  0.42640  0.85780  Biso   1.000  C
  C109     1.0000 0.92320  0.36010  0.07040  Biso   1.000  C
  H148     1.0000 0.94520  0.37670  0.11520  Biso   1.000  H
  H149     1.0000 0.93490  0.32230  0.06730  Biso   1.000  H
  H150     1.0000 0.88500  0.36060  0.07070  Biso   1.000  H
  C110     1.0000 0.66450  0.51640  0.86510  Biso   1.000  C
  H151     1.0000 0.64430  0.51290  0.81390  Biso   1.000  H
  H152     1.0000 0.69850  0.53590  0.86840  Biso   1.000  H
  H153     1.0000 0.64270  0.53670  0.89150  Biso   1.000  H
  C111     1.0000 0.62660  0.24310  0.64770  Biso   1.000  C
  H154     1.0000 0.64960  0.21090  0.66140  Biso   1.000  H
  H155     1.0000 0.64170  0.26670  0.61640  Biso   1.000  H
  H156     1.0000 0.58990  0.23180  0.62130  Biso   1.000  H
  C112     1.0000 0.90260  0.55740  0.75500  Biso   1.000  C
  H157     1.0000 0.91280  0.54330  0.71240  Biso   1.000  H
  H158     1.0000 0.92340  0.53850  0.79870  Biso   1.000  H
  H159     1.0000 0.91040  0.59650  0.75990  Biso   1.000  H
  C113     1.0000 0.84350  0.40370  0.52130  Biso   1.000  C
  H160     1.0000 0.87400  0.40820  0.56450  Biso   1.000  H
  H161     1.0000 0.82290  0.43780  0.51140  Biso   1.000  H
  H162     1.0000 0.85720  0.39440  0.47940  Biso   1.000  H
  C114     1.0000 0.85970  0.19360  0.77230  Biso   1.000  C
  C115     1.0000 0.62420  0.43020  0.89030  Biso   1.000  C
  H163     1.0000 0.60560  0.42620  0.83860  Biso   1.000  H
  H164     1.0000 0.60110  0.45060  0.91470  Biso   1.000  H
  H165     1.0000 0.63180  0.39410  0.91260  Biso   1.000  H
  C116     1.0000 0.75400  0.36420  0.48080  Biso   1.000  C
  H166     1.0000 0.72810  0.33670  0.48780  Biso   1.000  H
  H167     1.0000 0.75950  0.36040  0.43210  Biso   1.000  H
  H168     1.0000 0.73990  0.40060  0.48610  Biso   1.000  H
  C117     1.0000 0.91880  0.18090  0.80050  Biso   1.000  C
  H169     1.0000 0.94020  0.21160  0.79040  Biso   1.000  H
  H170     1.0000 0.92750  0.14820  0.77640  Biso   1.000  H
  H171     1.0000 0.92740  0.17470  0.85310  Biso   1.000  H
  C118     1.0000 0.85640  0.19520  0.69100  Biso   1.000  C
  H172     1.0000 0.89090  0.20840  0.68420  Biso   1.000  H
  H173     1.0000 0.82720  0.21980  0.66640  Biso   1.000  H
  H174     1.0000 0.84910  0.15860  0.67050  Biso   1.000  H
  C119     1.0000 0.70520  0.46500  0.97670  Biso   1.000  C
  H175     1.0000 0.68730  0.49280  0.99920  Biso   1.000  H
  H176     1.0000 0.74300  0.47540  0.98220  Biso   1.000  H
  H177     1.0000 0.70390  0.42990  0.00040  Biso   1.000  H
  C120     1.0000 0.61460  0.23500  0.77250  Biso   1.000  C
  H178     1.0000 0.61670  0.25610  0.81680  Biso   1.000  H
  H179     1.0000 0.64220  0.20640  0.78280  Biso   1.000  H
  H180     1.0000 0.57860  0.21840  0.75570  Biso   1.000  H
  C121     1.0000 0.82340  0.56970  0.80970  Biso   1.000  C
  H181     1.0000 0.78420  0.56420  0.80000  Biso   1.000  H
  H182     1.0000 0.83160  0.60860  0.81600  Biso   1.000  H
  H183     1.0000 0.84190  0.55010  0.85410  Biso   1.000  H
  C122     1.0000 0.91330  0.45090  0.01540  Biso   1.000  C
  H184     1.0000 0.92680  0.47460  0.98260  Biso   1.000  H
  H185     1.0000 0.92870  0.46250  0.06580  Biso   1.000  H
  H186     1.0000 0.87370  0.45330  0.00350  Biso   1.000  H
  C123     1.0000 0.98760  0.38930  0.00070  Biso   1.000  C
  H187     1.0000 0.99050  0.40910  0.95720  Biso   1.000  H
  H188     1.0000 0.99830  0.35120  0.99730  Biso   1.000  H
  H189     1.0000 0.01160  0.40610  0.04400  Biso   1.000  H
  C124     1.0000 0.82560  0.15190  0.79340  Biso   1.000  C
  H190     1.0000 0.78750  0.15880  0.76850  Biso   1.000  H
  H191     1.0000 0.83050  0.15310  0.84620  Biso   1.000  H
  H192     1.0000 0.83600  0.11580  0.77960  Biso   1.000  H
  C125     1.0000 0.83450  0.30760  0.53380  Biso   1.000  C
  H193     1.0000 0.86250  0.30350  0.57990  Biso   1.000  H
  H194     1.0000 0.85150  0.30740  0.49330  Biso   1.000  H
  H195     1.0000 0.80880  0.27740  0.52810  Biso   1.000  H
  N7       1.0000 0.94794  0.37355  0.75842  Biso   1.000  N
  N8       1.0000 0.67157  0.44735  0.63900  Biso   1.000  N
  C126     1.0000 0.57303  0.49120  0.55960  Biso   1.000  C
  N9       1.0000 0.76272  0.27981  0.94550  Biso   1.000  N
  O27      1.0000 0.84599  0.36285  0.66078  Biso   1.000  O
  O28      1.0000 0.86667  0.45380  0.75934  Biso   1.000  O
  O29      1.0000 0.75784  0.38046  0.62303  Biso   1.000  O
  O30      1.0000 0.90476  0.38197  0.87754  Biso   1.000  O
  O31      1.0000 0.77956  0.47616  0.71644  Biso   1.000  O
  O32      1.0000 0.68329  0.34362  0.69910  Biso   1.000  O
  O33      1.0000 0.81660  0.25812  0.83436  Biso   1.000  O
  O34      1.0000 0.87717  0.28851  0.77865  Biso   1.000  O
  O35      1.0000 0.70728  0.29424  0.79963  Biso   1.000  O
  O36      1.0000 0.73794  0.38765  0.89252  Biso   1.000  O
  O37      1.0000 0.79416  0.36854  0.78062  Biso   1.000  O
  O38      1.0000 0.84730  0.35118  0.93788  Biso   1.000  O
  O39      1.0000 0.70515  0.43759  0.79259  Biso   1.000  O
  C127     1.0000 0.30301  0.86695  0.61320  Biso   1.000  C
  C128     1.0000 0.48410  0.90900  0.79300  Biso   1.000  C
  C129     1.0000 0.46202  0.83745  0.71278  Biso   1.000  C
  H196     1.0000 0.47590  0.94590  0.81610  Biso   1.000  H
  H197     1.0000 0.43620  0.81050  0.68700  Biso   1.000  H
  C130     1.0000 0.53689  0.90909  0.78541  Biso   1.000  C
  C131     1.0000 0.51506  0.83753  0.70511  Biso   1.000  C
  H198     1.0000 0.55990  0.94010  0.80140  Biso   1.000  H
  H199     1.0000 0.52400  0.82000  0.66260  Biso   1.000  H
  C132     1.0000 0.35004  0.75182  0.79783  Biso   1.000  C
  C133     1.0000 0.14113  0.92092  0.58206  Biso   1.000  C
  H200     1.0000 0.15370  0.88700  0.56890  Biso   1.000  H
  C134     1.0000 0.34270  0.04806  0.74570  Biso   1.000  C
  C135     1.0000 0.39128  0.87268  0.93500  Biso   1.000  C
  C136     1.0000 0.32888  0.98828  0.73990  Biso   1.000  C
  C137     1.0000 0.24658  0.72810  0.93540  Biso   1.000  C
  H201     1.0000 0.24380  0.71150  0.88950  Biso   1.000  H
  C138     1.0000 0.17576  0.80622  0.73990  Biso   1.000  C
  C139     1.0000 0.12440  0.77300  0.71300  Biso   1.000  C
  C140     1.0000 0.09153  0.94080  0.54070  Biso   1.000  C
  H202     1.0000 0.07060  0.92070  0.50040  Biso   1.000  H
  C141     1.0000 0.01999  0.01350  0.52090  Biso   1.000  C
  H203     1.0000 0.01440  0.05120  0.52700  Biso   1.000  H
  C142     1.0000 0.26616  0.80180  0.01040  Biso   1.000  C
  H204     1.0000 0.27750  0.83850  0.01930  Biso   1.000  H
  C143     1.0000 0.30540  0.85660  0.53500  Biso   1.000  C
  C144     1.0000 0.10625  0.01930  0.61600  Biso   1.000  C
  H205     1.0000 0.09610  0.05450  0.62850  Biso   1.000  H
  C145     1.0000 0.17680  0.96050  0.89810  Biso   1.000  C
  C146     1.0000 0.43020  0.89140  0.00620  Biso   1.000  C
  C147     1.0000 0.15460  0.99651  0.65450  Biso   1.000  C
  H206     1.0000 0.17690  0.01650  0.69380  Biso   1.000  H
  C148     1.0000 0.07640  0.81300  0.69640  Biso   1.000  C
  H207     1.0000 0.07850  0.83610  0.73890  Biso   1.000  H
  H208     1.0000 0.04230  0.79250  0.68490  Biso   1.000  H
  H209     1.0000 0.07780  0.83570  0.65470  Biso   1.000  H
  C149     1.0000 0.31130  0.07770  0.67750  Biso   1.000  C
  H210     1.0000 0.27230  0.07260  0.67140  Biso   1.000  H
  H211     1.0000 0.32130  0.06290  0.63510  Biso   1.000  H
  H212     1.0000 0.31990  0.11660  0.68210  Biso   1.000  H
  C150     1.0000 0.21057  0.92640  0.85780  Biso   1.000  C
  C151     1.0000 0.42320  0.86010  0.07040  Biso   1.000  C
  H213     1.0000 0.44520  0.87670  0.11520  Biso   1.000  H
  H214     1.0000 0.43490  0.82230  0.06730  Biso   1.000  H
  H215     1.0000 0.38500  0.86060  0.07070  Biso   1.000  H
  C152     1.0000 0.16450  0.01640  0.86510  Biso   1.000  C
  H216     1.0000 0.14430  0.01290  0.81390  Biso   1.000  H
  H217     1.0000 0.19850  0.03590  0.86840  Biso   1.000  H
  H218     1.0000 0.14270  0.03670  0.89150  Biso   1.000  H
  C153     1.0000 0.12660  0.74310  0.64770  Biso   1.000  C
  H219     1.0000 0.14960  0.71090  0.66140  Biso   1.000  H
  H220     1.0000 0.14170  0.76670  0.61640  Biso   1.000  H
  H221     1.0000 0.08990  0.73180  0.62130  Biso   1.000  H
  C154     1.0000 0.40260  0.05740  0.75500  Biso   1.000  C
  H222     1.0000 0.41280  0.04330  0.71240  Biso   1.000  H
  H223     1.0000 0.42340  0.03850  0.79870  Biso   1.000  H
  H224     1.0000 0.41040  0.09650  0.75990  Biso   1.000  H
  C155     1.0000 0.34350  0.90370  0.52130  Biso   1.000  C
  H225     1.0000 0.37400  0.90820  0.56450  Biso   1.000  H
  H226     1.0000 0.32290  0.93780  0.51140  Biso   1.000  H
  H227     1.0000 0.35720  0.89440  0.47940  Biso   1.000  H
  C156     1.0000 0.35970  0.69360  0.77230  Biso   1.000  C
  C157     1.0000 0.12420  0.93020  0.89030  Biso   1.000  C
  H228     1.0000 0.10560  0.92620  0.83860  Biso   1.000  H
  H229     1.0000 0.10110  0.95060  0.91470  Biso   1.000  H
  H230     1.0000 0.13180  0.89410  0.91260  Biso   1.000  H
  C158     1.0000 0.25400  0.86420  0.48080  Biso   1.000  C
  H231     1.0000 0.22810  0.83670  0.48780  Biso   1.000  H
  H232     1.0000 0.25950  0.86040  0.43210  Biso   1.000  H
  H233     1.0000 0.23990  0.90060  0.48610  Biso   1.000  H
  C159     1.0000 0.41880  0.68090  0.80050  Biso   1.000  C
  H234     1.0000 0.44020  0.71160  0.79040  Biso   1.000  H
  H235     1.0000 0.42750  0.64820  0.77640  Biso   1.000  H
  H236     1.0000 0.42740  0.67470  0.85310  Biso   1.000  H
  C160     1.0000 0.35640  0.69520  0.69100  Biso   1.000  C
  H237     1.0000 0.39090  0.70840  0.68420  Biso   1.000  H
  H238     1.0000 0.32720  0.71980  0.66640  Biso   1.000  H
  H239     1.0000 0.34910  0.65860  0.67050  Biso   1.000  H
  C161     1.0000 0.20520  0.96500  0.97670  Biso   1.000  C
  H240     1.0000 0.18730  0.99280  0.99920  Biso   1.000  H
  H241     1.0000 0.24300  0.97540  0.98220  Biso   1.000  H
  H242     1.0000 0.20390  0.92990  0.00040  Biso   1.000  H
  C162     1.0000 0.11460  0.73500  0.77250  Biso   1.000  C
  H243     1.0000 0.11670  0.75610  0.81680  Biso   1.000  H
  H244     1.0000 0.14220  0.70640  0.78280  Biso   1.000  H
  H245     1.0000 0.07860  0.71840  0.75570  Biso   1.000  H
  C163     1.0000 0.32340  0.06970  0.80970  Biso   1.000  C
  H246     1.0000 0.28420  0.06420  0.80000  Biso   1.000  H
  H247     1.0000 0.33160  0.10860  0.81600  Biso   1.000  H
  H248     1.0000 0.34190  0.05010  0.85410  Biso   1.000  H
  C164     1.0000 0.41330  0.95090  0.01540  Biso   1.000  C
  H249     1.0000 0.42680  0.97460  0.98260  Biso   1.000  H
  H250     1.0000 0.42870  0.96250  0.06580  Biso   1.000  H
  H251     1.0000 0.37370  0.95330  0.00350  Biso   1.000  H
  C165     1.0000 0.48760  0.88930  0.00070  Biso   1.000  C
  H252     1.0000 0.49050  0.90910  0.95720  Biso   1.000  H
  H253     1.0000 0.49830  0.85120  0.99730  Biso   1.000  H
  H254     1.0000 0.51160  0.90610  0.04400  Biso   1.000  H
  C166     1.0000 0.32560  0.65190  0.79340  Biso   1.000  C
  H255     1.0000 0.28750  0.65880  0.76850  Biso   1.000  H
  H256     1.0000 0.33050  0.65310  0.84620  Biso   1.000  H
  H257     1.0000 0.33600  0.61580  0.77960  Biso   1.000  H
  C167     1.0000 0.33450  0.80760  0.53380  Biso   1.000  C
  H258     1.0000 0.36250  0.80350  0.57990  Biso   1.000  H
  H259     1.0000 0.35150  0.80740  0.49330  Biso   1.000  H
  H260     1.0000 0.30880  0.77740  0.52810  Biso   1.000  H
  N10      1.0000 0.44794  0.87355  0.75842  Biso   1.000  N
  N11      1.0000 0.17157  0.94735  0.63900  Biso   1.000  N
  C168     1.0000 0.07303  0.99120  0.55960  Biso   1.000  C
  N12      1.0000 0.26272  0.77981  0.94550  Biso   1.000  N
  O40      1.0000 0.34599  0.86285  0.66078  Biso   1.000  O
  O41      1.0000 0.36667  0.95380  0.75934  Biso   1.000  O
  O42      1.0000 0.25784  0.88046  0.62303  Biso   1.000  O
  O43      1.0000 0.40476  0.88197  0.87754  Biso   1.000  O
  O44      1.0000 0.27956  0.97616  0.71644  Biso   1.000  O
  O45      1.0000 0.18329  0.84362  0.69910  Biso   1.000  O
  O46      1.0000 0.31660  0.75812  0.83436  Biso   1.000  O
  O47      1.0000 0.37717  0.78851  0.77865  Biso   1.000  O
  O48      1.0000 0.20728  0.79424  0.79963  Biso   1.000  O
  O49      1.0000 0.23794  0.88765  0.89252  Biso   1.000  O
  O50      1.0000 0.29416  0.86854  0.78062  Biso   1.000  O
  O51      1.0000 0.34730  0.85118  0.93788  Biso   1.000  O
  O52      1.0000 0.20515  0.93759  0.79259  Biso   1.000  O
  C169     1.0000 0.80301  0.63305  0.11320  Biso   1.000  C
  C170     1.0000 0.98410  0.59100  0.29300  Biso   1.000  C
  C171     1.0000 0.96202  0.66255  0.21278  Biso   1.000  C
  H261     1.0000 0.97590  0.55410  0.31610  Biso   1.000  H
  H262     1.0000 0.93620  0.68950  0.18700  Biso   1.000  H
  C172     1.0000 0.03689  0.59091  0.28541  Biso   1.000  C
  C173     1.0000 0.01506  0.66247  0.20511  Biso   1.000  C
  H263     1.0000 0.05990  0.55990  0.30140  Biso   1.000  H
  H264     1.0000 0.02400  0.68000  0.16260  Biso   1.000  H
  C174     1.0000 0.85004  0.74818  0.29783  Biso   1.000  C
  C175     1.0000 0.64113  0.57908  0.08206  Biso   1.000  C
  H265     1.0000 0.65370  0.61300  0.06890  Biso   1.000  H
  C176     1.0000 0.84270  0.45194  0.24570  Biso   1.000  C
  C177     1.0000 0.89128  0.62732  0.43500  Biso   1.000  C
  C178     1.0000 0.82888  0.51172  0.23990  Biso   1.000  C
  C179     1.0000 0.74658  0.77190  0.43540  Biso   1.000  C
  H266     1.0000 0.74380  0.78850  0.38950  Biso   1.000  H
  C180     1.0000 0.67576  0.69378  0.23990  Biso   1.000  C
  C181     1.0000 0.62440  0.72700  0.21300  Biso   1.000  C
  C182     1.0000 0.59153  0.55920  0.04070  Biso   1.000  C
  H267     1.0000 0.57060  0.57930  0.00040  Biso   1.000  H
  C183     1.0000 0.51999  0.48650  0.02090  Biso   1.000  C
  H268     1.0000 0.51440  0.44880  0.02700  Biso   1.000  H
  C184     1.0000 0.76616  0.69820  0.51040  Biso   1.000  C
  H269     1.0000 0.77750  0.66150  0.51930  Biso   1.000  H
  C185     1.0000 0.80540  0.64340  0.03500  Biso   1.000  C
  C186     1.0000 0.60625  0.48070  0.11600  Biso   1.000  C
  H270     1.0000 0.59610  0.44550  0.12850  Biso   1.000  H
  C187     1.0000 0.67680  0.53950  0.39810  Biso   1.000  C
  C188     1.0000 0.93020  0.60860  0.50620  Biso   1.000  C
  C189     1.0000 0.65460  0.50349  0.15450  Biso   1.000  C
  H271     1.0000 0.67690  0.48350  0.19380  Biso   1.000  H
  C190     1.0000 0.57640  0.68700  0.19640  Biso   1.000  C
  H272     1.0000 0.57850  0.66390  0.23890  Biso   1.000  H
  H273     1.0000 0.54230  0.70750  0.18490  Biso   1.000  H
  H274     1.0000 0.57780  0.66430  0.15470  Biso   1.000  H
  C191     1.0000 0.81130  0.42230  0.17750  Biso   1.000  C
  H275     1.0000 0.77230  0.42740  0.17140  Biso   1.000  H
  H276     1.0000 0.82130  0.43710  0.13510  Biso   1.000  H
  H277     1.0000 0.81990  0.38340  0.18210  Biso   1.000  H
  C192     1.0000 0.71057  0.57360  0.35780  Biso   1.000  C
  C193     1.0000 0.92320  0.63990  0.57040  Biso   1.000  C
  H278     1.0000 0.94520  0.62330  0.61520  Biso   1.000  H
  H279     1.0000 0.93490  0.67770  0.56730  Biso   1.000  H
  H280     1.0000 0.88500  0.63940  0.57070  Biso   1.000  H
  C194     1.0000 0.66450  0.48360  0.36510  Biso   1.000  C
  H281     1.0000 0.64430  0.48710  0.31390  Biso   1.000  H
  H282     1.0000 0.69850  0.46410  0.36840  Biso   1.000  H
  H283     1.0000 0.64270  0.46330  0.39150  Biso   1.000  H
  C195     1.0000 0.62660  0.75690  0.14770  Biso   1.000  C
  H284     1.0000 0.64960  0.78910  0.16140  Biso   1.000  H
  H285     1.0000 0.64170  0.73330  0.11640  Biso   1.000  H
  H286     1.0000 0.58990  0.76820  0.12130  Biso   1.000  H
  C196     1.0000 0.90260  0.44260  0.25500  Biso   1.000  C
  H287     1.0000 0.91280  0.45670  0.21240  Biso   1.000  H
  H288     1.0000 0.92340  0.46150  0.29870  Biso   1.000  H
  H289     1.0000 0.91040  0.40350  0.25990  Biso   1.000  H
  C197     1.0000 0.84350  0.59630  0.02130  Biso   1.000  C
  H290     1.0000 0.87400  0.59180  0.06450  Biso   1.000  H
  H291     1.0000 0.82290  0.56220  0.01140  Biso   1.000  H
  H292     1.0000 0.85720  0.60560  0.97940  Biso   1.000  H
  C198     1.0000 0.85970  0.80640  0.27230  Biso   1.000  C
  C199     1.0000 0.62420  0.56980  0.39030  Biso   1.000  C
  H293     1.0000 0.60560  0.57380  0.33860  Biso   1.000  H
  H294     1.0000 0.60110  0.54940  0.41470  Biso   1.000  H
  H295     1.0000 0.63180  0.60590  0.41260  Biso   1.000  H
  C200     1.0000 0.75400  0.63580  0.98080  Biso   1.000  C
  H296     1.0000 0.72810  0.66330  0.98780  Biso   1.000  H
  H297     1.0000 0.75950  0.63960  0.93210  Biso   1.000  H
  H298     1.0000 0.73990  0.59940  0.98610  Biso   1.000  H
  C201     1.0000 0.91880  0.81910  0.30050  Biso   1.000  C
  H299     1.0000 0.94020  0.78840  0.29040  Biso   1.000  H
  H300     1.0000 0.92750  0.85180  0.27640  Biso   1.000  H
  H301     1.0000 0.92740  0.82530  0.35310  Biso   1.000  H
  C202     1.0000 0.85640  0.80480  0.19100  Biso   1.000  C
  H302     1.0000 0.89090  0.79160  0.18420  Biso   1.000  H
  H303     1.0000 0.82720  0.78020  0.16640  Biso   1.000  H
  H304     1.0000 0.84910  0.84140  0.17050  Biso   1.000  H
  C203     1.0000 0.70520  0.53500  0.47670  Biso   1.000  C
  H305     1.0000 0.68730  0.50720  0.49920  Biso   1.000  H
  H306     1.0000 0.74300  0.52460  0.48220  Biso   1.000  H
  H307     1.0000 0.70390  0.57010  0.50040  Biso   1.000  H
  C204     1.0000 0.61460  0.76500  0.27250  Biso   1.000  C
  H308     1.0000 0.61670  0.74390  0.31680  Biso   1.000  H
  H309     1.0000 0.64220  0.79360  0.28280  Biso   1.000  H
  H310     1.0000 0.57860  0.78160  0.25570  Biso   1.000  H
  C205     1.0000 0.82340  0.43030  0.30970  Biso   1.000  C
  H311     1.0000 0.78420  0.43580  0.30000  Biso   1.000  H
  H312     1.0000 0.83160  0.39140  0.31600  Biso   1.000  H
  H313     1.0000 0.84190  0.44990  0.35410  Biso   1.000  H
  C206     1.0000 0.91330  0.54910  0.51540  Biso   1.000  C
  H314     1.0000 0.92680  0.52540  0.48260  Biso   1.000  H
  H315     1.0000 0.92870  0.53750  0.56580  Biso   1.000  H
  H316     1.0000 0.87370  0.54670  0.50350  Biso   1.000  H
  C207     1.0000 0.98760  0.61070  0.50070  Biso   1.000  C
  H317     1.0000 0.99050  0.59090  0.45720  Biso   1.000  H
  H318     1.0000 0.99830  0.64880  0.49730  Biso   1.000  H
  H319     1.0000 0.01160  0.59390  0.54400  Biso   1.000  H
  C208     1.0000 0.82560  0.84810  0.29340  Biso   1.000  C
  H320     1.0000 0.78750  0.84120  0.26850  Biso   1.000  H
  H321     1.0000 0.83050  0.84690  0.34620  Biso   1.000  H
  H322     1.0000 0.83600  0.88420  0.27960  Biso   1.000  H
  C209     1.0000 0.83450  0.69240  0.03380  Biso   1.000  C
  H323     1.0000 0.86250  0.69650  0.07990  Biso   1.000  H
  H324     1.0000 0.85150  0.69260  0.99330  Biso   1.000  H
  H325     1.0000 0.80880  0.72260  0.02810  Biso   1.000  H
  N13      1.0000 0.94794  0.62645  0.25842  Biso   1.000  N
  N14      1.0000 0.67157  0.55265  0.13900  Biso   1.000  N
  C210     1.0000 0.57303  0.50880  0.05960  Biso   1.000  C
  N15      1.0000 0.76272  0.72019  0.44550  Biso   1.000  N
  O53      1.0000 0.84599  0.63715  0.16078  Biso   1.000  O
  O54      1.0000 0.86667  0.54620  0.25934  Biso   1.000  O
  O55      1.0000 0.75784  0.61954  0.12303  Biso   1.000  O
  O56      1.0000 0.90476  0.61803  0.37754  Biso   1.000  O
  O57      1.0000 0.77956  0.52384  0.21644  Biso   1.000  O
  O58      1.0000 0.68329  0.65638  0.19910  Biso   1.000  O
  O59      1.0000 0.81660  0.74188  0.33436  Biso   1.000  O
  O60      1.0000 0.87717  0.71149  0.27865  Biso   1.000  O
  O61      1.0000 0.70728  0.70576  0.29963  Biso   1.000  O
  O62      1.0000 0.73794  0.61235  0.39252  Biso   1.000  O
  O63      1.0000 0.79416  0.63146  0.28062  Biso   1.000  O
  O64      1.0000 0.84730  0.64882  0.43788  Biso   1.000  O
  O65      1.0000 0.70515  0.56241  0.29259  Biso   1.000  O
  Fe7      1.0000 0.86541  0.62892  0.27114  Biso   1.000  Fe
  Fe8      1.0000 0.73841  0.59484  0.21529  Biso   1.000  Fe
  Fe9      1.0000 0.78012  0.67266  0.35828  Biso   1.000  Fe
  Co7      1.0000 0.13459  0.62892  0.22886  Biso   1.000  Co
  Co8      1.0000 0.26159  0.59484  0.28471  Biso   1.000  Co
  Co9      1.0000 0.21988  0.67266  0.14172  Biso   1.000  Co
  C211     1.0000 0.30301  0.13305  0.11320  Biso   1.000  C
  C212     1.0000 0.48410  0.09100  0.29300  Biso   1.000  C
  C213     1.0000 0.46202  0.16255  0.21278  Biso   1.000  C
  H326     1.0000 0.47590  0.05410  0.31610  Biso   1.000  H
  H327     1.0000 0.43620  0.18950  0.18700  Biso   1.000  H
  C214     1.0000 0.53689  0.09091  0.28541  Biso   1.000  C
  C215     1.0000 0.51506  0.16247  0.20511  Biso   1.000  C
  H328     1.0000 0.55990  0.05990  0.30140  Biso   1.000  H
  H329     1.0000 0.52400  0.18000  0.16260  Biso   1.000  H
  C216     1.0000 0.35004  0.24818  0.29783  Biso   1.000  C
  C217     1.0000 0.14113  0.07908  0.08206  Biso   1.000  C
  H330     1.0000 0.15370  0.11300  0.06890  Biso   1.000  H
  C218     1.0000 0.34270  0.95194  0.24570  Biso   1.000  C
  C219     1.0000 0.39128  0.12732  0.43500  Biso   1.000  C
  C220     1.0000 0.32888  0.01172  0.23990  Biso   1.000  C
  C221     1.0000 0.24658  0.27190  0.43540  Biso   1.000  C
  H331     1.0000 0.24380  0.28850  0.38950  Biso   1.000  H
  C222     1.0000 0.17576  0.19378  0.23990  Biso   1.000  C
  C223     1.0000 0.12440  0.22700  0.21300  Biso   1.000  C
  C224     1.0000 0.09153  0.05920  0.04070  Biso   1.000  C
  H332     1.0000 0.07060  0.07930  0.00040  Biso   1.000  H
  C225     1.0000 0.01999  0.98650  0.02090  Biso   1.000  C
  H333     1.0000 0.01440  0.94880  0.02700  Biso   1.000  H
  C226     1.0000 0.26616  0.19820  0.51040  Biso   1.000  C
  H334     1.0000 0.27750  0.16150  0.51930  Biso   1.000  H
  C227     1.0000 0.30540  0.14340  0.03500  Biso   1.000  C
  C228     1.0000 0.10625  0.98070  0.11600  Biso   1.000  C
  H335     1.0000 0.09610  0.94550  0.12850  Biso   1.000  H
  C229     1.0000 0.17680  0.03950  0.39810  Biso   1.000  C
  C230     1.0000 0.43020  0.10860  0.50620  Biso   1.000  C
  C231     1.0000 0.15460  0.00349  0.15450  Biso   1.000  C
  H336     1.0000 0.17690  0.98350  0.19380  Biso   1.000  H
  C232     1.0000 0.07640  0.18700  0.19640  Biso   1.000  C
  H337     1.0000 0.07850  0.16390  0.23890  Biso   1.000  H
  H338     1.0000 0.04230  0.20750  0.18490  Biso   1.000  H
  H339     1.0000 0.07780  0.16430  0.15470  Biso   1.000  H
  C233     1.0000 0.31130  0.92230  0.17750  Biso   1.000  C
  H340     1.0000 0.27230  0.92740  0.17140  Biso   1.000  H
  H341     1.0000 0.32130  0.93710  0.13510  Biso   1.000  H
  H342     1.0000 0.31990  0.88340  0.18210  Biso   1.000  H
  C234     1.0000 0.21057  0.07360  0.35780  Biso   1.000  C
  C235     1.0000 0.42320  0.13990  0.57040  Biso   1.000  C
  H343     1.0000 0.44520  0.12330  0.61520  Biso   1.000  H
  H344     1.0000 0.43490  0.17770  0.56730  Biso   1.000  H
  H345     1.0000 0.38500  0.13940  0.57070  Biso   1.000  H
  C236     1.0000 0.16450  0.98360  0.36510  Biso   1.000  C
  H346     1.0000 0.14430  0.98710  0.31390  Biso   1.000  H
  H347     1.0000 0.19850  0.96410  0.36840  Biso   1.000  H
  H348     1.0000 0.14270  0.96330  0.39150  Biso   1.000  H
  C237     1.0000 0.12660  0.25690  0.14770  Biso   1.000  C
  H349     1.0000 0.14960  0.28910  0.16140  Biso   1.000  H
  H350     1.0000 0.14170  0.23330  0.11640  Biso   1.000  H
  H351     1.0000 0.08990  0.26820  0.12130  Biso   1.000  H
  C238     1.0000 0.40260  0.94260  0.25500  Biso   1.000  C
  H352     1.0000 0.41280  0.95670  0.21240  Biso   1.000  H
  H353     1.0000 0.42340  0.96150  0.29870  Biso   1.000  H
  H354     1.0000 0.41040  0.90350  0.25990  Biso   1.000  H
  C239     1.0000 0.34350  0.09630  0.02130  Biso   1.000  C
  H355     1.0000 0.37400  0.09180  0.06450  Biso   1.000  H
  H356     1.0000 0.32290  0.06220  0.01140  Biso   1.000  H
  H357     1.0000 0.35720  0.10560  0.97940  Biso   1.000  H
  C240     1.0000 0.35970  0.30640  0.27230  Biso   1.000  C
  C241     1.0000 0.12420  0.06980  0.39030  Biso   1.000  C
  H358     1.0000 0.10560  0.07380  0.33860  Biso   1.000  H
  H359     1.0000 0.10110  0.04940  0.41470  Biso   1.000  H
  H360     1.0000 0.13180  0.10590  0.41260  Biso   1.000  H
  C242     1.0000 0.25400  0.13580  0.98080  Biso   1.000  C
  H361     1.0000 0.22810  0.16330  0.98780  Biso   1.000  H
  H362     1.0000 0.25950  0.13960  0.93210  Biso   1.000  H
  H363     1.0000 0.23990  0.09940  0.98610  Biso   1.000  H
  C243     1.0000 0.41880  0.31910  0.30050  Biso   1.000  C
  H364     1.0000 0.44020  0.28840  0.29040  Biso   1.000  H
  H365     1.0000 0.42750  0.35180  0.27640  Biso   1.000  H
  H366     1.0000 0.42740  0.32530  0.35310  Biso   1.000  H
  C244     1.0000 0.35640  0.30480  0.19100  Biso   1.000  C
  H367     1.0000 0.39090  0.29160  0.18420  Biso   1.000  H
  H368     1.0000 0.32720  0.28020  0.16640  Biso   1.000  H
  H369     1.0000 0.34910  0.34140  0.17050  Biso   1.000  H
  C245     1.0000 0.20520  0.03500  0.47670  Biso   1.000  C
  H370     1.0000 0.18730  0.00720  0.49920  Biso   1.000  H
  H371     1.0000 0.24300  0.02460  0.48220  Biso   1.000  H
  H372     1.0000 0.20390  0.07010  0.50040  Biso   1.000  H
  C246     1.0000 0.11460  0.26500  0.27250  Biso   1.000  C
  H373     1.0000 0.11670  0.24390  0.31680  Biso   1.000  H
  H374     1.0000 0.14220  0.29360  0.28280  Biso   1.000  H
  H375     1.0000 0.07860  0.28160  0.25570  Biso   1.000  H
  C247     1.0000 0.32340  0.93030  0.30970  Biso   1.000  C
  H376     1.0000 0.28420  0.93580  0.30000  Biso   1.000  H
  H377     1.0000 0.33160  0.89140  0.31600  Biso   1.000  H
  H378     1.0000 0.34190  0.94990  0.35410  Biso   1.000  H
  C248     1.0000 0.41330  0.04910  0.51540  Biso   1.000  C
  H379     1.0000 0.42680  0.02540  0.48260  Biso   1.000  H
  H380     1.0000 0.42870  0.03750  0.56580  Biso   1.000  H
  H381     1.0000 0.37370  0.04670  0.50350  Biso   1.000  H
  C249     1.0000 0.48760  0.11070  0.50070  Biso   1.000  C
  H382     1.0000 0.49050  0.09090  0.45720  Biso   1.000  H
  H383     1.0000 0.49830  0.14880  0.49730  Biso   1.000  H
  H384     1.0000 0.51160  0.09390  0.54400  Biso   1.000  H
  C250     1.0000 0.32560  0.34810  0.29340  Biso   1.000  C
  H385     1.0000 0.28750  0.34120  0.26850  Biso   1.000  H
  H386     1.0000 0.33050  0.34690  0.34620  Biso   1.000  H
  H387     1.0000 0.33600  0.38420  0.27960  Biso   1.000  H
  C251     1.0000 0.33450  0.19240  0.03380  Biso   1.000  C
  H388     1.0000 0.36250  0.19650  0.07990  Biso   1.000  H
  H389     1.0000 0.35150  0.19260  0.99330  Biso   1.000  H
  H390     1.0000 0.30880  0.22260  0.02810  Biso   1.000  H
  N16      1.0000 0.44794  0.12645  0.25842  Biso   1.000  N
  N17      1.0000 0.17157  0.05265  0.13900  Biso   1.000  N
  C252     1.0000 0.07303  0.00880  0.05960  Biso   1.000  C
  N18      1.0000 0.26272  0.22019  0.44550  Biso   1.000  N
  O66      1.0000 0.34599  0.13715  0.16078  Biso   1.000  O
  O67      1.0000 0.36667  0.04620  0.25934  Biso   1.000  O
  O68      1.0000 0.25784  0.11954  0.12303  Biso   1.000  O
  O69      1.0000 0.40476  0.11803  0.37754  Biso   1.000  O
  O70      1.0000 0.27956  0.02384  0.21644  Biso   1.000  O
  O71      1.0000 0.18329  0.15638  0.19910  Biso   1.000  O
  O72      1.0000 0.31660  0.24188  0.33436  Biso   1.000  O
  O73      1.0000 0.37717  0.21149  0.27865  Biso   1.000  O
  O74      1.0000 0.20728  0.20576  0.29963  Biso   1.000  O
  O75      1.0000 0.23794  0.11235  0.39252  Biso   1.000  O
  O76      1.0000 0.29416  0.13146  0.28062  Biso   1.000  O
  O77      1.0000 0.34730  0.14882  0.43788  Biso   1.000  O
  O78      1.0000 0.20515  0.06241  0.29259  Biso   1.000  O
  Fe10     1.0000 0.36541  0.12892  0.27114  Biso   1.000  Fe
  Fe11     1.0000 0.23841  0.09484  0.21529  Biso   1.000  Fe
  Fe12     1.0000 0.28012  0.17266  0.35828  Biso   1.000  Fe
  Co10     1.0000 0.63459  0.12892  0.22886  Biso   1.000  Co
  Co11     1.0000 0.76159  0.09484  0.28471  Biso   1.000  Co
  Co12     1.0000 0.71988  0.17266  0.14172  Biso   1.000  Co
  C253     1.0000 0.19699  0.63305  0.38680  Biso   1.000  C
  C254     1.0000 0.01590  0.59100  0.20700  Biso   1.000  C
  C255     1.0000 0.03798  0.66255  0.28722  Biso   1.000  C
  H391     1.0000 0.02410  0.55410  0.18390  Biso   1.000  H
  H392     1.0000 0.06380  0.68950  0.31300  Biso   1.000  H
  C256     1.0000 0.96311  0.59091  0.21459  Biso   1.000  C
  C257     1.0000 0.98494  0.66247  0.29489  Biso   1.000  C
  H393     1.0000 0.94010  0.55990  0.19860  Biso   1.000  H
  H394     1.0000 0.97600  0.68000  0.33740  Biso   1.000  H
  C258     1.0000 0.14996  0.74818  0.20217  Biso   1.000  C
  C259     1.0000 0.35887  0.57908  0.41794  Biso   1.000  C
  H395     1.0000 0.34630  0.61300  0.43110  Biso   1.000  H
  C260     1.0000 0.15730  0.45194  0.25430  Biso   1.000  C
  C261     1.0000 0.10872  0.62732  0.06500  Biso   1.000  C
  C262     1.0000 0.17112  0.51172  0.26010  Biso   1.000  C
  C263     1.0000 0.25342  0.77190  0.06460  Biso   1.000  C
  H396     1.0000 0.25620  0.78850  0.11050  Biso   1.000  H
  C264     1.0000 0.32424  0.69378  0.26010  Biso   1.000  C
  C265     1.0000 0.37560  0.72700  0.28700  Biso   1.000  C
  C266     1.0000 0.40847  0.55920  0.45930  Biso   1.000  C
  H397     1.0000 0.42940  0.57930  0.49960  Biso   1.000  H
  C267     1.0000 0.48001  0.48650  0.47910  Biso   1.000  C
  H398     1.0000 0.48560  0.44880  0.47300  Biso   1.000  H
  C268     1.0000 0.23384  0.69820  0.98960  Biso   1.000  C
  H399     1.0000 0.22250  0.66150  0.98070  Biso   1.000  H
  C269     1.0000 0.19460  0.64340  0.46500  Biso   1.000  C
  C270     1.0000 0.39375  0.48070  0.38400  Biso   1.000  C
  H400     1.0000 0.40390  0.44550  0.37150  Biso   1.000  H
  C271     1.0000 0.32320  0.53950  0.10190  Biso   1.000  C
  C272     1.0000 0.06980  0.60860  0.99380  Biso   1.000  C
  C273     1.0000 0.34540  0.50349  0.34550  Biso   1.000  C
  H401     1.0000 0.32310  0.48350  0.30620  Biso   1.000  H
  C274     1.0000 0.42360  0.68700  0.30360  Biso   1.000  C
  H402     1.0000 0.42150  0.66390  0.26110  Biso   1.000  H
  H403     1.0000 0.45770  0.70750  0.31510  Biso   1.000  H
  H404     1.0000 0.42220  0.66430  0.34530  Biso   1.000  H
  C275     1.0000 0.18870  0.42230  0.32250  Biso   1.000  C
  H405     1.0000 0.22770  0.42740  0.32860  Biso   1.000  H
  H406     1.0000 0.17870  0.43710  0.36490  Biso   1.000  H
  H407     1.0000 0.18010  0.38340  0.31790  Biso   1.000  H
  C276     1.0000 0.28943  0.57360  0.14220  Biso   1.000  C
  C277     1.0000 0.07680  0.63990  0.92960  Biso   1.000  C
  H408     1.0000 0.05480  0.62330  0.88480  Biso   1.000  H
  H409     1.0000 0.06510  0.67770  0.93270  Biso   1.000  H
  H410     1.0000 0.11500  0.63940  0.92930  Biso   1.000  H
  C278     1.0000 0.33550  0.48360  0.13490  Biso   1.000  C
  H411     1.0000 0.35570  0.48710  0.18610  Biso   1.000  H
  H412     1.0000 0.30150  0.46410  0.13160  Biso   1.000  H
  H413     1.0000 0.35730  0.46330  0.10850  Biso   1.000  H
  C279     1.0000 0.37340  0.75690  0.35230  Biso   1.000  C
  H414     1.0000 0.35040  0.78910  0.33860  Biso   1.000  H
  H415     1.0000 0.35830  0.73330  0.38360  Biso   1.000  H
  H416     1.0000 0.41010  0.76820  0.37870  Biso   1.000  H
  C280     1.0000 0.09740  0.44260  0.24500  Biso   1.000  C
  H417     1.0000 0.08720  0.45670  0.28760  Biso   1.000  H
  H418     1.0000 0.07660  0.46150  0.20130  Biso   1.000  H
  H419     1.0000 0.08960  0.40350  0.24010  Biso   1.000  H
  C281     1.0000 0.15650  0.59630  0.47870  Biso   1.000  C
  H420     1.0000 0.12600  0.59180  0.43550  Biso   1.000  H
  H421     1.0000 0.17710  0.56220  0.48860  Biso   1.000  H
  H422     1.0000 0.14280  0.60560  0.52060  Biso   1.000  H
  C282     1.0000 0.14030  0.80640  0.22770  Biso   1.000  C
  C283     1.0000 0.37580  0.56980  0.10970  Biso   1.000  C
  H423     1.0000 0.39440  0.57380  0.16140  Biso   1.000  H
  H424     1.0000 0.39890  0.54940  0.08530  Biso   1.000  H
  H425     1.0000 0.36820  0.60590  0.08740  Biso   1.000  H
  C284     1.0000 0.24600  0.63580  0.51920  Biso   1.000  C
  H426     1.0000 0.27190  0.66330  0.51220  Biso   1.000  H
  H427     1.0000 0.24050  0.63960  0.56790  Biso   1.000  H
  H428     1.0000 0.26010  0.59940  0.51390  Biso   1.000  H
  C285     1.0000 0.08120  0.81910  0.19950  Biso   1.000  C
  H429     1.0000 0.05980  0.78840  0.20960  Biso   1.000  H
  H430     1.0000 0.07250  0.85180  0.22360  Biso   1.000  H
  H431     1.0000 0.07260  0.82530  0.14690  Biso   1.000  H
  C286     1.0000 0.14360  0.80480  0.30900  Biso   1.000  C
  H432     1.0000 0.10910  0.79160  0.31580  Biso   1.000  H
  H433     1.0000 0.17280  0.78020  0.33360  Biso   1.000  H
  H434     1.0000 0.15090  0.84140  0.32950  Biso   1.000  H
  C287     1.0000 0.29480  0.53500  0.02330  Biso   1.000  C
  H435     1.0000 0.31270  0.50720  0.00080  Biso   1.000  H
  H436     1.0000 0.25700  0.52460  0.01780  Biso   1.000  H
  H437     1.0000 0.29610  0.57010  0.99960  Biso   1.000  H
  C288     1.0000 0.38540  0.76500  0.22750  Biso   1.000  C
  H438     1.0000 0.38330  0.74390  0.18320  Biso   1.000  H
  H439     1.0000 0.35780  0.79360  0.21720  Biso   1.000  H
  H440     1.0000 0.42140  0.78160  0.24430  Biso   1.000  H
  C289     1.0000 0.17660  0.43030  0.19030  Biso   1.000  C
  H441     1.0000 0.21580  0.43580  0.20000  Biso   1.000  H
  H442     1.0000 0.16840  0.39140  0.18400  Biso   1.000  H
  H443     1.0000 0.15810  0.44990  0.14590  Biso   1.000  H
  C290     1.0000 0.08670  0.54910  0.98460  Biso   1.000  C
  H444     1.0000 0.07320  0.52540  0.01740  Biso   1.000  H
  H445     1.0000 0.07130  0.53750  0.93420  Biso   1.000  H
  H446     1.0000 0.12630  0.54670  0.99650  Biso   1.000  H
  C291     1.0000 0.01240  0.61070  0.99930  Biso   1.000  C
  H447     1.0000 0.00950  0.59090  0.04280  Biso   1.000  H
  H448     1.0000 0.00170  0.64880  0.00270  Biso   1.000  H
  H449     1.0000 0.98840  0.59390  0.95600  Biso   1.000  H
  C292     1.0000 0.17440  0.84810  0.20660  Biso   1.000  C
  H450     1.0000 0.21250  0.84120  0.23150  Biso   1.000  H
  H451     1.0000 0.16950  0.84690  0.15380  Biso   1.000  H
  H452     1.0000 0.16400  0.88420  0.22040  Biso   1.000  H
  C293     1.0000 0.16550  0.69240  0.46620  Biso   1.000  C
  H453     1.0000 0.13750  0.69650  0.42010  Biso   1.000  H
  H454     1.0000 0.14850  0.69260  0.50670  Biso   1.000  H
  H455     1.0000 0.19120  0.72260  0.47190  Biso   1.000  H
  N19      1.0000 0.05206  0.62645  0.24158  Biso   1.000  N
  N20      1.0000 0.32843  0.55265  0.36100  Biso   1.000  N
  C294     1.0000 0.42697  0.50880  0.44040  Biso   1.000  C
  N21      1.0000 0.23728  0.72019  0.05450  Biso   1.000  N
  O79      1.0000 0.15401  0.63715  0.33922  Biso   1.000  O
  O80      1.0000 0.13333  0.54620  0.24066  Biso   1.000  O
  O81      1.0000 0.24216  0.61954  0.37697  Biso   1.000  O
  O82      1.0000 0.09524  0.61803  0.12246  Biso   1.000  O
  O83      1.0000 0.22044  0.52384  0.28356  Biso   1.000  O
  O84      1.0000 0.31671  0.65638  0.30090  Biso   1.000  O
  O85      1.0000 0.18340  0.74188  0.16564  Biso   1.000  O
  O86      1.0000 0.12283  0.71149  0.22135  Biso   1.000  O
  O87      1.0000 0.29272  0.70576  0.20037  Biso   1.000  O
  O88      1.0000 0.26206  0.61235  0.10748  Biso   1.000  O
  O89      1.0000 0.20584  0.63146  0.21938  Biso   1.000  O
  O90      1.0000 0.15270  0.64882  0.06212  Biso   1.000  O
  O91      1.0000 0.29485  0.56241  0.20741  Biso   1.000  O
  C295     1.0000 0.69699  0.13305  0.38680  Biso   1.000  C
  C296     1.0000 0.51590  0.09100  0.20700  Biso   1.000  C
  C297     1.0000 0.53798  0.16255  0.28722  Biso   1.000  C
  H456     1.0000 0.52410  0.05410  0.18390  Biso   1.000  H
  H457     1.0000 0.56380  0.18950  0.31300  Biso   1.000  H
  C298     1.0000 0.46311  0.09091  0.21459  Biso   1.000  C
  C299     1.0000 0.48494  0.16247  0.29489  Biso   1.000  C
  H458     1.0000 0.44010  0.05990  0.19860  Biso   1.000  H
  H459     1.0000 0.47600  0.18000  0.33740  Biso   1.000  H
  C300     1.0000 0.64996  0.24818  0.20217  Biso   1.000  C
  C301     1.0000 0.85887  0.07908  0.41794  Biso   1.000  C
  H460     1.0000 0.84630  0.11300  0.43110  Biso   1.000  H
  C302     1.0000 0.65730  0.95194  0.25430  Biso   1.000  C
  C303     1.0000 0.60872  0.12732  0.06500  Biso   1.000  C
  C304     1.0000 0.67112  0.01172  0.26010  Biso   1.000  C
  C305     1.0000 0.75342  0.27190  0.06460  Biso   1.000  C
  H461     1.0000 0.75620  0.28850  0.11050  Biso   1.000  H
  C306     1.0000 0.82424  0.19378  0.26010  Biso   1.000  C
  C307     1.0000 0.87560  0.22700  0.28700  Biso   1.000  C
  C308     1.0000 0.90847  0.05920  0.45930  Biso   1.000  C
  H462     1.0000 0.92940  0.07930  0.49960  Biso   1.000  H
  C309     1.0000 0.98001  0.98650  0.47910  Biso   1.000  C
  H463     1.0000 0.98560  0.94880  0.47300  Biso   1.000  H
  C310     1.0000 0.73384  0.19820  0.98960  Biso   1.000  C
  H464     1.0000 0.72250  0.16150  0.98070  Biso   1.000  H
  C311     1.0000 0.69460  0.14340  0.46500  Biso   1.000  C
  C312     1.0000 0.89375  0.98070  0.38400  Biso   1.000  C
  H465     1.0000 0.90390  0.94550  0.37150  Biso   1.000  H
  C313     1.0000 0.82320  0.03950  0.10190  Biso   1.000  C
  C314     1.0000 0.56980  0.10860  0.99380  Biso   1.000  C
  C315     1.0000 0.84540  0.00349  0.34550  Biso   1.000  C
  H466     1.0000 0.82310  0.98350  0.30620  Biso   1.000  H
  C316     1.0000 0.92360  0.18700  0.30360  Biso   1.000  C
  H467     1.0000 0.92150  0.16390  0.26110  Biso   1.000  H
  H468     1.0000 0.95770  0.20750  0.31510  Biso   1.000  H
  H469     1.0000 0.92220  0.16430  0.34530  Biso   1.000  H
  C317     1.0000 0.68870  0.92230  0.32250  Biso   1.000  C
  H470     1.0000 0.72770  0.92740  0.32860  Biso   1.000  H
  H471     1.0000 0.67870  0.93710  0.36490  Biso   1.000  H
  H472     1.0000 0.68010  0.88340  0.31790  Biso   1.000  H
  C318     1.0000 0.78943  0.07360  0.14220  Biso   1.000  C
  C319     1.0000 0.57680  0.13990  0.92960  Biso   1.000  C
  H473     1.0000 0.55480  0.12330  0.88480  Biso   1.000  H
  H474     1.0000 0.56510  0.17770  0.93270  Biso   1.000  H
  H475     1.0000 0.61500  0.13940  0.92930  Biso   1.000  H
  C320     1.0000 0.83550  0.98360  0.13490  Biso   1.000  C
  H476     1.0000 0.85570  0.98710  0.18610  Biso   1.000  H
  H477     1.0000 0.80150  0.96410  0.13160  Biso   1.000  H
  H478     1.0000 0.85730  0.96330  0.10850  Biso   1.000  H
  C321     1.0000 0.87340  0.25690  0.35230  Biso   1.000  C
  H479     1.0000 0.85040  0.28910  0.33860  Biso   1.000  H
  H480     1.0000 0.85830  0.23330  0.38360  Biso   1.000  H
  H481     1.0000 0.91010  0.26820  0.37870  Biso   1.000  H
  C322     1.0000 0.59740  0.94260  0.24500  Biso   1.000  C
  H482     1.0000 0.58720  0.95670  0.28760  Biso   1.000  H
  H483     1.0000 0.57660  0.96150  0.20130  Biso   1.000  H
  H484     1.0000 0.58960  0.90350  0.24010  Biso   1.000  H
  C323     1.0000 0.65650  0.09630  0.47870  Biso   1.000  C
  H485     1.0000 0.62600  0.09180  0.43550  Biso   1.000  H
  H486     1.0000 0.67710  0.06220  0.48860  Biso   1.000  H
  H487     1.0000 0.64280  0.10560  0.52060  Biso   1.000  H
  C324     1.0000 0.64030  0.30640  0.22770  Biso   1.000  C
  C325     1.0000 0.87580  0.06980  0.10970  Biso   1.000  C
  H488     1.0000 0.89440  0.07380  0.16140  Biso   1.000  H
  H489     1.0000 0.89890  0.04940  0.08530  Biso   1.000  H
  H490     1.0000 0.86820  0.10590  0.08740  Biso   1.000  H
  C326     1.0000 0.74600  0.13580  0.51920  Biso   1.000  C
  H491     1.0000 0.77190  0.16330  0.51220  Biso   1.000  H
  H492     1.0000 0.74050  0.13960  0.56790  Biso   1.000  H
  H493     1.0000 0.76010  0.09940  0.51390  Biso   1.000  H
  C327     1.0000 0.58120  0.31910  0.19950  Biso   1.000  C
  H494     1.0000 0.55980  0.28840  0.20960  Biso   1.000  H
  H495     1.0000 0.57250  0.35180  0.22360  Biso   1.000  H
  H496     1.0000 0.57260  0.32530  0.14690  Biso   1.000  H
  C328     1.0000 0.64360  0.30480  0.30900  Biso   1.000  C
  H497     1.0000 0.60910  0.29160  0.31580  Biso   1.000  H
  H498     1.0000 0.67280  0.28020  0.33360  Biso   1.000  H
  H499     1.0000 0.65090  0.34140  0.32950  Biso   1.000  H
  C329     1.0000 0.79480  0.03500  0.02330  Biso   1.000  C
  H500     1.0000 0.81270  0.00720  0.00080  Biso   1.000  H
  H501     1.0000 0.75700  0.02460  0.01780  Biso   1.000  H
  H502     1.0000 0.79610  0.07010  0.99960  Biso   1.000  H
  C330     1.0000 0.88540  0.26500  0.22750  Biso   1.000  C
  H503     1.0000 0.88330  0.24390  0.18320  Biso   1.000  H
  H504     1.0000 0.85780  0.29360  0.21720  Biso   1.000  H
  H505     1.0000 0.92140  0.28160  0.24430  Biso   1.000  H
  C331     1.0000 0.67660  0.93030  0.19030  Biso   1.000  C
  H506     1.0000 0.71580  0.93580  0.20000  Biso   1.000  H
  H507     1.0000 0.66840  0.89140  0.18400  Biso   1.000  H
  H508     1.0000 0.65810  0.94990  0.14590  Biso   1.000  H
  C332     1.0000 0.58670  0.04910  0.98460  Biso   1.000  C
  H509     1.0000 0.57320  0.02540  0.01740  Biso   1.000  H
  H510     1.0000 0.57130  0.03750  0.93420  Biso   1.000  H
  H511     1.0000 0.62630  0.04670  0.99650  Biso   1.000  H
  C333     1.0000 0.51240  0.11070  0.99930  Biso   1.000  C
  H512     1.0000 0.50950  0.09090  0.04280  Biso   1.000  H
  H513     1.0000 0.50170  0.14880  0.00270  Biso   1.000  H
  H514     1.0000 0.48840  0.09390  0.95600  Biso   1.000  H
  C334     1.0000 0.67440  0.34810  0.20660  Biso   1.000  C
  H515     1.0000 0.71250  0.34120  0.23150  Biso   1.000  H
  H516     1.0000 0.66950  0.34690  0.15380  Biso   1.000  H
  H517     1.0000 0.66400  0.38420  0.22040  Biso   1.000  H
  C335     1.0000 0.66550  0.19240  0.46620  Biso   1.000  C
  H518     1.0000 0.63750  0.19650  0.42010  Biso   1.000  H
  H519     1.0000 0.64850  0.19260  0.50670  Biso   1.000  H
  H520     1.0000 0.69120  0.22260  0.47190  Biso   1.000  H
  N22      1.0000 0.55206  0.12645  0.24158  Biso   1.000  N
  N23      1.0000 0.82843  0.05265  0.36100  Biso   1.000  N
  C336     1.0000 0.92697  0.00880  0.44040  Biso   1.000  C
  N24      1.0000 0.73728  0.22019  0.05450  Biso   1.000  N
  O92      1.0000 0.65401  0.13715  0.33922  Biso   1.000  O
  O93      1.0000 0.63333  0.04620  0.24066  Biso   1.000  O
  O94      1.0000 0.74216  0.11954  0.37697  Biso   1.000  O
  O95      1.0000 0.59524  0.11803  0.12246  Biso   1.000  O
  O96      1.0000 0.72044  0.02384  0.28356  Biso   1.000  O
  O97      1.0000 0.81671  0.15638  0.30090  Biso   1.000  O
  O98      1.0000 0.68340  0.24188  0.16564  Biso   1.000  O
  O99      1.0000 0.62283  0.21149  0.22135  Biso   1.000  O
  O100     1.0000 0.79272  0.20576  0.20037  Biso   1.000  O
  O101     1.0000 0.76206  0.11235  0.10748  Biso   1.000  O
  O102     1.0000 0.70584  0.13146  0.21938  Biso   1.000  O
  O103     1.0000 0.65270  0.14882  0.06212  Biso   1.000  O
  O104     1.0000 0.79485  0.06241  0.20741  Biso   1.000  O
