data_image0
_cell_length_a       45.611
_cell_length_b       45.611
_cell_length_c       45.611
_cell_angle_alpha    90
_cell_angle_beta     90
_cell_angle_gamma    90

_symmetry_space_group_name_H-M    "P 1"
_symmetry_int_tables_number       1

loop_
  _symmetry_equiv_pos_as_xyz
  'x, y, z'

loop_
  _atom_site_label
  _atom_site_occupancy
  _atom_site_fract_x
  _atom_site_fract_y
  _atom_site_fract_z
  _atom_site_thermal_displace_type
  _atom_site_B_iso_or_equiv
  _atom_site_type_symbol
  H1       1.0000 0.18600  0.62640  0.08890  Biso   1.000  H
  H2       1.0000 0.18960  0.59760  0.03560  Biso   1.000  H
  H3       1.0000 0.28300  0.52950  0.00460  Biso   1.000  H
  H4       1.0000 0.32940  0.51510  0.04000  Biso   1.000  H
  C1       1.0000 0.30570  0.58170  0.04480  Biso   1.000  C
  H5       1.0000 0.31520  0.58890  0.02660  Biso   1.000  H
  H6       1.0000 0.30680  0.59750  0.05960  Biso   1.000  H
  N1       1.0000 0.39391  0.52385  0.08458  Biso   1.000  N
  C2       1.0000 0.27300  0.57420  0.03840  Biso   1.000  C
  H7       1.0000 0.26020  0.58610  0.05120  Biso   1.000  H
  H8       1.0000 0.26830  0.57910  0.01780  Biso   1.000  H
  C3       1.0000 0.35680  0.59470  0.13140  Biso   1.000  C
  H9       1.0000 0.36660  0.57690  0.13900  Biso   1.000  H
  H10      1.0000 0.33630  0.58940  0.12650  Biso   1.000  H
  H11      1.0000 0.41340  0.59620  0.12100  Biso   1.000  H
  C4       1.0000 0.37720  0.51460  0.10990  Biso   1.000  C
  H12      1.0000 0.35650  0.51140  0.10420  Biso   1.000  H
  H13      1.0000 0.37780  0.53010  0.12500  Biso   1.000  H
  C5       1.0000 0.39380  0.49950  0.06240  Biso   1.000  C
  H14      1.0000 0.40510  0.50550  0.04490  Biso   1.000  H
  H15      1.0000 0.37340  0.49530  0.05620  Biso   1.000  H
  C6       1.0000 0.42450  0.52800  0.09260  Biso   1.000  C
  H16      1.0000 0.42600  0.54440  0.10680  Biso   1.000  H
  H17      1.0000 0.43590  0.53340  0.07490  Biso   1.000  H
  H18      1.0000 0.18600  0.12640  0.58890  Biso   1.000  H
  H19      1.0000 0.18960  0.09760  0.53560  Biso   1.000  H
  H20      1.0000 0.28300  0.02950  0.50460  Biso   1.000  H
  H21      1.0000 0.32940  0.01510  0.54000  Biso   1.000  H
  C7       1.0000 0.30570  0.08170  0.54480  Biso   1.000  C
  H22      1.0000 0.31520  0.08890  0.52660  Biso   1.000  H
  H23      1.0000 0.30680  0.09750  0.55960  Biso   1.000  H
  N2       1.0000 0.39391  0.02385  0.58458  Biso   1.000  N
  C8       1.0000 0.27300  0.07420  0.53840  Biso   1.000  C
  H24      1.0000 0.26020  0.08610  0.55120  Biso   1.000  H
  H25      1.0000 0.26830  0.07910  0.51780  Biso   1.000  H
  C9       1.0000 0.35680  0.09470  0.63140  Biso   1.000  C
  H26      1.0000 0.36660  0.07690  0.63900  Biso   1.000  H
  H27      1.0000 0.33630  0.08940  0.62650  Biso   1.000  H
  H28      1.0000 0.41340  0.09620  0.62100  Biso   1.000  H
  C10      1.0000 0.37720  0.01460  0.60990  Biso   1.000  C
  H29      1.0000 0.35650  0.01140  0.60420  Biso   1.000  H
  H30      1.0000 0.37780  0.03010  0.62500  Biso   1.000  H
  C11      1.0000 0.39380  0.99950  0.56240  Biso   1.000  C
  H31      1.0000 0.40510  0.00550  0.54490  Biso   1.000  H
  H32      1.0000 0.37340  0.99530  0.55620  Biso   1.000  H
  C12      1.0000 0.42450  0.02800  0.59260  Biso   1.000  C
  H33      1.0000 0.42600  0.04440  0.60680  Biso   1.000  H
  H34      1.0000 0.43590  0.03340  0.57490  Biso   1.000  H
  H35      1.0000 0.68600  0.62640  0.58890  Biso   1.000  H
  H36      1.0000 0.68960  0.59760  0.53560  Biso   1.000  H
  H37      1.0000 0.78300  0.52950  0.50460  Biso   1.000  H
  H38      1.0000 0.82940  0.51510  0.54000  Biso   1.000  H
  C13      1.0000 0.80570  0.58170  0.54480  Biso   1.000  C
  H39      1.0000 0.81520  0.58890  0.52660  Biso   1.000  H
  H40      1.0000 0.80680  0.59750  0.55960  Biso   1.000  H
  N3       1.0000 0.89391  0.52385  0.58458  Biso   1.000  N
  C14      1.0000 0.77300  0.57420  0.53840  Biso   1.000  C
  H41      1.0000 0.76020  0.58610  0.55120  Biso   1.000  H
  H42      1.0000 0.76830  0.57910  0.51780  Biso   1.000  H
  C15      1.0000 0.85680  0.59470  0.63140  Biso   1.000  C
  H43      1.0000 0.86660  0.57690  0.63900  Biso   1.000  H
  H44      1.0000 0.83630  0.58940  0.62650  Biso   1.000  H
  H45      1.0000 0.91340  0.59620  0.62100  Biso   1.000  H
  C16      1.0000 0.87720  0.51460  0.60990  Biso   1.000  C
  H46      1.0000 0.85650  0.51140  0.60420  Biso   1.000  H
  H47      1.0000 0.87780  0.53010  0.62500  Biso   1.000  H
  C17      1.0000 0.89380  0.49950  0.56240  Biso   1.000  C
  H48      1.0000 0.90510  0.50550  0.54490  Biso   1.000  H
  H49      1.0000 0.87340  0.49530  0.55620  Biso   1.000  H
  C18      1.0000 0.92450  0.52800  0.59260  Biso   1.000  C
  H50      1.0000 0.92600  0.54440  0.60680  Biso   1.000  H
  H51      1.0000 0.93590  0.53340  0.57490  Biso   1.000  H
  H52      1.0000 0.68600  0.12640  0.08890  Biso   1.000  H
  H53      1.0000 0.68960  0.09760  0.03560  Biso   1.000  H
  H54      1.0000 0.78300  0.02950  0.00460  Biso   1.000  H
  H55      1.0000 0.82940  0.01510  0.04000  Biso   1.000  H
  C19      1.0000 0.80570  0.08170  0.04480  Biso   1.000  C
  H56      1.0000 0.81520  0.08890  0.02660  Biso   1.000  H
  H57      1.0000 0.80680  0.09750  0.05960  Biso   1.000  H
  N4       1.0000 0.89391  0.02385  0.08458  Biso   1.000  N
  C20      1.0000 0.77300  0.07420  0.03840  Biso   1.000  C
  H58      1.0000 0.76020  0.08610  0.05120  Biso   1.000  H
  H59      1.0000 0.76830  0.07910  0.01780  Biso   1.000  H
  C21      1.0000 0.85680  0.09470  0.13140  Biso   1.000  C
  H60      1.0000 0.86660  0.07690  0.13900  Biso   1.000  H
  H61      1.0000 0.83630  0.08940  0.12650  Biso   1.000  H
  H62      1.0000 0.91340  0.09620  0.12100  Biso   1.000  H
  C22      1.0000 0.87720  0.01460  0.10990  Biso   1.000  C
  H63      1.0000 0.85650  0.01140  0.10420  Biso   1.000  H
  H64      1.0000 0.87780  0.03010  0.12500  Biso   1.000  H
  C23      1.0000 0.89380  0.99950  0.06240  Biso   1.000  C
  H65      1.0000 0.90510  0.00550  0.04490  Biso   1.000  H
  H66      1.0000 0.87340  0.99530  0.05620  Biso   1.000  H
  C24      1.0000 0.92450  0.02800  0.09260  Biso   1.000  C
  H67      1.0000 0.92600  0.04440  0.10680  Biso   1.000  H
  H68      1.0000 0.93590  0.03340  0.07490  Biso   1.000  H
  H69      1.0000 0.56400  0.62360  0.58890  Biso   1.000  H
  H70      1.0000 0.56040  0.65240  0.53560  Biso   1.000  H
  H71      1.0000 0.46700  0.72050  0.50460  Biso   1.000  H
  H72      1.0000 0.42060  0.73490  0.54000  Biso   1.000  H
  C25      1.0000 0.44430  0.66830  0.54480  Biso   1.000  C
  H73      1.0000 0.43480  0.66110  0.52660  Biso   1.000  H
  H74      1.0000 0.44320  0.65250  0.55960  Biso   1.000  H
  N5       1.0000 0.35609  0.72615  0.58458  Biso   1.000  N
  C26      1.0000 0.47700  0.67580  0.53840  Biso   1.000  C
  H75      1.0000 0.48980  0.66390  0.55120  Biso   1.000  H
  H76      1.0000 0.48170  0.67090  0.51780  Biso   1.000  H
  C27      1.0000 0.39320  0.65530  0.63140  Biso   1.000  C
  H77      1.0000 0.38340  0.67310  0.63900  Biso   1.000  H
  H78      1.0000 0.41370  0.66060  0.62650  Biso   1.000  H
  H79      1.0000 0.33660  0.65380  0.62100  Biso   1.000  H
  C28      1.0000 0.37280  0.73540  0.60990  Biso   1.000  C
  H80      1.0000 0.39350  0.73860  0.60420  Biso   1.000  H
  H81      1.0000 0.37220  0.71990  0.62500  Biso   1.000  H
  C29      1.0000 0.35620  0.75050  0.56240  Biso   1.000  C
  H82      1.0000 0.34490  0.74450  0.54490  Biso   1.000  H
  H83      1.0000 0.37660  0.75470  0.55620  Biso   1.000  H
  C30      1.0000 0.32550  0.72200  0.59260  Biso   1.000  C
  H84      1.0000 0.32400  0.70560  0.60680  Biso   1.000  H
  H85      1.0000 0.31410  0.71660  0.57490  Biso   1.000  H
  H86      1.0000 0.56400  0.12360  0.08890  Biso   1.000  H
  H87      1.0000 0.56040  0.15240  0.03560  Biso   1.000  H
  H88      1.0000 0.46700  0.22050  0.00460  Biso   1.000  H
  H89      1.0000 0.42060  0.23490  0.04000  Biso   1.000  H
  C31      1.0000 0.44430  0.16830  0.04480  Biso   1.000  C
  H90      1.0000 0.43480  0.16110  0.02660  Biso   1.000  H
  H91      1.0000 0.44320  0.15250  0.05960  Biso   1.000  H
  N6       1.0000 0.35609  0.22615  0.08458  Biso   1.000  N
  C32      1.0000 0.47700  0.17580  0.03840  Biso   1.000  C
  H92      1.0000 0.48980  0.16390  0.05120  Biso   1.000  H
  H93      1.0000 0.48170  0.17090  0.01780  Biso   1.000  H
  C33      1.0000 0.39320  0.15530  0.13140  Biso   1.000  C
  H94      1.0000 0.38340  0.17310  0.13900  Biso   1.000  H
  H95      1.0000 0.41370  0.16060  0.12650  Biso   1.000  H
  H96      1.0000 0.33660  0.15380  0.12100  Biso   1.000  H
  C34      1.0000 0.37280  0.23540  0.10990  Biso   1.000  C
  H97      1.0000 0.39350  0.23860  0.10420  Biso   1.000  H
  H98      1.0000 0.37220  0.21990  0.12500  Biso   1.000  H
  C35      1.0000 0.35620  0.25050  0.06240  Biso   1.000  C
  H99      1.0000 0.34490  0.24450  0.04490  Biso   1.000  H
  H100     1.0000 0.37660  0.25470  0.05620  Biso   1.000  H
  C36      1.0000 0.32550  0.22200  0.09260  Biso   1.000  C
  H101     1.0000 0.32400  0.20560  0.10680  Biso   1.000  H
  H102     1.0000 0.31410  0.21660  0.07490  Biso   1.000  H
  H103     1.0000 0.06400  0.62360  0.08890  Biso   1.000  H
  H104     1.0000 0.06040  0.65240  0.03560  Biso   1.000  H
  H105     1.0000 0.96700  0.72050  0.00460  Biso   1.000  H
  H106     1.0000 0.92060  0.73490  0.04000  Biso   1.000  H
  C37      1.0000 0.94430  0.66830  0.04480  Biso   1.000  C
  H107     1.0000 0.93480  0.66110  0.02660  Biso   1.000  H
  H108     1.0000 0.94320  0.65250  0.05960  Biso   1.000  H
  N7       1.0000 0.85609  0.72615  0.08458  Biso   1.000  N
  C38      1.0000 0.97700  0.67580  0.03840  Biso   1.000  C
  H109     1.0000 0.98980  0.66390  0.05120  Biso   1.000  H
  H110     1.0000 0.98170  0.67090  0.01780  Biso   1.000  H
  C39      1.0000 0.89320  0.65530  0.13140  Biso   1.000  C
  H111     1.0000 0.88340  0.67310  0.13900  Biso   1.000  H
  H112     1.0000 0.91370  0.66060  0.12650  Biso   1.000  H
  H113     1.0000 0.83660  0.65380  0.12100  Biso   1.000  H
  C40      1.0000 0.87280  0.73540  0.10990  Biso   1.000  C
  H114     1.0000 0.89350  0.73860  0.10420  Biso   1.000  H
  H115     1.0000 0.87220  0.71990  0.12500  Biso   1.000  H
  C41      1.0000 0.85620  0.75050  0.06240  Biso   1.000  C
  H116     1.0000 0.84490  0.74450  0.04490  Biso   1.000  H
  H117     1.0000 0.87660  0.75470  0.05620  Biso   1.000  H
  C42      1.0000 0.82550  0.72200  0.09260  Biso   1.000  C
  H118     1.0000 0.82400  0.70560  0.10680  Biso   1.000  H
  H119     1.0000 0.81410  0.71660  0.07490  Biso   1.000  H
  H120     1.0000 0.06400  0.12360  0.58890  Biso   1.000  H
  H121     1.0000 0.06040  0.15240  0.53560  Biso   1.000  H
  H122     1.0000 0.96700  0.22050  0.50460  Biso   1.000  H
  H123     1.0000 0.92060  0.23490  0.54000  Biso   1.000  H
  C43      1.0000 0.94430  0.16830  0.54480  Biso   1.000  C
  H124     1.0000 0.93480  0.16110  0.52660  Biso   1.000  H
  H125     1.0000 0.94320  0.15250  0.55960  Biso   1.000  H
  N8       1.0000 0.85609  0.22615  0.58458  Biso   1.000  N
  C44      1.0000 0.97700  0.17580  0.53840  Biso   1.000  C
  H126     1.0000 0.98980  0.16390  0.55120  Biso   1.000  H
  H127     1.0000 0.98170  0.17090  0.51780  Biso   1.000  H
  C45      1.0000 0.89320  0.15530  0.63140  Biso   1.000  C
  H128     1.0000 0.88340  0.17310  0.63900  Biso   1.000  H
  H129     1.0000 0.91370  0.16060  0.62650  Biso   1.000  H
  H130     1.0000 0.83660  0.15380  0.62100  Biso   1.000  H
  C46      1.0000 0.87280  0.23540  0.60990  Biso   1.000  C
  H131     1.0000 0.89350  0.23860  0.60420  Biso   1.000  H
  H132     1.0000 0.87220  0.21990  0.62500  Biso   1.000  H
  C47      1.0000 0.85620  0.25050  0.56240  Biso   1.000  C
  H133     1.0000 0.84490  0.24450  0.54490  Biso   1.000  H
  H134     1.0000 0.87660  0.25470  0.55620  Biso   1.000  H
  C48      1.0000 0.82550  0.22200  0.59260  Biso   1.000  C
  H135     1.0000 0.82400  0.20560  0.60680  Biso   1.000  H
  H136     1.0000 0.81410  0.21660  0.57490  Biso   1.000  H
  H137     1.0000 0.06400  0.12640  0.66110  Biso   1.000  H
  H138     1.0000 0.06040  0.09760  0.71440  Biso   1.000  H
  H139     1.0000 0.96700  0.02950  0.74540  Biso   1.000  H
  H140     1.0000 0.92060  0.01510  0.71000  Biso   1.000  H
  C49      1.0000 0.94430  0.08170  0.70520  Biso   1.000  C
  H141     1.0000 0.93480  0.08890  0.72340  Biso   1.000  H
  H142     1.0000 0.94320  0.09750  0.69040  Biso   1.000  H
  N9       1.0000 0.85609  0.02385  0.66542  Biso   1.000  N
  C50      1.0000 0.97700  0.07420  0.71160  Biso   1.000  C
  H143     1.0000 0.98980  0.08610  0.69880  Biso   1.000  H
  H144     1.0000 0.98170  0.07910  0.73220  Biso   1.000  H
  C51      1.0000 0.89320  0.09470  0.61860  Biso   1.000  C
  H145     1.0000 0.88340  0.07690  0.61100  Biso   1.000  H
  H146     1.0000 0.91370  0.08940  0.62350  Biso   1.000  H
  H147     1.0000 0.83660  0.09620  0.62900  Biso   1.000  H
  C52      1.0000 0.87280  0.01460  0.64010  Biso   1.000  C
  H148     1.0000 0.89350  0.01140  0.64580  Biso   1.000  H
  H149     1.0000 0.87220  0.03010  0.62500  Biso   1.000  H
  C53      1.0000 0.85620  0.99950  0.68760  Biso   1.000  C
  H150     1.0000 0.84490  0.00550  0.70510  Biso   1.000  H
  H151     1.0000 0.87660  0.99530  0.69380  Biso   1.000  H
  C54      1.0000 0.82550  0.02800  0.65740  Biso   1.000  C
  H152     1.0000 0.82400  0.04440  0.64320  Biso   1.000  H
  H153     1.0000 0.81410  0.03340  0.67510  Biso   1.000  H
  H154     1.0000 0.06400  0.62640  0.16110  Biso   1.000  H
  H155     1.0000 0.06040  0.59760  0.21440  Biso   1.000  H
  H156     1.0000 0.96700  0.52950  0.24540  Biso   1.000  H
  H157     1.0000 0.92060  0.51510  0.21000  Biso   1.000  H
  C55      1.0000 0.94430  0.58170  0.20520  Biso   1.000  C
  H158     1.0000 0.93480  0.58890  0.22340  Biso   1.000  H
  H159     1.0000 0.94320  0.59750  0.19040  Biso   1.000  H
  N10      1.0000 0.85609  0.52385  0.16542  Biso   1.000  N
  C56      1.0000 0.97700  0.57420  0.21160  Biso   1.000  C
  H160     1.0000 0.98980  0.58610  0.19880  Biso   1.000  H
  H161     1.0000 0.98170  0.57910  0.23220  Biso   1.000  H
  C57      1.0000 0.89320  0.59470  0.11860  Biso   1.000  C
  H162     1.0000 0.88340  0.57690  0.11100  Biso   1.000  H
  H163     1.0000 0.91370  0.58940  0.12350  Biso   1.000  H
  H164     1.0000 0.83660  0.59620  0.12900  Biso   1.000  H
  C58      1.0000 0.87280  0.51460  0.14010  Biso   1.000  C
  H165     1.0000 0.89350  0.51140  0.14580  Biso   1.000  H
  H166     1.0000 0.87220  0.53010  0.12500  Biso   1.000  H
  C59      1.0000 0.85620  0.49950  0.18760  Biso   1.000  C
  H167     1.0000 0.84490  0.50550  0.20510  Biso   1.000  H
  H168     1.0000 0.87660  0.49530  0.19380  Biso   1.000  H
  C60      1.0000 0.82550  0.52800  0.15740  Biso   1.000  C
  H169     1.0000 0.82400  0.54440  0.14320  Biso   1.000  H
  H170     1.0000 0.81410  0.53340  0.17510  Biso   1.000  H
  H171     1.0000 0.56400  0.12640  0.16110  Biso   1.000  H
  H172     1.0000 0.56040  0.09760  0.21440  Biso   1.000  H
  H173     1.0000 0.46700  0.02950  0.24540  Biso   1.000  H
  H174     1.0000 0.42060  0.01510  0.21000  Biso   1.000  H
  C61      1.0000 0.44430  0.08170  0.20520  Biso   1.000  C
  H175     1.0000 0.43480  0.08890  0.22340  Biso   1.000  H
  H176     1.0000 0.44320  0.09750  0.19040  Biso   1.000  H
  N11      1.0000 0.35609  0.02385  0.16542  Biso   1.000  N
  C62      1.0000 0.47700  0.07420  0.21160  Biso   1.000  C
  H177     1.0000 0.48980  0.08610  0.19880  Biso   1.000  H
  H178     1.0000 0.48170  0.07910  0.23220  Biso   1.000  H
  C63      1.0000 0.39320  0.09470  0.11860  Biso   1.000  C
  H179     1.0000 0.38340  0.07690  0.11100  Biso   1.000  H
  H180     1.0000 0.41370  0.08940  0.12350  Biso   1.000  H
  H181     1.0000 0.33660  0.09620  0.12900  Biso   1.000  H
  C64      1.0000 0.37280  0.01460  0.14010  Biso   1.000  C
  H182     1.0000 0.39350  0.01140  0.14580  Biso   1.000  H
  H183     1.0000 0.37220  0.03010  0.12500  Biso   1.000  H
  C65      1.0000 0.35620  0.99950  0.18760  Biso   1.000  C
  H184     1.0000 0.34490  0.00550  0.20510  Biso   1.000  H
  H185     1.0000 0.37660  0.99530  0.19380  Biso   1.000  H
  C66      1.0000 0.32550  0.02800  0.15740  Biso   1.000  C
  H186     1.0000 0.32400  0.04440  0.14320  Biso   1.000  H
  H187     1.0000 0.31410  0.03340  0.17510  Biso   1.000  H
  H188     1.0000 0.56400  0.62640  0.66110  Biso   1.000  H
  H189     1.0000 0.56040  0.59760  0.71440  Biso   1.000  H
  H190     1.0000 0.46700  0.52950  0.74540  Biso   1.000  H
  H191     1.0000 0.42060  0.51510  0.71000  Biso   1.000  H
  C67      1.0000 0.44430  0.58170  0.70520  Biso   1.000  C
  H192     1.0000 0.43480  0.58890  0.72340  Biso   1.000  H
  H193     1.0000 0.44320  0.59750  0.69040  Biso   1.000  H
  N12      1.0000 0.35609  0.52385  0.66542  Biso   1.000  N
  C68      1.0000 0.47700  0.57420  0.71160  Biso   1.000  C
  H194     1.0000 0.48980  0.58610  0.69880  Biso   1.000  H
  H195     1.0000 0.48170  0.57910  0.73220  Biso   1.000  H
  C69      1.0000 0.39320  0.59470  0.61860  Biso   1.000  C
  H196     1.0000 0.38340  0.57690  0.61100  Biso   1.000  H
  H197     1.0000 0.41370  0.58940  0.62350  Biso   1.000  H
  H198     1.0000 0.33660  0.59620  0.62900  Biso   1.000  H
  C70      1.0000 0.37280  0.51460  0.64010  Biso   1.000  C
  H199     1.0000 0.39350  0.51140  0.64580  Biso   1.000  H
  H200     1.0000 0.37220  0.53010  0.62500  Biso   1.000  H
  C71      1.0000 0.35620  0.49950  0.68760  Biso   1.000  C
  H201     1.0000 0.34490  0.50550  0.70510  Biso   1.000  H
  H202     1.0000 0.37660  0.49530  0.69380  Biso   1.000  H
  C72      1.0000 0.32550  0.52800  0.65740  Biso   1.000  C
  H203     1.0000 0.32400  0.54440  0.64320  Biso   1.000  H
  H204     1.0000 0.31410  0.53340  0.67510  Biso   1.000  H
  H205     1.0000 0.68600  0.12360  0.16110  Biso   1.000  H
  H206     1.0000 0.68960  0.15240  0.21440  Biso   1.000  H
  H207     1.0000 0.78300  0.22050  0.24540  Biso   1.000  H
  H208     1.0000 0.82940  0.23490  0.21000  Biso   1.000  H
  C73      1.0000 0.80570  0.16830  0.20520  Biso   1.000  C
  H209     1.0000 0.81520  0.16110  0.22340  Biso   1.000  H
  H210     1.0000 0.80680  0.15250  0.19040  Biso   1.000  H
  N13      1.0000 0.89391  0.22615  0.16542  Biso   1.000  N
  C74      1.0000 0.77300  0.17580  0.21160  Biso   1.000  C
  H211     1.0000 0.76020  0.16390  0.19880  Biso   1.000  H
  H212     1.0000 0.76830  0.17090  0.23220  Biso   1.000  H
  C75      1.0000 0.85680  0.15530  0.11860  Biso   1.000  C
  H213     1.0000 0.86660  0.17310  0.11100  Biso   1.000  H
  H214     1.0000 0.83630  0.16060  0.12350  Biso   1.000  H
  H215     1.0000 0.91340  0.15380  0.12900  Biso   1.000  H
  C76      1.0000 0.87720  0.23540  0.14010  Biso   1.000  C
  H216     1.0000 0.85650  0.23860  0.14580  Biso   1.000  H
  H217     1.0000 0.87780  0.21990  0.12500  Biso   1.000  H
  C77      1.0000 0.89380  0.25050  0.18760  Biso   1.000  C
  H218     1.0000 0.90510  0.24450  0.20510  Biso   1.000  H
  H219     1.0000 0.87340  0.25470  0.19380  Biso   1.000  H
  C78      1.0000 0.92450  0.22200  0.15740  Biso   1.000  C
  H220     1.0000 0.92600  0.20560  0.14320  Biso   1.000  H
  H221     1.0000 0.93590  0.21660  0.17510  Biso   1.000  H
  H222     1.0000 0.68600  0.62360  0.66110  Biso   1.000  H
  H223     1.0000 0.68960  0.65240  0.71440  Biso   1.000  H
  H224     1.0000 0.78300  0.72050  0.74540  Biso   1.000  H
  H225     1.0000 0.82940  0.73490  0.71000  Biso   1.000  H
  C79      1.0000 0.80570  0.66830  0.70520  Biso   1.000  C
  H226     1.0000 0.81520  0.66110  0.72340  Biso   1.000  H
  H227     1.0000 0.80680  0.65250  0.69040  Biso   1.000  H
  N14      1.0000 0.89391  0.72615  0.66542  Biso   1.000  N
  C80      1.0000 0.77300  0.67580  0.71160  Biso   1.000  C
  H228     1.0000 0.76020  0.66390  0.69880  Biso   1.000  H
  H229     1.0000 0.76830  0.67090  0.73220  Biso   1.000  H
  C81      1.0000 0.85680  0.65530  0.61860  Biso   1.000  C
  H230     1.0000 0.86660  0.67310  0.61100  Biso   1.000  H
  H231     1.0000 0.83630  0.66060  0.62350  Biso   1.000  H
  H232     1.0000 0.91340  0.65380  0.62900  Biso   1.000  H
  C82      1.0000 0.87720  0.73540  0.64010  Biso   1.000  C
  H233     1.0000 0.85650  0.73860  0.64580  Biso   1.000  H
  H234     1.0000 0.87780  0.71990  0.62500  Biso   1.000  H
  C83      1.0000 0.89380  0.75050  0.68760  Biso   1.000  C
  H235     1.0000 0.90510  0.74450  0.70510  Biso   1.000  H
  H236     1.0000 0.87340  0.75470  0.69380  Biso   1.000  H
  C84      1.0000 0.92450  0.72200  0.65740  Biso   1.000  C
  H237     1.0000 0.92600  0.70560  0.64320  Biso   1.000  H
  H238     1.0000 0.93590  0.71660  0.67510  Biso   1.000  H
  H239     1.0000 0.18600  0.12360  0.66110  Biso   1.000  H
  H240     1.0000 0.18960  0.15240  0.71440  Biso   1.000  H
  H241     1.0000 0.28300  0.22050  0.74540  Biso   1.000  H
  H242     1.0000 0.32940  0.23490  0.71000  Biso   1.000  H
  C85      1.0000 0.30570  0.16830  0.70520  Biso   1.000  C
  H243     1.0000 0.31520  0.16110  0.72340  Biso   1.000  H
  H244     1.0000 0.30680  0.15250  0.69040  Biso   1.000  H
  N15      1.0000 0.39391  0.22615  0.66542  Biso   1.000  N
  C86      1.0000 0.27300  0.17580  0.71160  Biso   1.000  C
  H245     1.0000 0.26020  0.16390  0.69880  Biso   1.000  H
  H246     1.0000 0.26830  0.17090  0.73220  Biso   1.000  H
  C87      1.0000 0.35680  0.15530  0.61860  Biso   1.000  C
  H247     1.0000 0.36660  0.17310  0.61100  Biso   1.000  H
  H248     1.0000 0.33630  0.16060  0.62350  Biso   1.000  H
  H249     1.0000 0.41340  0.15380  0.62900  Biso   1.000  H
  C88      1.0000 0.37720  0.23540  0.64010  Biso   1.000  C
  H250     1.0000 0.35650  0.23860  0.64580  Biso   1.000  H
  H251     1.0000 0.37780  0.21990  0.62500  Biso   1.000  H
  C89      1.0000 0.39380  0.25050  0.68760  Biso   1.000  C
  H252     1.0000 0.40510  0.24450  0.70510  Biso   1.000  H
  H253     1.0000 0.37340  0.25470  0.69380  Biso   1.000  H
  C90      1.0000 0.42450  0.22200  0.65740  Biso   1.000  C
  H254     1.0000 0.42600  0.20560  0.64320  Biso   1.000  H
  H255     1.0000 0.43590  0.21660  0.67510  Biso   1.000  H
  H256     1.0000 0.18600  0.62360  0.16110  Biso   1.000  H
  H257     1.0000 0.18960  0.65240  0.21440  Biso   1.000  H
  H258     1.0000 0.28300  0.72050  0.24540  Biso   1.000  H
  H259     1.0000 0.32940  0.73490  0.21000  Biso   1.000  H
  C91      1.0000 0.30570  0.66830  0.20520  Biso   1.000  C
  H260     1.0000 0.31520  0.66110  0.22340  Biso   1.000  H
  H261     1.0000 0.30680  0.65250  0.19040  Biso   1.000  H
  N16      1.0000 0.39391  0.72615  0.16542  Biso   1.000  N
  C92      1.0000 0.27300  0.67580  0.21160  Biso   1.000  C
  H262     1.0000 0.26020  0.66390  0.19880  Biso   1.000  H
  H263     1.0000 0.26830  0.67090  0.23220  Biso   1.000  H
  C93      1.0000 0.35680  0.65530  0.11860  Biso   1.000  C
  H264     1.0000 0.36660  0.67310  0.11100  Biso   1.000  H
  H265     1.0000 0.33630  0.66060  0.12350  Biso   1.000  H
  H266     1.0000 0.41340  0.65380  0.12900  Biso   1.000  H
  C94      1.0000 0.37720  0.73540  0.14010  Biso   1.000  C
  H267     1.0000 0.35650  0.73860  0.14580  Biso   1.000  H
  H268     1.0000 0.37780  0.71990  0.12500  Biso   1.000  H
  C95      1.0000 0.39380  0.75050  0.18760  Biso   1.000  C
  H269     1.0000 0.40510  0.74450  0.20510  Biso   1.000  H
  H270     1.0000 0.37340  0.75470  0.19380  Biso   1.000  H
  C96      1.0000 0.42450  0.72200  0.15740  Biso   1.000  C
  H271     1.0000 0.42600  0.70560  0.14320  Biso   1.000  H
  H272     1.0000 0.43590  0.71660  0.17510  Biso   1.000  H
  H273     1.0000 0.08890  0.18600  0.62640  Biso   1.000  H
  H274     1.0000 0.03560  0.18960  0.59760  Biso   1.000  H
  H275     1.0000 0.00460  0.28300  0.52950  Biso   1.000  H
  H276     1.0000 0.04000  0.32940  0.51510  Biso   1.000  H
  C97      1.0000 0.04480  0.30570  0.58170  Biso   1.000  C
  H277     1.0000 0.02660  0.31520  0.58890  Biso   1.000  H
  H278     1.0000 0.05960  0.30680  0.59750  Biso   1.000  H
  N17      1.0000 0.08458  0.39391  0.52385  Biso   1.000  N
  C98      1.0000 0.03840  0.27300  0.57420  Biso   1.000  C
  H279     1.0000 0.05120  0.26020  0.58610  Biso   1.000  H
  H280     1.0000 0.01780  0.26830  0.57910  Biso   1.000  H
  C99      1.0000 0.13140  0.35680  0.59470  Biso   1.000  C
  H281     1.0000 0.13900  0.36660  0.57690  Biso   1.000  H
  H282     1.0000 0.12650  0.33630  0.58940  Biso   1.000  H
  H283     1.0000 0.12100  0.41340  0.59620  Biso   1.000  H
  C100     1.0000 0.10990  0.37720  0.51460  Biso   1.000  C
  H284     1.0000 0.10420  0.35650  0.51140  Biso   1.000  H
  H285     1.0000 0.12500  0.37780  0.53010  Biso   1.000  H
  C101     1.0000 0.06240  0.39380  0.49950  Biso   1.000  C
  H286     1.0000 0.04490  0.40510  0.50550  Biso   1.000  H
  H287     1.0000 0.05620  0.37340  0.49530  Biso   1.000  H
  C102     1.0000 0.09260  0.42450  0.52800  Biso   1.000  C
  H288     1.0000 0.10680  0.42600  0.54440  Biso   1.000  H
  H289     1.0000 0.07490  0.43590  0.53340  Biso   1.000  H
  H290     1.0000 0.08890  0.68600  0.12640  Biso   1.000  H
  H291     1.0000 0.03560  0.68960  0.09760  Biso   1.000  H
  H292     1.0000 0.00460  0.78300  0.02950  Biso   1.000  H
  H293     1.0000 0.04000  0.82940  0.01510  Biso   1.000  H
  C103     1.0000 0.04480  0.80570  0.08170  Biso   1.000  C
  H294     1.0000 0.02660  0.81520  0.08890  Biso   1.000  H
  H295     1.0000 0.05960  0.80680  0.09750  Biso   1.000  H
  N18      1.0000 0.08458  0.89391  0.02385  Biso   1.000  N
  C104     1.0000 0.03840  0.77300  0.07420  Biso   1.000  C
  H296     1.0000 0.05120  0.76020  0.08610  Biso   1.000  H
  H297     1.0000 0.01780  0.76830  0.07910  Biso   1.000  H
  C105     1.0000 0.13140  0.85680  0.09470  Biso   1.000  C
  H298     1.0000 0.13900  0.86660  0.07690  Biso   1.000  H
  H299     1.0000 0.12650  0.83630  0.08940  Biso   1.000  H
  H300     1.0000 0.12100  0.91340  0.09620  Biso   1.000  H
  C106     1.0000 0.10990  0.87720  0.01460  Biso   1.000  C
  H301     1.0000 0.10420  0.85650  0.01140  Biso   1.000  H
  H302     1.0000 0.12500  0.87780  0.03010  Biso   1.000  H
  C107     1.0000 0.06240  0.89380  0.99950  Biso   1.000  C
  H303     1.0000 0.04490  0.90510  0.00550  Biso   1.000  H
  H304     1.0000 0.05620  0.87340  0.99530  Biso   1.000  H
  C108     1.0000 0.09260  0.92450  0.02800  Biso   1.000  C
  H305     1.0000 0.10680  0.92600  0.04440  Biso   1.000  H
  H306     1.0000 0.07490  0.93590  0.03340  Biso   1.000  H
  H307     1.0000 0.58890  0.18600  0.12640  Biso   1.000  H
  H308     1.0000 0.53560  0.18960  0.09760  Biso   1.000  H
  H309     1.0000 0.50460  0.28300  0.02950  Biso   1.000  H
  H310     1.0000 0.54000  0.32940  0.01510  Biso   1.000  H
  C109     1.0000 0.54480  0.30570  0.08170  Biso   1.000  C
  H311     1.0000 0.52660  0.31520  0.08890  Biso   1.000  H
  H312     1.0000 0.55960  0.30680  0.09750  Biso   1.000  H
  N19      1.0000 0.58458  0.39391  0.02385  Biso   1.000  N
  C110     1.0000 0.53840  0.27300  0.07420  Biso   1.000  C
  H313     1.0000 0.55120  0.26020  0.08610  Biso   1.000  H
  H314     1.0000 0.51780  0.26830  0.07910  Biso   1.000  H
  C111     1.0000 0.63140  0.35680  0.09470  Biso   1.000  C
  H315     1.0000 0.63900  0.36660  0.07690  Biso   1.000  H
  H316     1.0000 0.62650  0.33630  0.08940  Biso   1.000  H
  H317     1.0000 0.62100  0.41340  0.09620  Biso   1.000  H
  C112     1.0000 0.60990  0.37720  0.01460  Biso   1.000  C
  H318     1.0000 0.60420  0.35650  0.01140  Biso   1.000  H
  H319     1.0000 0.62500  0.37780  0.03010  Biso   1.000  H
  C113     1.0000 0.56240  0.39380  0.99950  Biso   1.000  C
  H320     1.0000 0.54490  0.40510  0.00550  Biso   1.000  H
  H321     1.0000 0.55620  0.37340  0.99530  Biso   1.000  H
  C114     1.0000 0.59260  0.42450  0.02800  Biso   1.000  C
  H322     1.0000 0.60680  0.42600  0.04440  Biso   1.000  H
  H323     1.0000 0.57490  0.43590  0.03340  Biso   1.000  H
  H324     1.0000 0.58890  0.68600  0.62640  Biso   1.000  H
  H325     1.0000 0.53560  0.68960  0.59760  Biso   1.000  H
  H326     1.0000 0.50460  0.78300  0.52950  Biso   1.000  H
  H327     1.0000 0.54000  0.82940  0.51510  Biso   1.000  H
  C115     1.0000 0.54480  0.80570  0.58170  Biso   1.000  C
  H328     1.0000 0.52660  0.81520  0.58890  Biso   1.000  H
  H329     1.0000 0.55960  0.80680  0.59750  Biso   1.000  H
  N20      1.0000 0.58458  0.89391  0.52385  Biso   1.000  N
  C116     1.0000 0.53840  0.77300  0.57420  Biso   1.000  C
  H330     1.0000 0.55120  0.76020  0.58610  Biso   1.000  H
  H331     1.0000 0.51780  0.76830  0.57910  Biso   1.000  H
  C117     1.0000 0.63140  0.85680  0.59470  Biso   1.000  C
  H332     1.0000 0.63900  0.86660  0.57690  Biso   1.000  H
  H333     1.0000 0.62650  0.83630  0.58940  Biso   1.000  H
  H334     1.0000 0.62100  0.91340  0.59620  Biso   1.000  H
  C118     1.0000 0.60990  0.87720  0.51460  Biso   1.000  C
  H335     1.0000 0.60420  0.85650  0.51140  Biso   1.000  H
  H336     1.0000 0.62500  0.87780  0.53010  Biso   1.000  H
  C119     1.0000 0.56240  0.89380  0.49950  Biso   1.000  C
  H337     1.0000 0.54490  0.90510  0.50550  Biso   1.000  H
  H338     1.0000 0.55620  0.87340  0.49530  Biso   1.000  H
  C120     1.0000 0.59260  0.92450  0.52800  Biso   1.000  C
  H339     1.0000 0.60680  0.92600  0.54440  Biso   1.000  H
  H340     1.0000 0.57490  0.93590  0.53340  Biso   1.000  H
  H341     1.0000 0.58890  0.56400  0.62360  Biso   1.000  H
  H342     1.0000 0.53560  0.56040  0.65240  Biso   1.000  H
  H343     1.0000 0.50460  0.46700  0.72050  Biso   1.000  H
  H344     1.0000 0.54000  0.42060  0.73490  Biso   1.000  H
  C121     1.0000 0.54480  0.44430  0.66830  Biso   1.000  C
  H345     1.0000 0.52660  0.43480  0.66110  Biso   1.000  H
  H346     1.0000 0.55960  0.44320  0.65250  Biso   1.000  H
  N21      1.0000 0.58458  0.35609  0.72615  Biso   1.000  N
  C122     1.0000 0.53840  0.47700  0.67580  Biso   1.000  C
  H347     1.0000 0.55120  0.48980  0.66390  Biso   1.000  H
  H348     1.0000 0.51780  0.48170  0.67090  Biso   1.000  H
  C123     1.0000 0.63140  0.39320  0.65530  Biso   1.000  C
  H349     1.0000 0.63900  0.38340  0.67310  Biso   1.000  H
  H350     1.0000 0.62650  0.41370  0.66060  Biso   1.000  H
  H351     1.0000 0.62100  0.33660  0.65380  Biso   1.000  H
  C124     1.0000 0.60990  0.37280  0.73540  Biso   1.000  C
  H352     1.0000 0.60420  0.39350  0.73860  Biso   1.000  H
  H353     1.0000 0.62500  0.37220  0.71990  Biso   1.000  H
  C125     1.0000 0.56240  0.35620  0.75050  Biso   1.000  C
  H354     1.0000 0.54490  0.34490  0.74450  Biso   1.000  H
  H355     1.0000 0.55620  0.37660  0.75470  Biso   1.000  H
  C126     1.0000 0.59260  0.32550  0.72200  Biso   1.000  C
  H356     1.0000 0.60680  0.32400  0.70560  Biso   1.000  H
  H357     1.0000 0.57490  0.31410  0.71660  Biso   1.000  H
  H358     1.0000 0.58890  0.06400  0.12360  Biso   1.000  H
  H359     1.0000 0.53560  0.06040  0.15240  Biso   1.000  H
  H360     1.0000 0.50460  0.96700  0.22050  Biso   1.000  H
  H361     1.0000 0.54000  0.92060  0.23490  Biso   1.000  H
  C127     1.0000 0.54480  0.94430  0.16830  Biso   1.000  C
  H362     1.0000 0.52660  0.93480  0.16110  Biso   1.000  H
  H363     1.0000 0.55960  0.94320  0.15250  Biso   1.000  H
  N22      1.0000 0.58458  0.85609  0.22615  Biso   1.000  N
  C128     1.0000 0.53840  0.97700  0.17580  Biso   1.000  C
  H364     1.0000 0.55120  0.98980  0.16390  Biso   1.000  H
  H365     1.0000 0.51780  0.98170  0.17090  Biso   1.000  H
  C129     1.0000 0.63140  0.89320  0.15530  Biso   1.000  C
  H366     1.0000 0.63900  0.88340  0.17310  Biso   1.000  H
  H367     1.0000 0.62650  0.91370  0.16060  Biso   1.000  H
  H368     1.0000 0.62100  0.83660  0.15380  Biso   1.000  H
  C130     1.0000 0.60990  0.87280  0.23540  Biso   1.000  C
  H369     1.0000 0.60420  0.89350  0.23860  Biso   1.000  H
  H370     1.0000 0.62500  0.87220  0.21990  Biso   1.000  H
  C131     1.0000 0.56240  0.85620  0.25050  Biso   1.000  C
  H371     1.0000 0.54490  0.84490  0.24450  Biso   1.000  H
  H372     1.0000 0.55620  0.87660  0.25470  Biso   1.000  H
  C132     1.0000 0.59260  0.82550  0.22200  Biso   1.000  C
  H373     1.0000 0.60680  0.82400  0.20560  Biso   1.000  H
  H374     1.0000 0.57490  0.81410  0.21660  Biso   1.000  H
  H375     1.0000 0.08890  0.56400  0.12360  Biso   1.000  H
  H376     1.0000 0.03560  0.56040  0.15240  Biso   1.000  H
  H377     1.0000 0.00460  0.46700  0.22050  Biso   1.000  H
  H378     1.0000 0.04000  0.42060  0.23490  Biso   1.000  H
  C133     1.0000 0.04480  0.44430  0.16830  Biso   1.000  C
  H379     1.0000 0.02660  0.43480  0.16110  Biso   1.000  H
  H380     1.0000 0.05960  0.44320  0.15250  Biso   1.000  H
  N23      1.0000 0.08458  0.35609  0.22615  Biso   1.000  N
  C134     1.0000 0.03840  0.47700  0.17580  Biso   1.000  C
  H381     1.0000 0.05120  0.48980  0.16390  Biso   1.000  H
  H382     1.0000 0.01780  0.48170  0.17090  Biso   1.000  H
  C135     1.0000 0.13140  0.39320  0.15530  Biso   1.000  C
  H383     1.0000 0.13900  0.38340  0.17310  Biso   1.000  H
  H384     1.0000 0.12650  0.41370  0.16060  Biso   1.000  H
  H385     1.0000 0.12100  0.33660  0.15380  Biso   1.000  H
  C136     1.0000 0.10990  0.37280  0.23540  Biso   1.000  C
  H386     1.0000 0.10420  0.39350  0.23860  Biso   1.000  H
  H387     1.0000 0.12500  0.37220  0.21990  Biso   1.000  H
  C137     1.0000 0.06240  0.35620  0.25050  Biso   1.000  C
  H388     1.0000 0.04490  0.34490  0.24450  Biso   1.000  H
  H389     1.0000 0.05620  0.37660  0.25470  Biso   1.000  H
  C138     1.0000 0.09260  0.32550  0.22200  Biso   1.000  C
  H390     1.0000 0.10680  0.32400  0.20560  Biso   1.000  H
  H391     1.0000 0.07490  0.31410  0.21660  Biso   1.000  H
  H392     1.0000 0.08890  0.06400  0.62360  Biso   1.000  H
  H393     1.0000 0.03560  0.06040  0.65240  Biso   1.000  H
  H394     1.0000 0.00460  0.96700  0.72050  Biso   1.000  H
  H395     1.0000 0.04000  0.92060  0.73490  Biso   1.000  H
  C139     1.0000 0.04480  0.94430  0.66830  Biso   1.000  C
  H396     1.0000 0.02660  0.93480  0.66110  Biso   1.000  H
  H397     1.0000 0.05960  0.94320  0.65250  Biso   1.000  H
  N24      1.0000 0.08458  0.85609  0.72615  Biso   1.000  N
  C140     1.0000 0.03840  0.97700  0.67580  Biso   1.000  C
  H398     1.0000 0.05120  0.98980  0.66390  Biso   1.000  H
  H399     1.0000 0.01780  0.98170  0.67090  Biso   1.000  H
  C141     1.0000 0.13140  0.89320  0.65530  Biso   1.000  C
  H400     1.0000 0.13900  0.88340  0.67310  Biso   1.000  H
  H401     1.0000 0.12650  0.91370  0.66060  Biso   1.000  H
  H402     1.0000 0.12100  0.83660  0.65380  Biso   1.000  H
  C142     1.0000 0.10990  0.87280  0.73540  Biso   1.000  C
  H403     1.0000 0.10420  0.89350  0.73860  Biso   1.000  H
  H404     1.0000 0.12500  0.87220  0.71990  Biso   1.000  H
  C143     1.0000 0.06240  0.85620  0.75050  Biso   1.000  C
  H405     1.0000 0.04490  0.84490  0.74450  Biso   1.000  H
  H406     1.0000 0.05620  0.87660  0.75470  Biso   1.000  H
  C144     1.0000 0.09260  0.82550  0.72200  Biso   1.000  C
  H407     1.0000 0.10680  0.82400  0.70560  Biso   1.000  H
  H408     1.0000 0.07490  0.81410  0.71660  Biso   1.000  H
  H409     1.0000 0.66110  0.06400  0.12640  Biso   1.000  H
  H410     1.0000 0.71440  0.06040  0.09760  Biso   1.000  H
  H411     1.0000 0.74540  0.96700  0.02950  Biso   1.000  H
  H412     1.0000 0.71000  0.92060  0.01510  Biso   1.000  H
  C145     1.0000 0.70520  0.94430  0.08170  Biso   1.000  C
  H413     1.0000 0.72340  0.93480  0.08890  Biso   1.000  H
  H414     1.0000 0.69040  0.94320  0.09750  Biso   1.000  H
  N25      1.0000 0.66542  0.85609  0.02385  Biso   1.000  N
  C146     1.0000 0.71160  0.97700  0.07420  Biso   1.000  C
  H415     1.0000 0.69880  0.98980  0.08610  Biso   1.000  H
  H416     1.0000 0.73220  0.98170  0.07910  Biso   1.000  H
  C147     1.0000 0.61860  0.89320  0.09470  Biso   1.000  C
  H417     1.0000 0.61100  0.88340  0.07690  Biso   1.000  H
  H418     1.0000 0.62350  0.91370  0.08940  Biso   1.000  H
  H419     1.0000 0.62900  0.83660  0.09620  Biso   1.000  H
  C148     1.0000 0.64010  0.87280  0.01460  Biso   1.000  C
  H420     1.0000 0.64580  0.89350  0.01140  Biso   1.000  H
  H421     1.0000 0.62500  0.87220  0.03010  Biso   1.000  H
  C149     1.0000 0.68760  0.85620  0.99950  Biso   1.000  C
  H422     1.0000 0.70510  0.84490  0.00550  Biso   1.000  H
  H423     1.0000 0.69380  0.87660  0.99530  Biso   1.000  H
  C150     1.0000 0.65740  0.82550  0.02800  Biso   1.000  C
  H424     1.0000 0.64320  0.82400  0.04440  Biso   1.000  H
  H425     1.0000 0.67510  0.81410  0.03340  Biso   1.000  H
  H426     1.0000 0.66110  0.56400  0.62640  Biso   1.000  H
  H427     1.0000 0.71440  0.56040  0.59760  Biso   1.000  H
  H428     1.0000 0.74540  0.46700  0.52950  Biso   1.000  H
  H429     1.0000 0.71000  0.42060  0.51510  Biso   1.000  H
  C151     1.0000 0.70520  0.44430  0.58170  Biso   1.000  C
  H430     1.0000 0.72340  0.43480  0.58890  Biso   1.000  H
  H431     1.0000 0.69040  0.44320  0.59750  Biso   1.000  H
  N26      1.0000 0.66542  0.35609  0.52385  Biso   1.000  N
  C152     1.0000 0.71160  0.47700  0.57420  Biso   1.000  C
  H432     1.0000 0.69880  0.48980  0.58610  Biso   1.000  H
  H433     1.0000 0.73220  0.48170  0.57910  Biso   1.000  H
  C153     1.0000 0.61860  0.39320  0.59470  Biso   1.000  C
  H434     1.0000 0.61100  0.38340  0.57690  Biso   1.000  H
  H435     1.0000 0.62350  0.41370  0.58940  Biso   1.000  H
  H436     1.0000 0.62900  0.33660  0.59620  Biso   1.000  H
  C154     1.0000 0.64010  0.37280  0.51460  Biso   1.000  C
  H437     1.0000 0.64580  0.39350  0.51140  Biso   1.000  H
  H438     1.0000 0.62500  0.37220  0.53010  Biso   1.000  H
  C155     1.0000 0.68760  0.35620  0.49950  Biso   1.000  C
  H439     1.0000 0.70510  0.34490  0.50550  Biso   1.000  H
  H440     1.0000 0.69380  0.37660  0.49530  Biso   1.000  H
  C156     1.0000 0.65740  0.32550  0.52800  Biso   1.000  C
  H441     1.0000 0.64320  0.32400  0.54440  Biso   1.000  H
  H442     1.0000 0.67510  0.31410  0.53340  Biso   1.000  H
  H443     1.0000 0.16110  0.06400  0.62640  Biso   1.000  H
  H444     1.0000 0.21440  0.06040  0.59760  Biso   1.000  H
  H445     1.0000 0.24540  0.96700  0.52950  Biso   1.000  H
  H446     1.0000 0.21000  0.92060  0.51510  Biso   1.000  H
  C157     1.0000 0.20520  0.94430  0.58170  Biso   1.000  C
  H447     1.0000 0.22340  0.93480  0.58890  Biso   1.000  H
  H448     1.0000 0.19040  0.94320  0.59750  Biso   1.000  H
  N27      1.0000 0.16542  0.85609  0.52385  Biso   1.000  N
  C158     1.0000 0.21160  0.97700  0.57420  Biso   1.000  C
  H449     1.0000 0.19880  0.98980  0.58610  Biso   1.000  H
  H450     1.0000 0.23220  0.98170  0.57910  Biso   1.000  H
  C159     1.0000 0.11860  0.89320  0.59470  Biso   1.000  C
  H451     1.0000 0.11100  0.88340  0.57690  Biso   1.000  H
  H452     1.0000 0.12350  0.91370  0.58940  Biso   1.000  H
  H453     1.0000 0.12900  0.83660  0.59620  Biso   1.000  H
  C160     1.0000 0.14010  0.87280  0.51460  Biso   1.000  C
  H454     1.0000 0.14580  0.89350  0.51140  Biso   1.000  H
  H455     1.0000 0.12500  0.87220  0.53010  Biso   1.000  H
  C161     1.0000 0.18760  0.85620  0.49950  Biso   1.000  C
  H456     1.0000 0.20510  0.84490  0.50550  Biso   1.000  H
  H457     1.0000 0.19380  0.87660  0.49530  Biso   1.000  H
  C162     1.0000 0.15740  0.82550  0.52800  Biso   1.000  C
  H458     1.0000 0.14320  0.82400  0.54440  Biso   1.000  H
  H459     1.0000 0.17510  0.81410  0.53340  Biso   1.000  H
  H460     1.0000 0.16110  0.56400  0.12640  Biso   1.000  H
  H461     1.0000 0.21440  0.56040  0.09760  Biso   1.000  H
  H462     1.0000 0.24540  0.46700  0.02950  Biso   1.000  H
  H463     1.0000 0.21000  0.42060  0.01510  Biso   1.000  H
  C163     1.0000 0.20520  0.44430  0.08170  Biso   1.000  C
  H464     1.0000 0.22340  0.43480  0.08890  Biso   1.000  H
  H465     1.0000 0.19040  0.44320  0.09750  Biso   1.000  H
  N28      1.0000 0.16542  0.35609  0.02385  Biso   1.000  N
  C164     1.0000 0.21160  0.47700  0.07420  Biso   1.000  C
  H466     1.0000 0.19880  0.48980  0.08610  Biso   1.000  H
  H467     1.0000 0.23220  0.48170  0.07910  Biso   1.000  H
  C165     1.0000 0.11860  0.39320  0.09470  Biso   1.000  C
  H468     1.0000 0.11100  0.38340  0.07690  Biso   1.000  H
  H469     1.0000 0.12350  0.41370  0.08940  Biso   1.000  H
  H470     1.0000 0.12900  0.33660  0.09620  Biso   1.000  H
  C166     1.0000 0.14010  0.37280  0.01460  Biso   1.000  C
  H471     1.0000 0.14580  0.39350  0.01140  Biso   1.000  H
  H472     1.0000 0.12500  0.37220  0.03010  Biso   1.000  H
  C167     1.0000 0.18760  0.35620  0.99950  Biso   1.000  C
  H473     1.0000 0.20510  0.34490  0.00550  Biso   1.000  H
  H474     1.0000 0.19380  0.37660  0.99530  Biso   1.000  H
  C168     1.0000 0.15740  0.32550  0.02800  Biso   1.000  C
  H475     1.0000 0.14320  0.32400  0.04440  Biso   1.000  H
  H476     1.0000 0.17510  0.31410  0.03340  Biso   1.000  H
  H477     1.0000 0.16110  0.68600  0.12360  Biso   1.000  H
  H478     1.0000 0.21440  0.68960  0.15240  Biso   1.000  H
  H479     1.0000 0.24540  0.78300  0.22050  Biso   1.000  H
  H480     1.0000 0.21000  0.82940  0.23490  Biso   1.000  H
  C169     1.0000 0.20520  0.80570  0.16830  Biso   1.000  C
  H481     1.0000 0.22340  0.81520  0.16110  Biso   1.000  H
  H482     1.0000 0.19040  0.80680  0.15250  Biso   1.000  H
  N29      1.0000 0.16542  0.89391  0.22615  Biso   1.000  N
  C170     1.0000 0.21160  0.77300  0.17580  Biso   1.000  C
  H483     1.0000 0.19880  0.76020  0.16390  Biso   1.000  H
  H484     1.0000 0.23220  0.76830  0.17090  Biso   1.000  H
  C171     1.0000 0.11860  0.85680  0.15530  Biso   1.000  C
  H485     1.0000 0.11100  0.86660  0.17310  Biso   1.000  H
  H486     1.0000 0.12350  0.83630  0.16060  Biso   1.000  H
  H487     1.0000 0.12900  0.91340  0.15380  Biso   1.000  H
  C172     1.0000 0.14010  0.87720  0.23540  Biso   1.000  C
  H488     1.0000 0.14580  0.85650  0.23860  Biso   1.000  H
  H489     1.0000 0.12500  0.87780  0.21990  Biso   1.000  H
  C173     1.0000 0.18760  0.89380  0.25050  Biso   1.000  C
  H490     1.0000 0.20510  0.90510  0.24450  Biso   1.000  H
  H491     1.0000 0.19380  0.87340  0.25470  Biso   1.000  H
  C174     1.0000 0.15740  0.92450  0.22200  Biso   1.000  C
  H492     1.0000 0.14320  0.92600  0.20560  Biso   1.000  H
  H493     1.0000 0.17510  0.93590  0.21660  Biso   1.000  H
  H494     1.0000 0.16110  0.18600  0.62360  Biso   1.000  H
  H495     1.0000 0.21440  0.18960  0.65240  Biso   1.000  H
  H496     1.0000 0.24540  0.28300  0.72050  Biso   1.000  H
  H497     1.0000 0.21000  0.32940  0.73490  Biso   1.000  H
  C175     1.0000 0.20520  0.30570  0.66830  Biso   1.000  C
  H498     1.0000 0.22340  0.31520  0.66110  Biso   1.000  H
  H499     1.0000 0.19040  0.30680  0.65250  Biso   1.000  H
  N30      1.0000 0.16542  0.39391  0.72615  Biso   1.000  N
  C176     1.0000 0.21160  0.27300  0.67580  Biso   1.000  C
  H500     1.0000 0.19880  0.26020  0.66390  Biso   1.000  H
  H501     1.0000 0.23220  0.26830  0.67090  Biso   1.000  H
  C177     1.0000 0.11860  0.35680  0.65530  Biso   1.000  C
  H502     1.0000 0.11100  0.36660  0.67310  Biso   1.000  H
  H503     1.0000 0.12350  0.33630  0.66060  Biso   1.000  H
  H504     1.0000 0.12900  0.41340  0.65380  Biso   1.000  H
  C178     1.0000 0.14010  0.37720  0.73540  Biso   1.000  C
  H505     1.0000 0.14580  0.35650  0.73860  Biso   1.000  H
  H506     1.0000 0.12500  0.37780  0.71990  Biso   1.000  H
  C179     1.0000 0.18760  0.39380  0.75050  Biso   1.000  C
  H507     1.0000 0.20510  0.40510  0.74450  Biso   1.000  H
  H508     1.0000 0.19380  0.37340  0.75470  Biso   1.000  H
  C180     1.0000 0.15740  0.42450  0.72200  Biso   1.000  C
  H509     1.0000 0.14320  0.42600  0.70560  Biso   1.000  H
  H510     1.0000 0.17510  0.43590  0.71660  Biso   1.000  H
  H511     1.0000 0.66110  0.68600  0.62360  Biso   1.000  H
  H512     1.0000 0.71440  0.68960  0.65240  Biso   1.000  H
  H513     1.0000 0.74540  0.78300  0.72050  Biso   1.000  H
  H514     1.0000 0.71000  0.82940  0.73490  Biso   1.000  H
  C181     1.0000 0.70520  0.80570  0.66830  Biso   1.000  C
  H515     1.0000 0.72340  0.81520  0.66110  Biso   1.000  H
  H516     1.0000 0.69040  0.80680  0.65250  Biso   1.000  H
  N31      1.0000 0.66542  0.89391  0.72615  Biso   1.000  N
  C182     1.0000 0.71160  0.77300  0.67580  Biso   1.000  C
  H517     1.0000 0.69880  0.76020  0.66390  Biso   1.000  H
  H518     1.0000 0.73220  0.76830  0.67090  Biso   1.000  H
  C183     1.0000 0.61860  0.85680  0.65530  Biso   1.000  C
  H519     1.0000 0.61100  0.86660  0.67310  Biso   1.000  H
  H520     1.0000 0.62350  0.83630  0.66060  Biso   1.000  H
  H521     1.0000 0.62900  0.91340  0.65380  Biso   1.000  H
  C184     1.0000 0.64010  0.87720  0.73540  Biso   1.000  C
  H522     1.0000 0.64580  0.85650  0.73860  Biso   1.000  H
  H523     1.0000 0.62500  0.87780  0.71990  Biso   1.000  H
  C185     1.0000 0.68760  0.89380  0.75050  Biso   1.000  C
  H524     1.0000 0.70510  0.90510  0.74450  Biso   1.000  H
  H525     1.0000 0.69380  0.87340  0.75470  Biso   1.000  H
  C186     1.0000 0.65740  0.92450  0.72200  Biso   1.000  C
  H526     1.0000 0.64320  0.92600  0.70560  Biso   1.000  H
  H527     1.0000 0.67510  0.93590  0.71660  Biso   1.000  H
  H528     1.0000 0.66110  0.18600  0.12360  Biso   1.000  H
  H529     1.0000 0.71440  0.18960  0.15240  Biso   1.000  H
  H530     1.0000 0.74540  0.28300  0.22050  Biso   1.000  H
  H531     1.0000 0.71000  0.32940  0.23490  Biso   1.000  H
  C187     1.0000 0.70520  0.30570  0.16830  Biso   1.000  C
  H532     1.0000 0.72340  0.31520  0.16110  Biso   1.000  H
  H533     1.0000 0.69040  0.30680  0.15250  Biso   1.000  H
  N32      1.0000 0.66542  0.39391  0.22615  Biso   1.000  N
  C188     1.0000 0.71160  0.27300  0.17580  Biso   1.000  C
  H534     1.0000 0.69880  0.26020  0.16390  Biso   1.000  H
  H535     1.0000 0.73220  0.26830  0.17090  Biso   1.000  H
  C189     1.0000 0.61860  0.35680  0.15530  Biso   1.000  C
  H536     1.0000 0.61100  0.36660  0.17310  Biso   1.000  H
  H537     1.0000 0.62350  0.33630  0.16060  Biso   1.000  H
  H538     1.0000 0.62900  0.41340  0.15380  Biso   1.000  H
  C190     1.0000 0.64010  0.37720  0.23540  Biso   1.000  C
  H539     1.0000 0.64580  0.35650  0.23860  Biso   1.000  H
  H540     1.0000 0.62500  0.37780  0.21990  Biso   1.000  H
  C191     1.0000 0.68760  0.39380  0.25050  Biso   1.000  C
  H541     1.0000 0.70510  0.40510  0.24450  Biso   1.000  H
  H542     1.0000 0.69380  0.37340  0.25470  Biso   1.000  H
  C192     1.0000 0.65740  0.42450  0.22200  Biso   1.000  C
  H543     1.0000 0.64320  0.42600  0.20560  Biso   1.000  H
  H544     1.0000 0.67510  0.43590  0.21660  Biso   1.000  H
  H545     1.0000 0.62640  0.08890  0.18600  Biso   1.000  H
  H546     1.0000 0.59760  0.03560  0.18960  Biso   1.000  H
  H547     1.0000 0.52950  0.00460  0.28300  Biso   1.000  H
  H548     1.0000 0.51510  0.04000  0.32940  Biso   1.000  H
  C193     1.0000 0.58170  0.04480  0.30570  Biso   1.000  C
  H549     1.0000 0.58890  0.02660  0.31520  Biso   1.000  H
  H550     1.0000 0.59750  0.05960  0.30680  Biso   1.000  H
  N33      1.0000 0.52385  0.08458  0.39391  Biso   1.000  N
  C194     1.0000 0.57420  0.03840  0.27300  Biso   1.000  C
  H551     1.0000 0.58610  0.05120  0.26020  Biso   1.000  H
  H552     1.0000 0.57910  0.01780  0.26830  Biso   1.000  H
  C195     1.0000 0.59470  0.13140  0.35680  Biso   1.000  C
  H553     1.0000 0.57690  0.13900  0.36660  Biso   1.000  H
  H554     1.0000 0.58940  0.12650  0.33630  Biso   1.000  H
  H555     1.0000 0.59620  0.12100  0.41340  Biso   1.000  H
  C196     1.0000 0.51460  0.10990  0.37720  Biso   1.000  C
  H556     1.0000 0.51140  0.10420  0.35650  Biso   1.000  H
  H557     1.0000 0.53010  0.12500  0.37780  Biso   1.000  H
  C197     1.0000 0.49950  0.06240  0.39380  Biso   1.000  C
  H558     1.0000 0.50550  0.04490  0.40510  Biso   1.000  H
  H559     1.0000 0.49530  0.05620  0.37340  Biso   1.000  H
  C198     1.0000 0.52800  0.09260  0.42450  Biso   1.000  C
  H560     1.0000 0.54440  0.10680  0.42600  Biso   1.000  H
  H561     1.0000 0.53340  0.07490  0.43590  Biso   1.000  H
  H562     1.0000 0.62640  0.58890  0.68600  Biso   1.000  H
  H563     1.0000 0.59760  0.53560  0.68960  Biso   1.000  H
  H564     1.0000 0.52950  0.50460  0.78300  Biso   1.000  H
  H565     1.0000 0.51510  0.54000  0.82940  Biso   1.000  H
  C199     1.0000 0.58170  0.54480  0.80570  Biso   1.000  C
  H566     1.0000 0.58890  0.52660  0.81520  Biso   1.000  H
  H567     1.0000 0.59750  0.55960  0.80680  Biso   1.000  H
  N34      1.0000 0.52385  0.58458  0.89391  Biso   1.000  N
  C200     1.0000 0.57420  0.53840  0.77300  Biso   1.000  C
  H568     1.0000 0.58610  0.55120  0.76020  Biso   1.000  H
  H569     1.0000 0.57910  0.51780  0.76830  Biso   1.000  H
  C201     1.0000 0.59470  0.63140  0.85680  Biso   1.000  C
  H570     1.0000 0.57690  0.63900  0.86660  Biso   1.000  H
  H571     1.0000 0.58940  0.62650  0.83630  Biso   1.000  H
  H572     1.0000 0.59620  0.62100  0.91340  Biso   1.000  H
  C202     1.0000 0.51460  0.60990  0.87720  Biso   1.000  C
  H573     1.0000 0.51140  0.60420  0.85650  Biso   1.000  H
  H574     1.0000 0.53010  0.62500  0.87780  Biso   1.000  H
  C203     1.0000 0.49950  0.56240  0.89380  Biso   1.000  C
  H575     1.0000 0.50550  0.54490  0.90510  Biso   1.000  H
  H576     1.0000 0.49530  0.55620  0.87340  Biso   1.000  H
  C204     1.0000 0.52800  0.59260  0.92450  Biso   1.000  C
  H577     1.0000 0.54440  0.60680  0.92600  Biso   1.000  H
  H578     1.0000 0.53340  0.57490  0.93590  Biso   1.000  H
  H579     1.0000 0.12640  0.08890  0.68600  Biso   1.000  H
  H580     1.0000 0.09760  0.03560  0.68960  Biso   1.000  H
  H581     1.0000 0.02950  0.00460  0.78300  Biso   1.000  H
  H582     1.0000 0.01510  0.04000  0.82940  Biso   1.000  H
  C205     1.0000 0.08170  0.04480  0.80570  Biso   1.000  C
  H583     1.0000 0.08890  0.02660  0.81520  Biso   1.000  H
  H584     1.0000 0.09750  0.05960  0.80680  Biso   1.000  H
  N35      1.0000 0.02385  0.08458  0.89391  Biso   1.000  N
  C206     1.0000 0.07420  0.03840  0.77300  Biso   1.000  C
  H585     1.0000 0.08610  0.05120  0.76020  Biso   1.000  H
  H586     1.0000 0.07910  0.01780  0.76830  Biso   1.000  H
  C207     1.0000 0.09470  0.13140  0.85680  Biso   1.000  C
  H587     1.0000 0.07690  0.13900  0.86660  Biso   1.000  H
  H588     1.0000 0.08940  0.12650  0.83630  Biso   1.000  H
  H589     1.0000 0.09620  0.12100  0.91340  Biso   1.000  H
  C208     1.0000 0.01460  0.10990  0.87720  Biso   1.000  C
  H590     1.0000 0.01140  0.10420  0.85650  Biso   1.000  H
  H591     1.0000 0.03010  0.12500  0.87780  Biso   1.000  H
  C209     1.0000 0.99950  0.06240  0.89380  Biso   1.000  C
  H592     1.0000 0.00550  0.04490  0.90510  Biso   1.000  H
  H593     1.0000 0.99530  0.05620  0.87340  Biso   1.000  H
  C210     1.0000 0.02800  0.09260  0.92450  Biso   1.000  C
  H594     1.0000 0.04440  0.10680  0.92600  Biso   1.000  H
  H595     1.0000 0.03340  0.07490  0.93590  Biso   1.000  H
  H596     1.0000 0.12640  0.58890  0.18600  Biso   1.000  H
  H597     1.0000 0.09760  0.53560  0.18960  Biso   1.000  H
  H598     1.0000 0.02950  0.50460  0.28300  Biso   1.000  H
  H599     1.0000 0.01510  0.54000  0.32940  Biso   1.000  H
  C211     1.0000 0.08170  0.54480  0.30570  Biso   1.000  C
  H600     1.0000 0.08890  0.52660  0.31520  Biso   1.000  H
  H601     1.0000 0.09750  0.55960  0.30680  Biso   1.000  H
  N36      1.0000 0.02385  0.58458  0.39391  Biso   1.000  N
  C212     1.0000 0.07420  0.53840  0.27300  Biso   1.000  C
  H602     1.0000 0.08610  0.55120  0.26020  Biso   1.000  H
  H603     1.0000 0.07910  0.51780  0.26830  Biso   1.000  H
  C213     1.0000 0.09470  0.63140  0.35680  Biso   1.000  C
  H604     1.0000 0.07690  0.63900  0.36660  Biso   1.000  H
  H605     1.0000 0.08940  0.62650  0.33630  Biso   1.000  H
  H606     1.0000 0.09620  0.62100  0.41340  Biso   1.000  H
  C214     1.0000 0.01460  0.60990  0.37720  Biso   1.000  C
  H607     1.0000 0.01140  0.60420  0.35650  Biso   1.000  H
  H608     1.0000 0.03010  0.62500  0.37780  Biso   1.000  H
  C215     1.0000 0.99950  0.56240  0.39380  Biso   1.000  C
  H609     1.0000 0.00550  0.54490  0.40510  Biso   1.000  H
  H610     1.0000 0.99530  0.55620  0.37340  Biso   1.000  H
  C216     1.0000 0.02800  0.59260  0.42450  Biso   1.000  C
  H611     1.0000 0.04440  0.60680  0.42600  Biso   1.000  H
  H612     1.0000 0.03340  0.57490  0.43590  Biso   1.000  H
  H613     1.0000 0.62360  0.58890  0.56400  Biso   1.000  H
  H614     1.0000 0.65240  0.53560  0.56040  Biso   1.000  H
  H615     1.0000 0.72050  0.50460  0.46700  Biso   1.000  H
  H616     1.0000 0.73490  0.54000  0.42060  Biso   1.000  H
  C217     1.0000 0.66830  0.54480  0.44430  Biso   1.000  C
  H617     1.0000 0.66110  0.52660  0.43480  Biso   1.000  H
  H618     1.0000 0.65250  0.55960  0.44320  Biso   1.000  H
  N37      1.0000 0.72615  0.58458  0.35609  Biso   1.000  N
  C218     1.0000 0.67580  0.53840  0.47700  Biso   1.000  C
  H619     1.0000 0.66390  0.55120  0.48980  Biso   1.000  H
  H620     1.0000 0.67090  0.51780  0.48170  Biso   1.000  H
  C219     1.0000 0.65530  0.63140  0.39320  Biso   1.000  C
  H621     1.0000 0.67310  0.63900  0.38340  Biso   1.000  H
  H622     1.0000 0.66060  0.62650  0.41370  Biso   1.000  H
  H623     1.0000 0.65380  0.62100  0.33660  Biso   1.000  H
  C220     1.0000 0.73540  0.60990  0.37280  Biso   1.000  C
  H624     1.0000 0.73860  0.60420  0.39350  Biso   1.000  H
  H625     1.0000 0.71990  0.62500  0.37220  Biso   1.000  H
  C221     1.0000 0.75050  0.56240  0.35620  Biso   1.000  C
  H626     1.0000 0.74450  0.54490  0.34490  Biso   1.000  H
  H627     1.0000 0.75470  0.55620  0.37660  Biso   1.000  H
  C222     1.0000 0.72200  0.59260  0.32550  Biso   1.000  C
  H628     1.0000 0.70560  0.60680  0.32400  Biso   1.000  H
  H629     1.0000 0.71660  0.57490  0.31410  Biso   1.000  H
  H630     1.0000 0.62360  0.08890  0.06400  Biso   1.000  H
  H631     1.0000 0.65240  0.03560  0.06040  Biso   1.000  H
  H632     1.0000 0.72050  0.00460  0.96700  Biso   1.000  H
  H633     1.0000 0.73490  0.04000  0.92060  Biso   1.000  H
  C223     1.0000 0.66830  0.04480  0.94430  Biso   1.000  C
  H634     1.0000 0.66110  0.02660  0.93480  Biso   1.000  H
  H635     1.0000 0.65250  0.05960  0.94320  Biso   1.000  H
  N38      1.0000 0.72615  0.08458  0.85609  Biso   1.000  N
  C224     1.0000 0.67580  0.03840  0.97700  Biso   1.000  C
  H636     1.0000 0.66390  0.05120  0.98980  Biso   1.000  H
  H637     1.0000 0.67090  0.01780  0.98170  Biso   1.000  H
  C225     1.0000 0.65530  0.13140  0.89320  Biso   1.000  C
  H638     1.0000 0.67310  0.13900  0.88340  Biso   1.000  H
  H639     1.0000 0.66060  0.12650  0.91370  Biso   1.000  H
  H640     1.0000 0.65380  0.12100  0.83660  Biso   1.000  H
  C226     1.0000 0.73540  0.10990  0.87280  Biso   1.000  C
  H641     1.0000 0.73860  0.10420  0.89350  Biso   1.000  H
  H642     1.0000 0.71990  0.12500  0.87220  Biso   1.000  H
  C227     1.0000 0.75050  0.06240  0.85620  Biso   1.000  C
  H643     1.0000 0.74450  0.04490  0.84490  Biso   1.000  H
  H644     1.0000 0.75470  0.05620  0.87660  Biso   1.000  H
  C228     1.0000 0.72200  0.09260  0.82550  Biso   1.000  C
  H645     1.0000 0.70560  0.10680  0.82400  Biso   1.000  H
  H646     1.0000 0.71660  0.07490  0.81410  Biso   1.000  H
  H647     1.0000 0.12360  0.58890  0.06400  Biso   1.000  H
  H648     1.0000 0.15240  0.53560  0.06040  Biso   1.000  H
  H649     1.0000 0.22050  0.50460  0.96700  Biso   1.000  H
  H650     1.0000 0.23490  0.54000  0.92060  Biso   1.000  H
  C229     1.0000 0.16830  0.54480  0.94430  Biso   1.000  C
  H651     1.0000 0.16110  0.52660  0.93480  Biso   1.000  H
  H652     1.0000 0.15250  0.55960  0.94320  Biso   1.000  H
  N39      1.0000 0.22615  0.58458  0.85609  Biso   1.000  N
  C230     1.0000 0.17580  0.53840  0.97700  Biso   1.000  C
  H653     1.0000 0.16390  0.55120  0.98980  Biso   1.000  H
  H654     1.0000 0.17090  0.51780  0.98170  Biso   1.000  H
  C231     1.0000 0.15530  0.63140  0.89320  Biso   1.000  C
  H655     1.0000 0.17310  0.63900  0.88340  Biso   1.000  H
  H656     1.0000 0.16060  0.62650  0.91370  Biso   1.000  H
  H657     1.0000 0.15380  0.62100  0.83660  Biso   1.000  H
  C232     1.0000 0.23540  0.60990  0.87280  Biso   1.000  C
  H658     1.0000 0.23860  0.60420  0.89350  Biso   1.000  H
  H659     1.0000 0.21990  0.62500  0.87220  Biso   1.000  H
  C233     1.0000 0.25050  0.56240  0.85620  Biso   1.000  C
  H660     1.0000 0.24450  0.54490  0.84490  Biso   1.000  H
  H661     1.0000 0.25470  0.55620  0.87660  Biso   1.000  H
  C234     1.0000 0.22200  0.59260  0.82550  Biso   1.000  C
  H662     1.0000 0.20560  0.60680  0.82400  Biso   1.000  H
  H663     1.0000 0.21660  0.57490  0.81410  Biso   1.000  H
  H664     1.0000 0.12360  0.08890  0.56400  Biso   1.000  H
  H665     1.0000 0.15240  0.03560  0.56040  Biso   1.000  H
  H666     1.0000 0.22050  0.00460  0.46700  Biso   1.000  H
  H667     1.0000 0.23490  0.04000  0.42060  Biso   1.000  H
  C235     1.0000 0.16830  0.04480  0.44430  Biso   1.000  C
  H668     1.0000 0.16110  0.02660  0.43480  Biso   1.000  H
  H669     1.0000 0.15250  0.05960  0.44320  Biso   1.000  H
  N40      1.0000 0.22615  0.08458  0.35609  Biso   1.000  N
  C236     1.0000 0.17580  0.03840  0.47700  Biso   1.000  C
  H670     1.0000 0.16390  0.05120  0.48980  Biso   1.000  H
  H671     1.0000 0.17090  0.01780  0.48170  Biso   1.000  H
  C237     1.0000 0.15530  0.13140  0.39320  Biso   1.000  C
  H672     1.0000 0.17310  0.13900  0.38340  Biso   1.000  H
  H673     1.0000 0.16060  0.12650  0.41370  Biso   1.000  H
  H674     1.0000 0.15380  0.12100  0.33660  Biso   1.000  H
  C238     1.0000 0.23540  0.10990  0.37280  Biso   1.000  C
  H675     1.0000 0.23860  0.10420  0.39350  Biso   1.000  H
  H676     1.0000 0.21990  0.12500  0.37220  Biso   1.000  H
  C239     1.0000 0.25050  0.06240  0.35620  Biso   1.000  C
  H677     1.0000 0.24450  0.04490  0.34490  Biso   1.000  H
  H678     1.0000 0.25470  0.05620  0.37660  Biso   1.000  H
  C240     1.0000 0.22200  0.09260  0.32550  Biso   1.000  C
  H679     1.0000 0.20560  0.10680  0.32400  Biso   1.000  H
  H680     1.0000 0.21660  0.07490  0.31410  Biso   1.000  H
  H681     1.0000 0.12640  0.66110  0.06400  Biso   1.000  H
  H682     1.0000 0.09760  0.71440  0.06040  Biso   1.000  H
  H683     1.0000 0.02950  0.74540  0.96700  Biso   1.000  H
  H684     1.0000 0.01510  0.71000  0.92060  Biso   1.000  H
  C241     1.0000 0.08170  0.70520  0.94430  Biso   1.000  C
  H685     1.0000 0.08890  0.72340  0.93480  Biso   1.000  H
  H686     1.0000 0.09750  0.69040  0.94320  Biso   1.000  H
  N41      1.0000 0.02385  0.66542  0.85609  Biso   1.000  N
  C242     1.0000 0.07420  0.71160  0.97700  Biso   1.000  C
  H687     1.0000 0.08610  0.69880  0.98980  Biso   1.000  H
  H688     1.0000 0.07910  0.73220  0.98170  Biso   1.000  H
  C243     1.0000 0.09470  0.61860  0.89320  Biso   1.000  C
  H689     1.0000 0.07690  0.61100  0.88340  Biso   1.000  H
  H690     1.0000 0.08940  0.62350  0.91370  Biso   1.000  H
  H691     1.0000 0.09620  0.62900  0.83660  Biso   1.000  H
  C244     1.0000 0.01460  0.64010  0.87280  Biso   1.000  C
  H692     1.0000 0.01140  0.64580  0.89350  Biso   1.000  H
  H693     1.0000 0.03010  0.62500  0.87220  Biso   1.000  H
  C245     1.0000 0.99950  0.68760  0.85620  Biso   1.000  C
  H694     1.0000 0.00550  0.70510  0.84490  Biso   1.000  H
  H695     1.0000 0.99530  0.69380  0.87660  Biso   1.000  H
  C246     1.0000 0.02800  0.65740  0.82550  Biso   1.000  C
  H696     1.0000 0.04440  0.64320  0.82400  Biso   1.000  H
  H697     1.0000 0.03340  0.67510  0.81410  Biso   1.000  H
  H698     1.0000 0.12640  0.16110  0.56400  Biso   1.000  H
  H699     1.0000 0.09760  0.21440  0.56040  Biso   1.000  H
  H700     1.0000 0.02950  0.24540  0.46700  Biso   1.000  H
  H701     1.0000 0.01510  0.21000  0.42060  Biso   1.000  H
  C247     1.0000 0.08170  0.20520  0.44430  Biso   1.000  C
  H702     1.0000 0.08890  0.22340  0.43480  Biso   1.000  H
  H703     1.0000 0.09750  0.19040  0.44320  Biso   1.000  H
  N42      1.0000 0.02385  0.16542  0.35609  Biso   1.000  N
  C248     1.0000 0.07420  0.21160  0.47700  Biso   1.000  C
  H704     1.0000 0.08610  0.19880  0.48980  Biso   1.000  H
  H705     1.0000 0.07910  0.23220  0.48170  Biso   1.000  H
  C249     1.0000 0.09470  0.11860  0.39320  Biso   1.000  C
  H706     1.0000 0.07690  0.11100  0.38340  Biso   1.000  H
  H707     1.0000 0.08940  0.12350  0.41370  Biso   1.000  H
  H708     1.0000 0.09620  0.12900  0.33660  Biso   1.000  H
  C250     1.0000 0.01460  0.14010  0.37280  Biso   1.000  C
  H709     1.0000 0.01140  0.14580  0.39350  Biso   1.000  H
  H710     1.0000 0.03010  0.12500  0.37220  Biso   1.000  H
  C251     1.0000 0.99950  0.18760  0.35620  Biso   1.000  C
  H711     1.0000 0.00550  0.20510  0.34490  Biso   1.000  H
  H712     1.0000 0.99530  0.19380  0.37660  Biso   1.000  H
  C252     1.0000 0.02800  0.15740  0.32550  Biso   1.000  C
  H713     1.0000 0.04440  0.14320  0.32400  Biso   1.000  H
  H714     1.0000 0.03340  0.17510  0.31410  Biso   1.000  H
  H715     1.0000 0.62640  0.66110  0.56400  Biso   1.000  H
  H716     1.0000 0.59760  0.71440  0.56040  Biso   1.000  H
  H717     1.0000 0.52950  0.74540  0.46700  Biso   1.000  H
  H718     1.0000 0.51510  0.71000  0.42060  Biso   1.000  H
  C253     1.0000 0.58170  0.70520  0.44430  Biso   1.000  C
  H719     1.0000 0.58890  0.72340  0.43480  Biso   1.000  H
  H720     1.0000 0.59750  0.69040  0.44320  Biso   1.000  H
  N43      1.0000 0.52385  0.66542  0.35609  Biso   1.000  N
  C254     1.0000 0.57420  0.71160  0.47700  Biso   1.000  C
  H721     1.0000 0.58610  0.69880  0.48980  Biso   1.000  H
  H722     1.0000 0.57910  0.73220  0.48170  Biso   1.000  H
  C255     1.0000 0.59470  0.61860  0.39320  Biso   1.000  C
  H723     1.0000 0.57690  0.61100  0.38340  Biso   1.000  H
  H724     1.0000 0.58940  0.62350  0.41370  Biso   1.000  H
  H725     1.0000 0.59620  0.62900  0.33660  Biso   1.000  H
  C256     1.0000 0.51460  0.64010  0.37280  Biso   1.000  C
  H726     1.0000 0.51140  0.64580  0.39350  Biso   1.000  H
  H727     1.0000 0.53010  0.62500  0.37220  Biso   1.000  H
  C257     1.0000 0.49950  0.68760  0.35620  Biso   1.000  C
  H728     1.0000 0.50550  0.70510  0.34490  Biso   1.000  H
  H729     1.0000 0.49530  0.69380  0.37660  Biso   1.000  H
  C258     1.0000 0.52800  0.65740  0.32550  Biso   1.000  C
  H730     1.0000 0.54440  0.64320  0.32400  Biso   1.000  H
  H731     1.0000 0.53340  0.67510  0.31410  Biso   1.000  H
  H732     1.0000 0.62640  0.16110  0.06400  Biso   1.000  H
  H733     1.0000 0.59760  0.21440  0.06040  Biso   1.000  H
  H734     1.0000 0.52950  0.24540  0.96700  Biso   1.000  H
  H735     1.0000 0.51510  0.21000  0.92060  Biso   1.000  H
  C259     1.0000 0.58170  0.20520  0.94430  Biso   1.000  C
  H736     1.0000 0.58890  0.22340  0.93480  Biso   1.000  H
  H737     1.0000 0.59750  0.19040  0.94320  Biso   1.000  H
  N44      1.0000 0.52385  0.16542  0.85609  Biso   1.000  N
  C260     1.0000 0.57420  0.21160  0.97700  Biso   1.000  C
  H738     1.0000 0.58610  0.19880  0.98980  Biso   1.000  H
  H739     1.0000 0.57910  0.23220  0.98170  Biso   1.000  H
  C261     1.0000 0.59470  0.11860  0.89320  Biso   1.000  C
  H740     1.0000 0.57690  0.11100  0.88340  Biso   1.000  H
  H741     1.0000 0.58940  0.12350  0.91370  Biso   1.000  H
  H742     1.0000 0.59620  0.12900  0.83660  Biso   1.000  H
  C262     1.0000 0.51460  0.14010  0.87280  Biso   1.000  C
  H743     1.0000 0.51140  0.14580  0.89350  Biso   1.000  H
  H744     1.0000 0.53010  0.12500  0.87220  Biso   1.000  H
  C263     1.0000 0.49950  0.18760  0.85620  Biso   1.000  C
  H745     1.0000 0.50550  0.20510  0.84490  Biso   1.000  H
  H746     1.0000 0.49530  0.19380  0.87660  Biso   1.000  H
  C264     1.0000 0.52800  0.15740  0.82550  Biso   1.000  C
  H747     1.0000 0.54440  0.14320  0.82400  Biso   1.000  H
  H748     1.0000 0.53340  0.17510  0.81410  Biso   1.000  H
  H749     1.0000 0.12360  0.16110  0.68600  Biso   1.000  H
  H750     1.0000 0.15240  0.21440  0.68960  Biso   1.000  H
  H751     1.0000 0.22050  0.24540  0.78300  Biso   1.000  H
  H752     1.0000 0.23490  0.21000  0.82940  Biso   1.000  H
  C265     1.0000 0.16830  0.20520  0.80570  Biso   1.000  C
  H753     1.0000 0.16110  0.22340  0.81520  Biso   1.000  H
  H754     1.0000 0.15250  0.19040  0.80680  Biso   1.000  H
  N45      1.0000 0.22615  0.16542  0.89391  Biso   1.000  N
  C266     1.0000 0.17580  0.21160  0.77300  Biso   1.000  C
  H755     1.0000 0.16390  0.19880  0.76020  Biso   1.000  H
  H756     1.0000 0.17090  0.23220  0.76830  Biso   1.000  H
  C267     1.0000 0.15530  0.11860  0.85680  Biso   1.000  C
  H757     1.0000 0.17310  0.11100  0.86660  Biso   1.000  H
  H758     1.0000 0.16060  0.12350  0.83630  Biso   1.000  H
  H759     1.0000 0.15380  0.12900  0.91340  Biso   1.000  H
  C268     1.0000 0.23540  0.14010  0.87720  Biso   1.000  C
  H760     1.0000 0.23860  0.14580  0.85650  Biso   1.000  H
  H761     1.0000 0.21990  0.12500  0.87780  Biso   1.000  H
  C269     1.0000 0.25050  0.18760  0.89380  Biso   1.000  C
  H762     1.0000 0.24450  0.20510  0.90510  Biso   1.000  H
  H763     1.0000 0.25470  0.19380  0.87340  Biso   1.000  H
  C270     1.0000 0.22200  0.15740  0.92450  Biso   1.000  C
  H764     1.0000 0.20560  0.14320  0.92600  Biso   1.000  H
  H765     1.0000 0.21660  0.17510  0.93590  Biso   1.000  H
  H766     1.0000 0.12360  0.66110  0.18600  Biso   1.000  H
  H767     1.0000 0.15240  0.71440  0.18960  Biso   1.000  H
  H768     1.0000 0.22050  0.74540  0.28300  Biso   1.000  H
  H769     1.0000 0.23490  0.71000  0.32940  Biso   1.000  H
  C271     1.0000 0.16830  0.70520  0.30570  Biso   1.000  C
  H770     1.0000 0.16110  0.72340  0.31520  Biso   1.000  H
  H771     1.0000 0.15250  0.69040  0.30680  Biso   1.000  H
  N46      1.0000 0.22615  0.66542  0.39391  Biso   1.000  N
  C272     1.0000 0.17580  0.71160  0.27300  Biso   1.000  C
  H772     1.0000 0.16390  0.69880  0.26020  Biso   1.000  H
  H773     1.0000 0.17090  0.73220  0.26830  Biso   1.000  H
  C273     1.0000 0.15530  0.61860  0.35680  Biso   1.000  C
  H774     1.0000 0.17310  0.61100  0.36660  Biso   1.000  H
  H775     1.0000 0.16060  0.62350  0.33630  Biso   1.000  H
  H776     1.0000 0.15380  0.62900  0.41340  Biso   1.000  H
  C274     1.0000 0.23540  0.64010  0.37720  Biso   1.000  C
  H777     1.0000 0.23860  0.64580  0.35650  Biso   1.000  H
  H778     1.0000 0.21990  0.62500  0.37780  Biso   1.000  H
  C275     1.0000 0.25050  0.68760  0.39380  Biso   1.000  C
  H779     1.0000 0.24450  0.70510  0.40510  Biso   1.000  H
  H780     1.0000 0.25470  0.69380  0.37340  Biso   1.000  H
  C276     1.0000 0.22200  0.65740  0.42450  Biso   1.000  C
  H781     1.0000 0.20560  0.64320  0.42600  Biso   1.000  H
  H782     1.0000 0.21660  0.67510  0.43590  Biso   1.000  H
  H783     1.0000 0.62360  0.16110  0.18600  Biso   1.000  H
  H784     1.0000 0.65240  0.21440  0.18960  Biso   1.000  H
  H785     1.0000 0.72050  0.24540  0.28300  Biso   1.000  H
  H786     1.0000 0.73490  0.21000  0.32940  Biso   1.000  H
  C277     1.0000 0.66830  0.20520  0.30570  Biso   1.000  C
  H787     1.0000 0.66110  0.22340  0.31520  Biso   1.000  H
  H788     1.0000 0.65250  0.19040  0.30680  Biso   1.000  H
  N47      1.0000 0.72615  0.16542  0.39391  Biso   1.000  N
  C278     1.0000 0.67580  0.21160  0.27300  Biso   1.000  C
  H789     1.0000 0.66390  0.19880  0.26020  Biso   1.000  H
  H790     1.0000 0.67090  0.23220  0.26830  Biso   1.000  H
  C279     1.0000 0.65530  0.11860  0.35680  Biso   1.000  C
  H791     1.0000 0.67310  0.11100  0.36660  Biso   1.000  H
  H792     1.0000 0.66060  0.12350  0.33630  Biso   1.000  H
  H793     1.0000 0.65380  0.12900  0.41340  Biso   1.000  H
  C280     1.0000 0.73540  0.14010  0.37720  Biso   1.000  C
  H794     1.0000 0.73860  0.14580  0.35650  Biso   1.000  H
  H795     1.0000 0.71990  0.12500  0.37780  Biso   1.000  H
  C281     1.0000 0.75050  0.18760  0.39380  Biso   1.000  C
  H796     1.0000 0.74450  0.20510  0.40510  Biso   1.000  H
  H797     1.0000 0.75470  0.19380  0.37340  Biso   1.000  H
  C282     1.0000 0.72200  0.15740  0.42450  Biso   1.000  C
  H798     1.0000 0.70560  0.14320  0.42600  Biso   1.000  H
  H799     1.0000 0.71660  0.17510  0.43590  Biso   1.000  H
  H800     1.0000 0.62360  0.66110  0.68600  Biso   1.000  H
  H801     1.0000 0.65240  0.71440  0.68960  Biso   1.000  H
  H802     1.0000 0.72050  0.74540  0.78300  Biso   1.000  H
  H803     1.0000 0.73490  0.71000  0.82940  Biso   1.000  H
  C283     1.0000 0.66830  0.70520  0.80570  Biso   1.000  C
  H804     1.0000 0.66110  0.72340  0.81520  Biso   1.000  H
  H805     1.0000 0.65250  0.69040  0.80680  Biso   1.000  H
  N48      1.0000 0.72615  0.66542  0.89391  Biso   1.000  N
  C284     1.0000 0.67580  0.71160  0.77300  Biso   1.000  C
  H806     1.0000 0.66390  0.69880  0.76020  Biso   1.000  H
  H807     1.0000 0.67090  0.73220  0.76830  Biso   1.000  H
  C285     1.0000 0.65530  0.61860  0.85680  Biso   1.000  C
  H808     1.0000 0.67310  0.61100  0.86660  Biso   1.000  H
  H809     1.0000 0.66060  0.62350  0.83630  Biso   1.000  H
  H810     1.0000 0.65380  0.62900  0.91340  Biso   1.000  H
  C286     1.0000 0.73540  0.64010  0.87720  Biso   1.000  C
  H811     1.0000 0.73860  0.64580  0.85650  Biso   1.000  H
  H812     1.0000 0.71990  0.62500  0.87780  Biso   1.000  H
  C287     1.0000 0.75050  0.68760  0.89380  Biso   1.000  C
  H813     1.0000 0.74450  0.70510  0.90510  Biso   1.000  H
  H814     1.0000 0.75470  0.69380  0.87340  Biso   1.000  H
  C288     1.0000 0.72200  0.65740  0.92450  Biso   1.000  C
  H815     1.0000 0.70560  0.64320  0.92600  Biso   1.000  H
  H816     1.0000 0.71660  0.67510  0.93590  Biso   1.000  H
  H817     1.0000 0.37640  0.43600  0.41110  Biso   1.000  H
  H818     1.0000 0.34760  0.43960  0.46440  Biso   1.000  H
  H819     1.0000 0.27950  0.53300  0.49540  Biso   1.000  H
  H820     1.0000 0.26510  0.57940  0.46000  Biso   1.000  H
  C289     1.0000 0.33170  0.55570  0.45520  Biso   1.000  C
  H821     1.0000 0.33890  0.56520  0.47340  Biso   1.000  H
  H822     1.0000 0.34750  0.55680  0.44040  Biso   1.000  H
  N49      1.0000 0.27385  0.64391  0.41542  Biso   1.000  N
  C290     1.0000 0.32420  0.52300  0.46160  Biso   1.000  C
  H823     1.0000 0.33610  0.51020  0.44880  Biso   1.000  H
  H824     1.0000 0.32910  0.51830  0.48220  Biso   1.000  H
  C291     1.0000 0.34470  0.60680  0.36860  Biso   1.000  C
  H825     1.0000 0.32690  0.61660  0.36100  Biso   1.000  H
  H826     1.0000 0.33940  0.58630  0.37350  Biso   1.000  H
  H827     1.0000 0.34620  0.66340  0.37900  Biso   1.000  H
  C292     1.0000 0.26460  0.62720  0.39010  Biso   1.000  C
  H828     1.0000 0.26140  0.60650  0.39580  Biso   1.000  H
  H829     1.0000 0.28010  0.62780  0.37500  Biso   1.000  H
  C293     1.0000 0.24950  0.64380  0.43760  Biso   1.000  C
  H830     1.0000 0.25550  0.65510  0.45510  Biso   1.000  H
  H831     1.0000 0.24530  0.62340  0.44380  Biso   1.000  H
  C294     1.0000 0.27800  0.67450  0.40740  Biso   1.000  C
  H832     1.0000 0.29440  0.67600  0.39320  Biso   1.000  H
  H833     1.0000 0.28340  0.68590  0.42510  Biso   1.000  H
  H834     1.0000 0.37640  0.93600  0.91110  Biso   1.000  H
  H835     1.0000 0.34760  0.93960  0.96440  Biso   1.000  H
  H836     1.0000 0.27950  0.03300  0.99540  Biso   1.000  H
  H837     1.0000 0.26510  0.07940  0.96000  Biso   1.000  H
  C295     1.0000 0.33170  0.05570  0.95520  Biso   1.000  C
  H838     1.0000 0.33890  0.06520  0.97340  Biso   1.000  H
  H839     1.0000 0.34750  0.05680  0.94040  Biso   1.000  H
  N50      1.0000 0.27385  0.14391  0.91542  Biso   1.000  N
  C296     1.0000 0.32420  0.02300  0.96160  Biso   1.000  C
  H840     1.0000 0.33610  0.01020  0.94880  Biso   1.000  H
  H841     1.0000 0.32910  0.01830  0.98220  Biso   1.000  H
  C297     1.0000 0.34470  0.10680  0.86860  Biso   1.000  C
  H842     1.0000 0.32690  0.11660  0.86100  Biso   1.000  H
  H843     1.0000 0.33940  0.08630  0.87350  Biso   1.000  H
  H844     1.0000 0.34620  0.16340  0.87900  Biso   1.000  H
  C298     1.0000 0.26460  0.12720  0.89010  Biso   1.000  C
  H845     1.0000 0.26140  0.10650  0.89580  Biso   1.000  H
  H846     1.0000 0.28010  0.12780  0.87500  Biso   1.000  H
  C299     1.0000 0.24950  0.14380  0.93760  Biso   1.000  C
  H847     1.0000 0.25550  0.15510  0.95510  Biso   1.000  H
  H848     1.0000 0.24530  0.12340  0.94380  Biso   1.000  H
  C300     1.0000 0.27800  0.17450  0.90740  Biso   1.000  C
  H849     1.0000 0.29440  0.17600  0.89320  Biso   1.000  H
  H850     1.0000 0.28340  0.18590  0.92510  Biso   1.000  H
  H851     1.0000 0.87640  0.43600  0.91110  Biso   1.000  H
  H852     1.0000 0.84760  0.43960  0.96440  Biso   1.000  H
  H853     1.0000 0.77950  0.53300  0.99540  Biso   1.000  H
  H854     1.0000 0.76510  0.57940  0.96000  Biso   1.000  H
  C301     1.0000 0.83170  0.55570  0.95520  Biso   1.000  C
  H855     1.0000 0.83890  0.56520  0.97340  Biso   1.000  H
  H856     1.0000 0.84750  0.55680  0.94040  Biso   1.000  H
  N51      1.0000 0.77385  0.64391  0.91542  Biso   1.000  N
  C302     1.0000 0.82420  0.52300  0.96160  Biso   1.000  C
  H857     1.0000 0.83610  0.51020  0.94880  Biso   1.000  H
  H858     1.0000 0.82910  0.51830  0.98220  Biso   1.000  H
  C303     1.0000 0.84470  0.60680  0.86860  Biso   1.000  C
  H859     1.0000 0.82690  0.61660  0.86100  Biso   1.000  H
  H860     1.0000 0.83940  0.58630  0.87350  Biso   1.000  H
  H861     1.0000 0.84620  0.66340  0.87900  Biso   1.000  H
  C304     1.0000 0.76460  0.62720  0.89010  Biso   1.000  C
  H862     1.0000 0.76140  0.60650  0.89580  Biso   1.000  H
  H863     1.0000 0.78010  0.62780  0.87500  Biso   1.000  H
  C305     1.0000 0.74950  0.64380  0.93760  Biso   1.000  C
  H864     1.0000 0.75550  0.65510  0.95510  Biso   1.000  H
  H865     1.0000 0.74530  0.62340  0.94380  Biso   1.000  H
  C306     1.0000 0.77800  0.67450  0.90740  Biso   1.000  C
  H866     1.0000 0.79440  0.67600  0.89320  Biso   1.000  H
  H867     1.0000 0.78340  0.68590  0.92510  Biso   1.000  H
  H868     1.0000 0.87640  0.93600  0.41110  Biso   1.000  H
  H869     1.0000 0.84760  0.93960  0.46440  Biso   1.000  H
  H870     1.0000 0.77950  0.03300  0.49540  Biso   1.000  H
  H871     1.0000 0.76510  0.07940  0.46000  Biso   1.000  H
  C307     1.0000 0.83170  0.05570  0.45520  Biso   1.000  C
  H872     1.0000 0.83890  0.06520  0.47340  Biso   1.000  H
  H873     1.0000 0.84750  0.05680  0.44040  Biso   1.000  H
  N52      1.0000 0.77385  0.14391  0.41542  Biso   1.000  N
  C308     1.0000 0.82420  0.02300  0.46160  Biso   1.000  C
  H874     1.0000 0.83610  0.01020  0.44880  Biso   1.000  H
  H875     1.0000 0.82910  0.01830  0.48220  Biso   1.000  H
  C309     1.0000 0.84470  0.10680  0.36860  Biso   1.000  C
  H876     1.0000 0.82690  0.11660  0.36100  Biso   1.000  H
  H877     1.0000 0.83940  0.08630  0.37350  Biso   1.000  H
  H878     1.0000 0.84620  0.16340  0.37900  Biso   1.000  H
  C310     1.0000 0.76460  0.12720  0.39010  Biso   1.000  C
  H879     1.0000 0.76140  0.10650  0.39580  Biso   1.000  H
  H880     1.0000 0.78010  0.12780  0.37500  Biso   1.000  H
  C311     1.0000 0.74950  0.14380  0.43760  Biso   1.000  C
  H881     1.0000 0.75550  0.15510  0.45510  Biso   1.000  H
  H882     1.0000 0.74530  0.12340  0.44380  Biso   1.000  H
  C312     1.0000 0.77800  0.17450  0.40740  Biso   1.000  C
  H883     1.0000 0.79440  0.17600  0.39320  Biso   1.000  H
  H884     1.0000 0.78340  0.18590  0.42510  Biso   1.000  H
  H885     1.0000 0.37360  0.81400  0.91110  Biso   1.000  H
  H886     1.0000 0.40240  0.81040  0.96440  Biso   1.000  H
  H887     1.0000 0.47050  0.71700  0.99540  Biso   1.000  H
  H888     1.0000 0.48490  0.67060  0.96000  Biso   1.000  H
  C313     1.0000 0.41830  0.69430  0.95520  Biso   1.000  C
  H889     1.0000 0.41110  0.68480  0.97340  Biso   1.000  H
  H890     1.0000 0.40250  0.69320  0.94040  Biso   1.000  H
  N53      1.0000 0.47615  0.60609  0.91542  Biso   1.000  N
  C314     1.0000 0.42580  0.72700  0.96160  Biso   1.000  C
  H891     1.0000 0.41390  0.73980  0.94880  Biso   1.000  H
  H892     1.0000 0.42090  0.73170  0.98220  Biso   1.000  H
  C315     1.0000 0.40530  0.64320  0.86860  Biso   1.000  C
  H893     1.0000 0.42310  0.63340  0.86100  Biso   1.000  H
  H894     1.0000 0.41060  0.66370  0.87350  Biso   1.000  H
  H895     1.0000 0.40380  0.58660  0.87900  Biso   1.000  H
  C316     1.0000 0.48540  0.62280  0.89010  Biso   1.000  C
  H896     1.0000 0.48860  0.64350  0.89580  Biso   1.000  H
  H897     1.0000 0.46990  0.62220  0.87500  Biso   1.000  H
  C317     1.0000 0.50050  0.60620  0.93760  Biso   1.000  C
  H898     1.0000 0.49450  0.59490  0.95510  Biso   1.000  H
  H899     1.0000 0.50470  0.62660  0.94380  Biso   1.000  H
  C318     1.0000 0.47200  0.57550  0.90740  Biso   1.000  C
  H900     1.0000 0.45560  0.57400  0.89320  Biso   1.000  H
  H901     1.0000 0.46660  0.56410  0.92510  Biso   1.000  H
  H902     1.0000 0.37360  0.31400  0.41110  Biso   1.000  H
  H903     1.0000 0.40240  0.31040  0.46440  Biso   1.000  H
  H904     1.0000 0.47050  0.21700  0.49540  Biso   1.000  H
  H905     1.0000 0.48490  0.17060  0.46000  Biso   1.000  H
  C319     1.0000 0.41830  0.19430  0.45520  Biso   1.000  C
  H906     1.0000 0.41110  0.18480  0.47340  Biso   1.000  H
  H907     1.0000 0.40250  0.19320  0.44040  Biso   1.000  H
  N54      1.0000 0.47615  0.10609  0.41542  Biso   1.000  N
  C320     1.0000 0.42580  0.22700  0.46160  Biso   1.000  C
  H908     1.0000 0.41390  0.23980  0.44880  Biso   1.000  H
  H909     1.0000 0.42090  0.23170  0.48220  Biso   1.000  H
  C321     1.0000 0.40530  0.14320  0.36860  Biso   1.000  C
  H910     1.0000 0.42310  0.13340  0.36100  Biso   1.000  H
  H911     1.0000 0.41060  0.16370  0.37350  Biso   1.000  H
  H912     1.0000 0.40380  0.08660  0.37900  Biso   1.000  H
  C322     1.0000 0.48540  0.12280  0.39010  Biso   1.000  C
  H913     1.0000 0.48860  0.14350  0.39580  Biso   1.000  H
  H914     1.0000 0.46990  0.12220  0.37500  Biso   1.000  H
  C323     1.0000 0.50050  0.10620  0.43760  Biso   1.000  C
  H915     1.0000 0.49450  0.09490  0.45510  Biso   1.000  H
  H916     1.0000 0.50470  0.12660  0.44380  Biso   1.000  H
  C324     1.0000 0.47200  0.07550  0.40740  Biso   1.000  C
  H917     1.0000 0.45560  0.07400  0.39320  Biso   1.000  H
  H918     1.0000 0.46660  0.06410  0.42510  Biso   1.000  H
  H919     1.0000 0.87360  0.81400  0.41110  Biso   1.000  H
  H920     1.0000 0.90240  0.81040  0.46440  Biso   1.000  H
  H921     1.0000 0.97050  0.71700  0.49540  Biso   1.000  H
  H922     1.0000 0.98490  0.67060  0.46000  Biso   1.000  H
  C325     1.0000 0.91830  0.69430  0.45520  Biso   1.000  C
  H923     1.0000 0.91110  0.68480  0.47340  Biso   1.000  H
  H924     1.0000 0.90250  0.69320  0.44040  Biso   1.000  H
  N55      1.0000 0.97615  0.60609  0.41542  Biso   1.000  N
  C326     1.0000 0.92580  0.72700  0.46160  Biso   1.000  C
  H925     1.0000 0.91390  0.73980  0.44880  Biso   1.000  H
  H926     1.0000 0.92090  0.73170  0.48220  Biso   1.000  H
  C327     1.0000 0.90530  0.64320  0.36860  Biso   1.000  C
  H927     1.0000 0.92310  0.63340  0.36100  Biso   1.000  H
  H928     1.0000 0.91060  0.66370  0.37350  Biso   1.000  H
  H929     1.0000 0.90380  0.58660  0.37900  Biso   1.000  H
  C328     1.0000 0.98540  0.62280  0.39010  Biso   1.000  C
  H930     1.0000 0.98860  0.64350  0.39580  Biso   1.000  H
  H931     1.0000 0.96990  0.62220  0.37500  Biso   1.000  H
  C329     1.0000 0.00050  0.60620  0.43760  Biso   1.000  C
  H932     1.0000 0.99450  0.59490  0.45510  Biso   1.000  H
  H933     1.0000 0.00470  0.62660  0.44380  Biso   1.000  H
  C330     1.0000 0.97200  0.57550  0.40740  Biso   1.000  C
  H934     1.0000 0.95560  0.57400  0.39320  Biso   1.000  H
  H935     1.0000 0.96660  0.56410  0.42510  Biso   1.000  H
  H936     1.0000 0.87360  0.31400  0.91110  Biso   1.000  H
  H937     1.0000 0.90240  0.31040  0.96440  Biso   1.000  H
  H938     1.0000 0.97050  0.21700  0.99540  Biso   1.000  H
  H939     1.0000 0.98490  0.17060  0.96000  Biso   1.000  H
  C331     1.0000 0.91830  0.19430  0.95520  Biso   1.000  C
  H940     1.0000 0.91110  0.18480  0.97340  Biso   1.000  H
  H941     1.0000 0.90250  0.19320  0.94040  Biso   1.000  H
  N56      1.0000 0.97615  0.10609  0.91542  Biso   1.000  N
  C332     1.0000 0.92580  0.22700  0.96160  Biso   1.000  C
  H942     1.0000 0.91390  0.23980  0.94880  Biso   1.000  H
  H943     1.0000 0.92090  0.23170  0.98220  Biso   1.000  H
  C333     1.0000 0.90530  0.14320  0.86860  Biso   1.000  C
  H944     1.0000 0.92310  0.13340  0.86100  Biso   1.000  H
  H945     1.0000 0.91060  0.16370  0.87350  Biso   1.000  H
  H946     1.0000 0.90380  0.08660  0.87900  Biso   1.000  H
  C334     1.0000 0.98540  0.12280  0.89010  Biso   1.000  C
  H947     1.0000 0.98860  0.14350  0.89580  Biso   1.000  H
  H948     1.0000 0.96990  0.12220  0.87500  Biso   1.000  H
  C335     1.0000 0.00050  0.10620  0.93760  Biso   1.000  C
  H949     1.0000 0.99450  0.09490  0.95510  Biso   1.000  H
  H950     1.0000 0.00470  0.12660  0.94380  Biso   1.000  H
  C336     1.0000 0.97200  0.07550  0.90740  Biso   1.000  C
  H951     1.0000 0.95560  0.07400  0.89320  Biso   1.000  H
  H952     1.0000 0.96660  0.06410  0.92510  Biso   1.000  H
  H953     1.0000 0.87640  0.31400  0.83890  Biso   1.000  H
  H954     1.0000 0.84760  0.31040  0.78560  Biso   1.000  H
  H955     1.0000 0.77950  0.21700  0.75460  Biso   1.000  H
  H956     1.0000 0.76510  0.17060  0.79000  Biso   1.000  H
  C337     1.0000 0.83170  0.19430  0.79480  Biso   1.000  C
  H957     1.0000 0.83890  0.18480  0.77660  Biso   1.000  H
  H958     1.0000 0.84750  0.19320  0.80960  Biso   1.000  H
  N57      1.0000 0.77385  0.10609  0.83458  Biso   1.000  N
  C338     1.0000 0.82420  0.22700  0.78840  Biso   1.000  C
  H959     1.0000 0.83610  0.23980  0.80120  Biso   1.000  H
  H960     1.0000 0.82910  0.23170  0.76780  Biso   1.000  H
  C339     1.0000 0.84470  0.14320  0.88140  Biso   1.000  C
  H961     1.0000 0.82690  0.13340  0.88900  Biso   1.000  H
  H962     1.0000 0.83940  0.16370  0.87650  Biso   1.000  H
  H963     1.0000 0.84620  0.08660  0.87100  Biso   1.000  H
  C340     1.0000 0.76460  0.12280  0.85990  Biso   1.000  C
  H964     1.0000 0.76140  0.14350  0.85420  Biso   1.000  H
  H965     1.0000 0.78010  0.12220  0.87500  Biso   1.000  H
  C341     1.0000 0.74950  0.10620  0.81240  Biso   1.000  C
  H966     1.0000 0.75550  0.09490  0.79490  Biso   1.000  H
  H967     1.0000 0.74530  0.12660  0.80620  Biso   1.000  H
  C342     1.0000 0.77800  0.07550  0.84260  Biso   1.000  C
  H968     1.0000 0.79440  0.07400  0.85680  Biso   1.000  H
  H969     1.0000 0.78340  0.06410  0.82490  Biso   1.000  H
  H970     1.0000 0.87640  0.81400  0.33890  Biso   1.000  H
  H971     1.0000 0.84760  0.81040  0.28560  Biso   1.000  H
  H972     1.0000 0.77950  0.71700  0.25460  Biso   1.000  H
  H973     1.0000 0.76510  0.67060  0.29000  Biso   1.000  H
  C343     1.0000 0.83170  0.69430  0.29480  Biso   1.000  C
  H974     1.0000 0.83890  0.68480  0.27660  Biso   1.000  H
  H975     1.0000 0.84750  0.69320  0.30960  Biso   1.000  H
  N58      1.0000 0.77385  0.60609  0.33458  Biso   1.000  N
  C344     1.0000 0.82420  0.72700  0.28840  Biso   1.000  C
  H976     1.0000 0.83610  0.73980  0.30120  Biso   1.000  H
  H977     1.0000 0.82910  0.73170  0.26780  Biso   1.000  H
  C345     1.0000 0.84470  0.64320  0.38140  Biso   1.000  C
  H978     1.0000 0.82690  0.63340  0.38900  Biso   1.000  H
  H979     1.0000 0.83940  0.66370  0.37650  Biso   1.000  H
  H980     1.0000 0.84620  0.58660  0.37100  Biso   1.000  H
  C346     1.0000 0.76460  0.62280  0.35990  Biso   1.000  C
  H981     1.0000 0.76140  0.64350  0.35420  Biso   1.000  H
  H982     1.0000 0.78010  0.62220  0.37500  Biso   1.000  H
  C347     1.0000 0.74950  0.60620  0.31240  Biso   1.000  C
  H983     1.0000 0.75550  0.59490  0.29490  Biso   1.000  H
  H984     1.0000 0.74530  0.62660  0.30620  Biso   1.000  H
  C348     1.0000 0.77800  0.57550  0.34260  Biso   1.000  C
  H985     1.0000 0.79440  0.57400  0.35680  Biso   1.000  H
  H986     1.0000 0.78340  0.56410  0.32490  Biso   1.000  H
  H987     1.0000 0.37640  0.31400  0.33890  Biso   1.000  H
  H988     1.0000 0.34760  0.31040  0.28560  Biso   1.000  H
  H989     1.0000 0.27950  0.21700  0.25460  Biso   1.000  H
  H990     1.0000 0.26510  0.17060  0.29000  Biso   1.000  H
  C349     1.0000 0.33170  0.19430  0.29480  Biso   1.000  C
  H991     1.0000 0.33890  0.18480  0.27660  Biso   1.000  H
  H992     1.0000 0.34750  0.19320  0.30960  Biso   1.000  H
  N59      1.0000 0.27385  0.10609  0.33458  Biso   1.000  N
  C350     1.0000 0.32420  0.22700  0.28840  Biso   1.000  C
  H993     1.0000 0.33610  0.23980  0.30120  Biso   1.000  H
  H994     1.0000 0.32910  0.23170  0.26780  Biso   1.000  H
  C351     1.0000 0.34470  0.14320  0.38140  Biso   1.000  C
  H995     1.0000 0.32690  0.13340  0.38900  Biso   1.000  H
  H996     1.0000 0.33940  0.16370  0.37650  Biso   1.000  H
  H997     1.0000 0.34620  0.08660  0.37100  Biso   1.000  H
  C352     1.0000 0.26460  0.12280  0.35990  Biso   1.000  C
  H998     1.0000 0.26140  0.14350  0.35420  Biso   1.000  H
  H999     1.0000 0.28010  0.12220  0.37500  Biso   1.000  H
  C353     1.0000 0.24950  0.10620  0.31240  Biso   1.000  C
  H1000    1.0000 0.25550  0.09490  0.29490  Biso   1.000  H
  H1001    1.0000 0.24530  0.12660  0.30620  Biso   1.000  H
  C354     1.0000 0.27800  0.07550  0.34260  Biso   1.000  C
  H1002    1.0000 0.29440  0.07400  0.35680  Biso   1.000  H
  H1003    1.0000 0.28340  0.06410  0.32490  Biso   1.000  H
  H1004    1.0000 0.37640  0.81400  0.83890  Biso   1.000  H
  H1005    1.0000 0.34760  0.81040  0.78560  Biso   1.000  H
  H1006    1.0000 0.27950  0.71700  0.75460  Biso   1.000  H
  H1007    1.0000 0.26510  0.67060  0.79000  Biso   1.000  H
  C355     1.0000 0.33170  0.69430  0.79480  Biso   1.000  C
  H1008    1.0000 0.33890  0.68480  0.77660  Biso   1.000  H
  H1009    1.0000 0.34750  0.69320  0.80960  Biso   1.000  H
  N60      1.0000 0.27385  0.60609  0.83458  Biso   1.000  N
  C356     1.0000 0.32420  0.72700  0.78840  Biso   1.000  C
  H1010    1.0000 0.33610  0.73980  0.80120  Biso   1.000  H
  H1011    1.0000 0.32910  0.73170  0.76780  Biso   1.000  H
  C357     1.0000 0.34470  0.64320  0.88140  Biso   1.000  C
  H1012    1.0000 0.32690  0.63340  0.88900  Biso   1.000  H
  H1013    1.0000 0.33940  0.66370  0.87650  Biso   1.000  H
  H1014    1.0000 0.34620  0.58660  0.87100  Biso   1.000  H
  C358     1.0000 0.26460  0.62280  0.85990  Biso   1.000  C
  H1015    1.0000 0.26140  0.64350  0.85420  Biso   1.000  H
  H1016    1.0000 0.28010  0.62220  0.87500  Biso   1.000  H
  C359     1.0000 0.24950  0.60620  0.81240  Biso   1.000  C
  H1017    1.0000 0.25550  0.59490  0.79490  Biso   1.000  H
  H1018    1.0000 0.24530  0.62660  0.80620  Biso   1.000  H
  C360     1.0000 0.27800  0.57550  0.84260  Biso   1.000  C
  H1019    1.0000 0.29440  0.57400  0.85680  Biso   1.000  H
  H1020    1.0000 0.28340  0.56410  0.82490  Biso   1.000  H
  H1021    1.0000 0.87360  0.93600  0.33890  Biso   1.000  H
  H1022    1.0000 0.90240  0.93960  0.28560  Biso   1.000  H
  H1023    1.0000 0.97050  0.03300  0.25460  Biso   1.000  H
  H1024    1.0000 0.98490  0.07940  0.29000  Biso   1.000  H
  C361     1.0000 0.91830  0.05570  0.29480  Biso   1.000  C
  H1025    1.0000 0.91110  0.06520  0.27660  Biso   1.000  H
  H1026    1.0000 0.90250  0.05680  0.30960  Biso   1.000  H
  N61      1.0000 0.97615  0.14391  0.33458  Biso   1.000  N
  C362     1.0000 0.92580  0.02300  0.28840  Biso   1.000  C
  H1027    1.0000 0.91390  0.01020  0.30120  Biso   1.000  H
  H1028    1.0000 0.92090  0.01830  0.26780  Biso   1.000  H
  C363     1.0000 0.90530  0.10680  0.38140  Biso   1.000  C
  H1029    1.0000 0.92310  0.11660  0.38900  Biso   1.000  H
  H1030    1.0000 0.91060  0.08630  0.37650  Biso   1.000  H
  H1031    1.0000 0.90380  0.16340  0.37100  Biso   1.000  H
  C364     1.0000 0.98540  0.12720  0.35990  Biso   1.000  C
  H1032    1.0000 0.98860  0.10650  0.35420  Biso   1.000  H
  H1033    1.0000 0.96990  0.12780  0.37500  Biso   1.000  H
  C365     1.0000 0.00050  0.14380  0.31240  Biso   1.000  C
  H1034    1.0000 0.99450  0.15510  0.29490  Biso   1.000  H
  H1035    1.0000 0.00470  0.12340  0.30620  Biso   1.000  H
  C366     1.0000 0.97200  0.17450  0.34260  Biso   1.000  C
  H1036    1.0000 0.95560  0.17600  0.35680  Biso   1.000  H
  H1037    1.0000 0.96660  0.18590  0.32490  Biso   1.000  H
  H1038    1.0000 0.87360  0.43600  0.83890  Biso   1.000  H
  H1039    1.0000 0.90240  0.43960  0.78560  Biso   1.000  H
  H1040    1.0000 0.97050  0.53300  0.75460  Biso   1.000  H
  H1041    1.0000 0.98490  0.57940  0.79000  Biso   1.000  H
  C367     1.0000 0.91830  0.55570  0.79480  Biso   1.000  C
  H1042    1.0000 0.91110  0.56520  0.77660  Biso   1.000  H
  H1043    1.0000 0.90250  0.55680  0.80960  Biso   1.000  H
  N62      1.0000 0.97615  0.64391  0.83458  Biso   1.000  N
  C368     1.0000 0.92580  0.52300  0.78840  Biso   1.000  C
  H1044    1.0000 0.91390  0.51020  0.80120  Biso   1.000  H
  H1045    1.0000 0.92090  0.51830  0.76780  Biso   1.000  H
  C369     1.0000 0.90530  0.60680  0.88140  Biso   1.000  C
  H1046    1.0000 0.92310  0.61660  0.88900  Biso   1.000  H
  H1047    1.0000 0.91060  0.58630  0.87650  Biso   1.000  H
  H1048    1.0000 0.90380  0.66340  0.87100  Biso   1.000  H
  C370     1.0000 0.98540  0.62720  0.85990  Biso   1.000  C
  H1049    1.0000 0.98860  0.60650  0.85420  Biso   1.000  H
  H1050    1.0000 0.96990  0.62780  0.87500  Biso   1.000  H
  C371     1.0000 0.00050  0.64380  0.81240  Biso   1.000  C
  H1051    1.0000 0.99450  0.65510  0.79490  Biso   1.000  H
  H1052    1.0000 0.00470  0.62340  0.80620  Biso   1.000  H
  C372     1.0000 0.97200  0.67450  0.84260  Biso   1.000  C
  H1053    1.0000 0.95560  0.67600  0.85680  Biso   1.000  H
  H1054    1.0000 0.96660  0.68590  0.82490  Biso   1.000  H
  H1055    1.0000 0.37360  0.93600  0.83890  Biso   1.000  H
  H1056    1.0000 0.40240  0.93960  0.78560  Biso   1.000  H
  H1057    1.0000 0.47050  0.03300  0.75460  Biso   1.000  H
  H1058    1.0000 0.48490  0.07940  0.79000  Biso   1.000  H
  C373     1.0000 0.41830  0.05570  0.79480  Biso   1.000  C
  H1059    1.0000 0.41110  0.06520  0.77660  Biso   1.000  H
  H1060    1.0000 0.40250  0.05680  0.80960  Biso   1.000  H
  N63      1.0000 0.47615  0.14391  0.83458  Biso   1.000  N
  C374     1.0000 0.42580  0.02300  0.78840  Biso   1.000  C
  H1061    1.0000 0.41390  0.01020  0.80120  Biso   1.000  H
  H1062    1.0000 0.42090  0.01830  0.76780  Biso   1.000  H
  C375     1.0000 0.40530  0.10680  0.88140  Biso   1.000  C
  H1063    1.0000 0.42310  0.11660  0.88900  Biso   1.000  H
  H1064    1.0000 0.41060  0.08630  0.87650  Biso   1.000  H
  H1065    1.0000 0.40380  0.16340  0.87100  Biso   1.000  H
  C376     1.0000 0.48540  0.12720  0.85990  Biso   1.000  C
  H1066    1.0000 0.48860  0.10650  0.85420  Biso   1.000  H
  H1067    1.0000 0.46990  0.12780  0.87500  Biso   1.000  H
  C377     1.0000 0.50050  0.14380  0.81240  Biso   1.000  C
  H1068    1.0000 0.49450  0.15510  0.79490  Biso   1.000  H
  H1069    1.0000 0.50470  0.12340  0.80620  Biso   1.000  H
  C378     1.0000 0.47200  0.17450  0.84260  Biso   1.000  C
  H1070    1.0000 0.45560  0.17600  0.85680  Biso   1.000  H
  H1071    1.0000 0.46660  0.18590  0.82490  Biso   1.000  H
  H1072    1.0000 0.37360  0.43600  0.33890  Biso   1.000  H
  H1073    1.0000 0.40240  0.43960  0.28560  Biso   1.000  H
  H1074    1.0000 0.47050  0.53300  0.25460  Biso   1.000  H
  H1075    1.0000 0.48490  0.57940  0.29000  Biso   1.000  H
  C379     1.0000 0.41830  0.55570  0.29480  Biso   1.000  C
  H1076    1.0000 0.41110  0.56520  0.27660  Biso   1.000  H
  H1077    1.0000 0.40250  0.55680  0.30960  Biso   1.000  H
  N64      1.0000 0.47615  0.64391  0.33458  Biso   1.000  N
  C380     1.0000 0.42580  0.52300  0.28840  Biso   1.000  C
  H1078    1.0000 0.41390  0.51020  0.30120  Biso   1.000  H
  H1079    1.0000 0.42090  0.51830  0.26780  Biso   1.000  H
  C381     1.0000 0.40530  0.60680  0.38140  Biso   1.000  C
  H1080    1.0000 0.42310  0.61660  0.38900  Biso   1.000  H
  H1081    1.0000 0.41060  0.58630  0.37650  Biso   1.000  H
  H1082    1.0000 0.40380  0.66340  0.37100  Biso   1.000  H
  C382     1.0000 0.48540  0.62720  0.35990  Biso   1.000  C
  H1083    1.0000 0.48860  0.60650  0.35420  Biso   1.000  H
  H1084    1.0000 0.46990  0.62780  0.37500  Biso   1.000  H
  C383     1.0000 0.50050  0.64380  0.31240  Biso   1.000  C
  H1085    1.0000 0.49450  0.65510  0.29490  Biso   1.000  H
  H1086    1.0000 0.50470  0.62340  0.30620  Biso   1.000  H
  C384     1.0000 0.47200  0.67450  0.34260  Biso   1.000  C
  H1087    1.0000 0.45560  0.67600  0.35680  Biso   1.000  H
  H1088    1.0000 0.46660  0.68590  0.32490  Biso   1.000  H
  H1089    1.0000 0.93600  0.33890  0.87360  Biso   1.000  H
  H1090    1.0000 0.93960  0.28560  0.90240  Biso   1.000  H
  H1091    1.0000 0.03300  0.25460  0.97050  Biso   1.000  H
  H1092    1.0000 0.07940  0.29000  0.98490  Biso   1.000  H
  C385     1.0000 0.05570  0.29480  0.91830  Biso   1.000  C
  H1093    1.0000 0.06520  0.27660  0.91110  Biso   1.000  H
  H1094    1.0000 0.05680  0.30960  0.90250  Biso   1.000  H
  N65      1.0000 0.14391  0.33458  0.97615  Biso   1.000  N
  C386     1.0000 0.02300  0.28840  0.92580  Biso   1.000  C
  H1095    1.0000 0.01020  0.30120  0.91390  Biso   1.000  H
  H1096    1.0000 0.01830  0.26780  0.92090  Biso   1.000  H
  C387     1.0000 0.10680  0.38140  0.90530  Biso   1.000  C
  H1097    1.0000 0.11660  0.38900  0.92310  Biso   1.000  H
  H1098    1.0000 0.08630  0.37650  0.91060  Biso   1.000  H
  H1099    1.0000 0.16340  0.37100  0.90380  Biso   1.000  H
  C388     1.0000 0.12720  0.35990  0.98540  Biso   1.000  C
  H1100    1.0000 0.10650  0.35420  0.98860  Biso   1.000  H
  H1101    1.0000 0.12780  0.37500  0.96990  Biso   1.000  H
  C389     1.0000 0.14380  0.31240  0.00050  Biso   1.000  C
  H1102    1.0000 0.15510  0.29490  0.99450  Biso   1.000  H
  H1103    1.0000 0.12340  0.30620  0.00470  Biso   1.000  H
  C390     1.0000 0.17450  0.34260  0.97200  Biso   1.000  C
  H1104    1.0000 0.17600  0.35680  0.95560  Biso   1.000  H
  H1105    1.0000 0.18590  0.32490  0.96660  Biso   1.000  H
  H1106    1.0000 0.93600  0.83890  0.37360  Biso   1.000  H
  H1107    1.0000 0.93960  0.78560  0.40240  Biso   1.000  H
  H1108    1.0000 0.03300  0.75460  0.47050  Biso   1.000  H
  H1109    1.0000 0.07940  0.79000  0.48490  Biso   1.000  H
  C391     1.0000 0.05570  0.79480  0.41830  Biso   1.000  C
  H1110    1.0000 0.06520  0.77660  0.41110  Biso   1.000  H
  H1111    1.0000 0.05680  0.80960  0.40250  Biso   1.000  H
  N66      1.0000 0.14391  0.83458  0.47615  Biso   1.000  N
  C392     1.0000 0.02300  0.78840  0.42580  Biso   1.000  C
  H1112    1.0000 0.01020  0.80120  0.41390  Biso   1.000  H
  H1113    1.0000 0.01830  0.76780  0.42090  Biso   1.000  H
  C393     1.0000 0.10680  0.88140  0.40530  Biso   1.000  C
  H1114    1.0000 0.11660  0.88900  0.42310  Biso   1.000  H
  H1115    1.0000 0.08630  0.87650  0.41060  Biso   1.000  H
  H1116    1.0000 0.16340  0.87100  0.40380  Biso   1.000  H
  C394     1.0000 0.12720  0.85990  0.48540  Biso   1.000  C
  H1117    1.0000 0.10650  0.85420  0.48860  Biso   1.000  H
  H1118    1.0000 0.12780  0.87500  0.46990  Biso   1.000  H
  C395     1.0000 0.14380  0.81240  0.50050  Biso   1.000  C
  H1119    1.0000 0.15510  0.79490  0.49450  Biso   1.000  H
  H1120    1.0000 0.12340  0.80620  0.50470  Biso   1.000  H
  C396     1.0000 0.17450  0.84260  0.47200  Biso   1.000  C
  H1121    1.0000 0.17600  0.85680  0.45560  Biso   1.000  H
  H1122    1.0000 0.18590  0.82490  0.46660  Biso   1.000  H
  H1123    1.0000 0.43600  0.33890  0.37360  Biso   1.000  H
  H1124    1.0000 0.43960  0.28560  0.40240  Biso   1.000  H
  H1125    1.0000 0.53300  0.25460  0.47050  Biso   1.000  H
  H1126    1.0000 0.57940  0.29000  0.48490  Biso   1.000  H
  C397     1.0000 0.55570  0.29480  0.41830  Biso   1.000  C
  H1127    1.0000 0.56520  0.27660  0.41110  Biso   1.000  H
  H1128    1.0000 0.55680  0.30960  0.40250  Biso   1.000  H
  N67      1.0000 0.64391  0.33458  0.47615  Biso   1.000  N
  C398     1.0000 0.52300  0.28840  0.42580  Biso   1.000  C
  H1129    1.0000 0.51020  0.30120  0.41390  Biso   1.000  H
  H1130    1.0000 0.51830  0.26780  0.42090  Biso   1.000  H
  C399     1.0000 0.60680  0.38140  0.40530  Biso   1.000  C
  H1131    1.0000 0.61660  0.38900  0.42310  Biso   1.000  H
  H1132    1.0000 0.58630  0.37650  0.41060  Biso   1.000  H
  H1133    1.0000 0.66340  0.37100  0.40380  Biso   1.000  H
  C400     1.0000 0.62720  0.35990  0.48540  Biso   1.000  C
  H1134    1.0000 0.60650  0.35420  0.48860  Biso   1.000  H
  H1135    1.0000 0.62780  0.37500  0.46990  Biso   1.000  H
  C401     1.0000 0.64380  0.31240  0.50050  Biso   1.000  C
  H1136    1.0000 0.65510  0.29490  0.49450  Biso   1.000  H
  H1137    1.0000 0.62340  0.30620  0.50470  Biso   1.000  H
  C402     1.0000 0.67450  0.34260  0.47200  Biso   1.000  C
  H1138    1.0000 0.67600  0.35680  0.45560  Biso   1.000  H
  H1139    1.0000 0.68590  0.32490  0.46660  Biso   1.000  H
  H1140    1.0000 0.43600  0.83890  0.87360  Biso   1.000  H
  H1141    1.0000 0.43960  0.78560  0.90240  Biso   1.000  H
  H1142    1.0000 0.53300  0.75460  0.97050  Biso   1.000  H
  H1143    1.0000 0.57940  0.79000  0.98490  Biso   1.000  H
  C403     1.0000 0.55570  0.79480  0.91830  Biso   1.000  C
  H1144    1.0000 0.56520  0.77660  0.91110  Biso   1.000  H
  H1145    1.0000 0.55680  0.80960  0.90250  Biso   1.000  H
  N68      1.0000 0.64391  0.83458  0.97615  Biso   1.000  N
  C404     1.0000 0.52300  0.78840  0.92580  Biso   1.000  C
  H1146    1.0000 0.51020  0.80120  0.91390  Biso   1.000  H
  H1147    1.0000 0.51830  0.76780  0.92090  Biso   1.000  H
  C405     1.0000 0.60680  0.88140  0.90530  Biso   1.000  C
  H1148    1.0000 0.61660  0.88900  0.92310  Biso   1.000  H
  H1149    1.0000 0.58630  0.87650  0.91060  Biso   1.000  H
  H1150    1.0000 0.66340  0.87100  0.90380  Biso   1.000  H
  C406     1.0000 0.62720  0.85990  0.98540  Biso   1.000  C
  H1151    1.0000 0.60650  0.85420  0.98860  Biso   1.000  H
  H1152    1.0000 0.62780  0.87500  0.96990  Biso   1.000  H
  C407     1.0000 0.64380  0.81240  0.00050  Biso   1.000  C
  H1153    1.0000 0.65510  0.79490  0.99450  Biso   1.000  H
  H1154    1.0000 0.62340  0.80620  0.00470  Biso   1.000  H
  C408     1.0000 0.67450  0.84260  0.97200  Biso   1.000  C
  H1155    1.0000 0.67600  0.85680  0.95560  Biso   1.000  H
  H1156    1.0000 0.68590  0.82490  0.96660  Biso   1.000  H
  H1157    1.0000 0.31400  0.83890  0.87640  Biso   1.000  H
  H1158    1.0000 0.31040  0.78560  0.84760  Biso   1.000  H
  H1159    1.0000 0.21700  0.75460  0.77950  Biso   1.000  H
  H1160    1.0000 0.17060  0.79000  0.76510  Biso   1.000  H
  C409     1.0000 0.19430  0.79480  0.83170  Biso   1.000  C
  H1161    1.0000 0.18480  0.77660  0.83890  Biso   1.000  H
  H1162    1.0000 0.19320  0.80960  0.84750  Biso   1.000  H
  N69      1.0000 0.10609  0.83458  0.77385  Biso   1.000  N
  C410     1.0000 0.22700  0.78840  0.82420  Biso   1.000  C
  H1163    1.0000 0.23980  0.80120  0.83610  Biso   1.000  H
  H1164    1.0000 0.23170  0.76780  0.82910  Biso   1.000  H
  C411     1.0000 0.14320  0.88140  0.84470  Biso   1.000  C
  H1165    1.0000 0.13340  0.88900  0.82690  Biso   1.000  H
  H1166    1.0000 0.16370  0.87650  0.83940  Biso   1.000  H
  H1167    1.0000 0.08660  0.87100  0.84620  Biso   1.000  H
  C412     1.0000 0.12280  0.85990  0.76460  Biso   1.000  C
  H1168    1.0000 0.14350  0.85420  0.76140  Biso   1.000  H
  H1169    1.0000 0.12220  0.87500  0.78010  Biso   1.000  H
  C413     1.0000 0.10620  0.81240  0.74950  Biso   1.000  C
  H1170    1.0000 0.09490  0.79490  0.75550  Biso   1.000  H
  H1171    1.0000 0.12660  0.80620  0.74530  Biso   1.000  H
  C414     1.0000 0.07550  0.84260  0.77800  Biso   1.000  C
  H1172    1.0000 0.07400  0.85680  0.79440  Biso   1.000  H
  H1173    1.0000 0.06410  0.82490  0.78340  Biso   1.000  H
  H1174    1.0000 0.31400  0.33890  0.37640  Biso   1.000  H
  H1175    1.0000 0.31040  0.28560  0.34760  Biso   1.000  H
  H1176    1.0000 0.21700  0.25460  0.27950  Biso   1.000  H
  H1177    1.0000 0.17060  0.29000  0.26510  Biso   1.000  H
  C415     1.0000 0.19430  0.29480  0.33170  Biso   1.000  C
  H1178    1.0000 0.18480  0.27660  0.33890  Biso   1.000  H
  H1179    1.0000 0.19320  0.30960  0.34750  Biso   1.000  H
  N70      1.0000 0.10609  0.33458  0.27385  Biso   1.000  N
  C416     1.0000 0.22700  0.28840  0.32420  Biso   1.000  C
  H1180    1.0000 0.23980  0.30120  0.33610  Biso   1.000  H
  H1181    1.0000 0.23170  0.26780  0.32910  Biso   1.000  H
  C417     1.0000 0.14320  0.38140  0.34470  Biso   1.000  C
  H1182    1.0000 0.13340  0.38900  0.32690  Biso   1.000  H
  H1183    1.0000 0.16370  0.37650  0.33940  Biso   1.000  H
  H1184    1.0000 0.08660  0.37100  0.34620  Biso   1.000  H
  C418     1.0000 0.12280  0.35990  0.26460  Biso   1.000  C
  H1185    1.0000 0.14350  0.35420  0.26140  Biso   1.000  H
  H1186    1.0000 0.12220  0.37500  0.28010  Biso   1.000  H
  C419     1.0000 0.10620  0.31240  0.24950  Biso   1.000  C
  H1187    1.0000 0.09490  0.29490  0.25550  Biso   1.000  H
  H1188    1.0000 0.12660  0.30620  0.24530  Biso   1.000  H
  C420     1.0000 0.07550  0.34260  0.27800  Biso   1.000  C
  H1189    1.0000 0.07400  0.35680  0.29440  Biso   1.000  H
  H1190    1.0000 0.06410  0.32490  0.28340  Biso   1.000  H
  H1191    1.0000 0.81400  0.83890  0.37640  Biso   1.000  H
  H1192    1.0000 0.81040  0.78560  0.34760  Biso   1.000  H
  H1193    1.0000 0.71700  0.75460  0.27950  Biso   1.000  H
  H1194    1.0000 0.67060  0.79000  0.26510  Biso   1.000  H
  C421     1.0000 0.69430  0.79480  0.33170  Biso   1.000  C
  H1195    1.0000 0.68480  0.77660  0.33890  Biso   1.000  H
  H1196    1.0000 0.69320  0.80960  0.34750  Biso   1.000  H
  N71      1.0000 0.60609  0.83458  0.27385  Biso   1.000  N
  C422     1.0000 0.72700  0.78840  0.32420  Biso   1.000  C
  H1197    1.0000 0.73980  0.80120  0.33610  Biso   1.000  H
  H1198    1.0000 0.73170  0.76780  0.32910  Biso   1.000  H
  C423     1.0000 0.64320  0.88140  0.34470  Biso   1.000  C
  H1199    1.0000 0.63340  0.88900  0.32690  Biso   1.000  H
  H1200    1.0000 0.66370  0.87650  0.33940  Biso   1.000  H
  H1201    1.0000 0.58660  0.87100  0.34620  Biso   1.000  H
  C424     1.0000 0.62280  0.85990  0.26460  Biso   1.000  C
  H1202    1.0000 0.64350  0.85420  0.26140  Biso   1.000  H
  H1203    1.0000 0.62220  0.87500  0.28010  Biso   1.000  H
  C425     1.0000 0.60620  0.81240  0.24950  Biso   1.000  C
  H1204    1.0000 0.59490  0.79490  0.25550  Biso   1.000  H
  H1205    1.0000 0.62660  0.80620  0.24530  Biso   1.000  H
  C426     1.0000 0.57550  0.84260  0.27800  Biso   1.000  C
  H1206    1.0000 0.57400  0.85680  0.29440  Biso   1.000  H
  H1207    1.0000 0.56410  0.82490  0.28340  Biso   1.000  H
  H1208    1.0000 0.81400  0.33890  0.87640  Biso   1.000  H
  H1209    1.0000 0.81040  0.28560  0.84760  Biso   1.000  H
  H1210    1.0000 0.71700  0.25460  0.77950  Biso   1.000  H
  H1211    1.0000 0.67060  0.29000  0.76510  Biso   1.000  H
  C427     1.0000 0.69430  0.29480  0.83170  Biso   1.000  C
  H1212    1.0000 0.68480  0.27660  0.83890  Biso   1.000  H
  H1213    1.0000 0.69320  0.30960  0.84750  Biso   1.000  H
  N72      1.0000 0.60609  0.33458  0.77385  Biso   1.000  N
  C428     1.0000 0.72700  0.28840  0.82420  Biso   1.000  C
  H1214    1.0000 0.73980  0.30120  0.83610  Biso   1.000  H
  H1215    1.0000 0.73170  0.26780  0.82910  Biso   1.000  H
  C429     1.0000 0.64320  0.38140  0.84470  Biso   1.000  C
  H1216    1.0000 0.63340  0.38900  0.82690  Biso   1.000  H
  H1217    1.0000 0.66370  0.37650  0.83940  Biso   1.000  H
  H1218    1.0000 0.58660  0.37100  0.84620  Biso   1.000  H
  C430     1.0000 0.62280  0.35990  0.76460  Biso   1.000  C
  H1219    1.0000 0.64350  0.35420  0.76140  Biso   1.000  H
  H1220    1.0000 0.62220  0.37500  0.78010  Biso   1.000  H
  C431     1.0000 0.60620  0.31240  0.74950  Biso   1.000  C
  H1221    1.0000 0.59490  0.29490  0.75550  Biso   1.000  H
  H1222    1.0000 0.62660  0.30620  0.74530  Biso   1.000  H
  C432     1.0000 0.57550  0.34260  0.77800  Biso   1.000  C
  H1223    1.0000 0.57400  0.35680  0.79440  Biso   1.000  H
  H1224    1.0000 0.56410  0.32490  0.78340  Biso   1.000  H
  H1225    1.0000 0.81400  0.91110  0.37360  Biso   1.000  H
  H1226    1.0000 0.81040  0.96440  0.40240  Biso   1.000  H
  H1227    1.0000 0.71700  0.99540  0.47050  Biso   1.000  H
  H1228    1.0000 0.67060  0.96000  0.48490  Biso   1.000  H
  C433     1.0000 0.69430  0.95520  0.41830  Biso   1.000  C
  H1229    1.0000 0.68480  0.97340  0.41110  Biso   1.000  H
  H1230    1.0000 0.69320  0.94040  0.40250  Biso   1.000  H
  N73      1.0000 0.60609  0.91542  0.47615  Biso   1.000  N
  C434     1.0000 0.72700  0.96160  0.42580  Biso   1.000  C
  H1231    1.0000 0.73980  0.94880  0.41390  Biso   1.000  H
  H1232    1.0000 0.73170  0.98220  0.42090  Biso   1.000  H
  C435     1.0000 0.64320  0.86860  0.40530  Biso   1.000  C
  H1233    1.0000 0.63340  0.86100  0.42310  Biso   1.000  H
  H1234    1.0000 0.66370  0.87350  0.41060  Biso   1.000  H
  H1235    1.0000 0.58660  0.87900  0.40380  Biso   1.000  H
  C436     1.0000 0.62280  0.89010  0.48540  Biso   1.000  C
  H1236    1.0000 0.64350  0.89580  0.48860  Biso   1.000  H
  H1237    1.0000 0.62220  0.87500  0.46990  Biso   1.000  H
  C437     1.0000 0.60620  0.93760  0.50050  Biso   1.000  C
  H1238    1.0000 0.59490  0.95510  0.49450  Biso   1.000  H
  H1239    1.0000 0.62660  0.94380  0.50470  Biso   1.000  H
  C438     1.0000 0.57550  0.90740  0.47200  Biso   1.000  C
  H1240    1.0000 0.57400  0.89320  0.45560  Biso   1.000  H
  H1241    1.0000 0.56410  0.92510  0.46660  Biso   1.000  H
  H1242    1.0000 0.81400  0.41110  0.87360  Biso   1.000  H
  H1243    1.0000 0.81040  0.46440  0.90240  Biso   1.000  H
  H1244    1.0000 0.71700  0.49540  0.97050  Biso   1.000  H
  H1245    1.0000 0.67060  0.46000  0.98490  Biso   1.000  H
  C439     1.0000 0.69430  0.45520  0.91830  Biso   1.000  C
  H1246    1.0000 0.68480  0.47340  0.91110  Biso   1.000  H
  H1247    1.0000 0.69320  0.44040  0.90250  Biso   1.000  H
  N74      1.0000 0.60609  0.41542  0.97615  Biso   1.000  N
  C440     1.0000 0.72700  0.46160  0.92580  Biso   1.000  C
  H1248    1.0000 0.73980  0.44880  0.91390  Biso   1.000  H
  H1249    1.0000 0.73170  0.48220  0.92090  Biso   1.000  H
  C441     1.0000 0.64320  0.36860  0.90530  Biso   1.000  C
  H1250    1.0000 0.63340  0.36100  0.92310  Biso   1.000  H
  H1251    1.0000 0.66370  0.37350  0.91060  Biso   1.000  H
  H1252    1.0000 0.58660  0.37900  0.90380  Biso   1.000  H
  C442     1.0000 0.62280  0.39010  0.98540  Biso   1.000  C
  H1253    1.0000 0.64350  0.39580  0.98860  Biso   1.000  H
  H1254    1.0000 0.62220  0.37500  0.96990  Biso   1.000  H
  C443     1.0000 0.60620  0.43760  0.00050  Biso   1.000  C
  H1255    1.0000 0.59490  0.45510  0.99450  Biso   1.000  H
  H1256    1.0000 0.62660  0.44380  0.00470  Biso   1.000  H
  C444     1.0000 0.57550  0.40740  0.97200  Biso   1.000  C
  H1257    1.0000 0.57400  0.39320  0.95560  Biso   1.000  H
  H1258    1.0000 0.56410  0.42510  0.96660  Biso   1.000  H
  H1259    1.0000 0.31400  0.91110  0.87360  Biso   1.000  H
  H1260    1.0000 0.31040  0.96440  0.90240  Biso   1.000  H
  H1261    1.0000 0.21700  0.99540  0.97050  Biso   1.000  H
  H1262    1.0000 0.17060  0.96000  0.98490  Biso   1.000  H
  C445     1.0000 0.19430  0.95520  0.91830  Biso   1.000  C
  H1263    1.0000 0.18480  0.97340  0.91110  Biso   1.000  H
  H1264    1.0000 0.19320  0.94040  0.90250  Biso   1.000  H
  N75      1.0000 0.10609  0.91542  0.97615  Biso   1.000  N
  C446     1.0000 0.22700  0.96160  0.92580  Biso   1.000  C
  H1265    1.0000 0.23980  0.94880  0.91390  Biso   1.000  H
  H1266    1.0000 0.23170  0.98220  0.92090  Biso   1.000  H
  C447     1.0000 0.14320  0.86860  0.90530  Biso   1.000  C
  H1267    1.0000 0.13340  0.86100  0.92310  Biso   1.000  H
  H1268    1.0000 0.16370  0.87350  0.91060  Biso   1.000  H
  H1269    1.0000 0.08660  0.87900  0.90380  Biso   1.000  H
  C448     1.0000 0.12280  0.89010  0.98540  Biso   1.000  C
  H1270    1.0000 0.14350  0.89580  0.98860  Biso   1.000  H
  H1271    1.0000 0.12220  0.87500  0.96990  Biso   1.000  H
  C449     1.0000 0.10620  0.93760  0.00050  Biso   1.000  C
  H1272    1.0000 0.09490  0.95510  0.99450  Biso   1.000  H
  H1273    1.0000 0.12660  0.94380  0.00470  Biso   1.000  H
  C450     1.0000 0.07550  0.90740  0.97200  Biso   1.000  C
  H1274    1.0000 0.07400  0.89320  0.95560  Biso   1.000  H
  H1275    1.0000 0.06410  0.92510  0.96660  Biso   1.000  H
  H1276    1.0000 0.31400  0.41110  0.37360  Biso   1.000  H
  H1277    1.0000 0.31040  0.46440  0.40240  Biso   1.000  H
  H1278    1.0000 0.21700  0.49540  0.47050  Biso   1.000  H
  H1279    1.0000 0.17060  0.46000  0.48490  Biso   1.000  H
  C451     1.0000 0.19430  0.45520  0.41830  Biso   1.000  C
  H1280    1.0000 0.18480  0.47340  0.41110  Biso   1.000  H
  H1281    1.0000 0.19320  0.44040  0.40250  Biso   1.000  H
  N76      1.0000 0.10609  0.41542  0.47615  Biso   1.000  N
  C452     1.0000 0.22700  0.46160  0.42580  Biso   1.000  C
  H1282    1.0000 0.23980  0.44880  0.41390  Biso   1.000  H
  H1283    1.0000 0.23170  0.48220  0.42090  Biso   1.000  H
  C453     1.0000 0.14320  0.36860  0.40530  Biso   1.000  C
  H1284    1.0000 0.13340  0.36100  0.42310  Biso   1.000  H
  H1285    1.0000 0.16370  0.37350  0.41060  Biso   1.000  H
  H1286    1.0000 0.08660  0.37900  0.40380  Biso   1.000  H
  C454     1.0000 0.12280  0.39010  0.48540  Biso   1.000  C
  H1287    1.0000 0.14350  0.39580  0.48860  Biso   1.000  H
  H1288    1.0000 0.12220  0.37500  0.46990  Biso   1.000  H
  C455     1.0000 0.10620  0.43760  0.50050  Biso   1.000  C
  H1289    1.0000 0.09490  0.45510  0.49450  Biso   1.000  H
  H1290    1.0000 0.12660  0.44380  0.50470  Biso   1.000  H
  C456     1.0000 0.07550  0.40740  0.47200  Biso   1.000  C
  H1291    1.0000 0.07400  0.39320  0.45560  Biso   1.000  H
  H1292    1.0000 0.06410  0.42510  0.46660  Biso   1.000  H
  H1293    1.0000 0.43600  0.41110  0.37640  Biso   1.000  H
  H1294    1.0000 0.43960  0.46440  0.34760  Biso   1.000  H
  H1295    1.0000 0.53300  0.49540  0.27950  Biso   1.000  H
  H1296    1.0000 0.57940  0.46000  0.26510  Biso   1.000  H
  C457     1.0000 0.55570  0.45520  0.33170  Biso   1.000  C
  H1297    1.0000 0.56520  0.47340  0.33890  Biso   1.000  H
  H1298    1.0000 0.55680  0.44040  0.34750  Biso   1.000  H
  N77      1.0000 0.64391  0.41542  0.27385  Biso   1.000  N
  C458     1.0000 0.52300  0.46160  0.32420  Biso   1.000  C
  H1299    1.0000 0.51020  0.44880  0.33610  Biso   1.000  H
  H1300    1.0000 0.51830  0.48220  0.32910  Biso   1.000  H
  C459     1.0000 0.60680  0.36860  0.34470  Biso   1.000  C
  H1301    1.0000 0.61660  0.36100  0.32690  Biso   1.000  H
  H1302    1.0000 0.58630  0.37350  0.33940  Biso   1.000  H
  H1303    1.0000 0.66340  0.37900  0.34620  Biso   1.000  H
  C460     1.0000 0.62720  0.39010  0.26460  Biso   1.000  C
  H1304    1.0000 0.60650  0.39580  0.26140  Biso   1.000  H
  H1305    1.0000 0.62780  0.37500  0.28010  Biso   1.000  H
  C461     1.0000 0.64380  0.43760  0.24950  Biso   1.000  C
  H1306    1.0000 0.65510  0.45510  0.25550  Biso   1.000  H
  H1307    1.0000 0.62340  0.44380  0.24530  Biso   1.000  H
  C462     1.0000 0.67450  0.40740  0.27800  Biso   1.000  C
  H1308    1.0000 0.67600  0.39320  0.29440  Biso   1.000  H
  H1309    1.0000 0.68590  0.42510  0.28340  Biso   1.000  H
  H1310    1.0000 0.43600  0.91110  0.87640  Biso   1.000  H
  H1311    1.0000 0.43960  0.96440  0.84760  Biso   1.000  H
  H1312    1.0000 0.53300  0.99540  0.77950  Biso   1.000  H
  H1313    1.0000 0.57940  0.96000  0.76510  Biso   1.000  H
  C463     1.0000 0.55570  0.95520  0.83170  Biso   1.000  C
  H1314    1.0000 0.56520  0.97340  0.83890  Biso   1.000  H
  H1315    1.0000 0.55680  0.94040  0.84750  Biso   1.000  H
  N78      1.0000 0.64391  0.91542  0.77385  Biso   1.000  N
  C464     1.0000 0.52300  0.96160  0.82420  Biso   1.000  C
  H1316    1.0000 0.51020  0.94880  0.83610  Biso   1.000  H
  H1317    1.0000 0.51830  0.98220  0.82910  Biso   1.000  H
  C465     1.0000 0.60680  0.86860  0.84470  Biso   1.000  C
  H1318    1.0000 0.61660  0.86100  0.82690  Biso   1.000  H
  H1319    1.0000 0.58630  0.87350  0.83940  Biso   1.000  H
  H1320    1.0000 0.66340  0.87900  0.84620  Biso   1.000  H
  C466     1.0000 0.62720  0.89010  0.76460  Biso   1.000  C
  H1321    1.0000 0.60650  0.89580  0.76140  Biso   1.000  H
  H1322    1.0000 0.62780  0.87500  0.78010  Biso   1.000  H
  C467     1.0000 0.64380  0.93760  0.74950  Biso   1.000  C
  H1323    1.0000 0.65510  0.95510  0.75550  Biso   1.000  H
  H1324    1.0000 0.62340  0.94380  0.74530  Biso   1.000  H
  C468     1.0000 0.67450  0.90740  0.77800  Biso   1.000  C
  H1325    1.0000 0.67600  0.89320  0.79440  Biso   1.000  H
  H1326    1.0000 0.68590  0.92510  0.78340  Biso   1.000  H
  H1327    1.0000 0.93600  0.41110  0.87640  Biso   1.000  H
  H1328    1.0000 0.93960  0.46440  0.84760  Biso   1.000  H
  H1329    1.0000 0.03300  0.49540  0.77950  Biso   1.000  H
  H1330    1.0000 0.07940  0.46000  0.76510  Biso   1.000  H
  C469     1.0000 0.05570  0.45520  0.83170  Biso   1.000  C
  H1331    1.0000 0.06520  0.47340  0.83890  Biso   1.000  H
  H1332    1.0000 0.05680  0.44040  0.84750  Biso   1.000  H
  N79      1.0000 0.14391  0.41542  0.77385  Biso   1.000  N
  C470     1.0000 0.02300  0.46160  0.82420  Biso   1.000  C
  H1333    1.0000 0.01020  0.44880  0.83610  Biso   1.000  H
  H1334    1.0000 0.01830  0.48220  0.82910  Biso   1.000  H
  C471     1.0000 0.10680  0.36860  0.84470  Biso   1.000  C
  H1335    1.0000 0.11660  0.36100  0.82690  Biso   1.000  H
  H1336    1.0000 0.08630  0.37350  0.83940  Biso   1.000  H
  H1337    1.0000 0.16340  0.37900  0.84620  Biso   1.000  H
  C472     1.0000 0.12720  0.39010  0.76460  Biso   1.000  C
  H1338    1.0000 0.10650  0.39580  0.76140  Biso   1.000  H
  H1339    1.0000 0.12780  0.37500  0.78010  Biso   1.000  H
  C473     1.0000 0.14380  0.43760  0.74950  Biso   1.000  C
  H1340    1.0000 0.15510  0.45510  0.75550  Biso   1.000  H
  H1341    1.0000 0.12340  0.44380  0.74530  Biso   1.000  H
  C474     1.0000 0.17450  0.40740  0.77800  Biso   1.000  C
  H1342    1.0000 0.17600  0.39320  0.79440  Biso   1.000  H
  H1343    1.0000 0.18590  0.42510  0.78340  Biso   1.000  H
  H1344    1.0000 0.93600  0.91110  0.37640  Biso   1.000  H
  H1345    1.0000 0.93960  0.96440  0.34760  Biso   1.000  H
  H1346    1.0000 0.03300  0.99540  0.27950  Biso   1.000  H
  H1347    1.0000 0.07940  0.96000  0.26510  Biso   1.000  H
  C475     1.0000 0.05570  0.95520  0.33170  Biso   1.000  C
  H1348    1.0000 0.06520  0.97340  0.33890  Biso   1.000  H
  H1349    1.0000 0.05680  0.94040  0.34750  Biso   1.000  H
  N80      1.0000 0.14391  0.91542  0.27385  Biso   1.000  N
  C476     1.0000 0.02300  0.96160  0.32420  Biso   1.000  C
  H1350    1.0000 0.01020  0.94880  0.33610  Biso   1.000  H
  H1351    1.0000 0.01830  0.98220  0.32910  Biso   1.000  H
  C477     1.0000 0.10680  0.86860  0.34470  Biso   1.000  C
  H1352    1.0000 0.11660  0.86100  0.32690  Biso   1.000  H
  H1353    1.0000 0.08630  0.87350  0.33940  Biso   1.000  H
  H1354    1.0000 0.16340  0.87900  0.34620  Biso   1.000  H
  C478     1.0000 0.12720  0.89010  0.26460  Biso   1.000  C
  H1355    1.0000 0.10650  0.89580  0.26140  Biso   1.000  H
  H1356    1.0000 0.12780  0.87500  0.28010  Biso   1.000  H
  C479     1.0000 0.14380  0.93760  0.24950  Biso   1.000  C
  H1357    1.0000 0.15510  0.95510  0.25550  Biso   1.000  H
  H1358    1.0000 0.12340  0.94380  0.24530  Biso   1.000  H
  C480     1.0000 0.17450  0.90740  0.27800  Biso   1.000  C
  H1359    1.0000 0.17600  0.89320  0.29440  Biso   1.000  H
  H1360    1.0000 0.18590  0.92510  0.28340  Biso   1.000  H
  H1361    1.0000 0.83890  0.87640  0.31400  Biso   1.000  H
  H1362    1.0000 0.78560  0.84760  0.31040  Biso   1.000  H
  H1363    1.0000 0.75460  0.77950  0.21700  Biso   1.000  H
  H1364    1.0000 0.79000  0.76510  0.17060  Biso   1.000  H
  C481     1.0000 0.79480  0.83170  0.19430  Biso   1.000  C
  H1365    1.0000 0.77660  0.83890  0.18480  Biso   1.000  H
  H1366    1.0000 0.80960  0.84750  0.19320  Biso   1.000  H
  N81      1.0000 0.83458  0.77385  0.10609  Biso   1.000  N
  C482     1.0000 0.78840  0.82420  0.22700  Biso   1.000  C
  H1367    1.0000 0.80120  0.83610  0.23980  Biso   1.000  H
  H1368    1.0000 0.76780  0.82910  0.23170  Biso   1.000  H
  C483     1.0000 0.88140  0.84470  0.14320  Biso   1.000  C
  H1369    1.0000 0.88900  0.82690  0.13340  Biso   1.000  H
  H1370    1.0000 0.87650  0.83940  0.16370  Biso   1.000  H
  H1371    1.0000 0.87100  0.84620  0.08660  Biso   1.000  H
  C484     1.0000 0.85990  0.76460  0.12280  Biso   1.000  C
  H1372    1.0000 0.85420  0.76140  0.14350  Biso   1.000  H
  H1373    1.0000 0.87500  0.78010  0.12220  Biso   1.000  H
  C485     1.0000 0.81240  0.74950  0.10620  Biso   1.000  C
  H1374    1.0000 0.79490  0.75550  0.09490  Biso   1.000  H
  H1375    1.0000 0.80620  0.74530  0.12660  Biso   1.000  H
  C486     1.0000 0.84260  0.77800  0.07550  Biso   1.000  C
  H1376    1.0000 0.85680  0.79440  0.07400  Biso   1.000  H
  H1377    1.0000 0.82490  0.78340  0.06410  Biso   1.000  H
  H1378    1.0000 0.83890  0.37640  0.81400  Biso   1.000  H
  H1379    1.0000 0.78560  0.34760  0.81040  Biso   1.000  H
  H1380    1.0000 0.75460  0.27950  0.71700  Biso   1.000  H
  H1381    1.0000 0.79000  0.26510  0.67060  Biso   1.000  H
  C487     1.0000 0.79480  0.33170  0.69430  Biso   1.000  C
  H1382    1.0000 0.77660  0.33890  0.68480  Biso   1.000  H
  H1383    1.0000 0.80960  0.34750  0.69320  Biso   1.000  H
  N82      1.0000 0.83458  0.27385  0.60609  Biso   1.000  N
  C488     1.0000 0.78840  0.32420  0.72700  Biso   1.000  C
  H1384    1.0000 0.80120  0.33610  0.73980  Biso   1.000  H
  H1385    1.0000 0.76780  0.32910  0.73170  Biso   1.000  H
  C489     1.0000 0.88140  0.34470  0.64320  Biso   1.000  C
  H1386    1.0000 0.88900  0.32690  0.63340  Biso   1.000  H
  H1387    1.0000 0.87650  0.33940  0.66370  Biso   1.000  H
  H1388    1.0000 0.87100  0.34620  0.58660  Biso   1.000  H
  C490     1.0000 0.85990  0.26460  0.62280  Biso   1.000  C
  H1389    1.0000 0.85420  0.26140  0.64350  Biso   1.000  H
  H1390    1.0000 0.87500  0.28010  0.62220  Biso   1.000  H
  C491     1.0000 0.81240  0.24950  0.60620  Biso   1.000  C
  H1391    1.0000 0.79490  0.25550  0.59490  Biso   1.000  H
  H1392    1.0000 0.80620  0.24530  0.62660  Biso   1.000  H
  C492     1.0000 0.84260  0.27800  0.57550  Biso   1.000  C
  H1393    1.0000 0.85680  0.29440  0.57400  Biso   1.000  H
  H1394    1.0000 0.82490  0.28340  0.56410  Biso   1.000  H
  H1395    1.0000 0.33890  0.87640  0.81400  Biso   1.000  H
  H1396    1.0000 0.28560  0.84760  0.81040  Biso   1.000  H
  H1397    1.0000 0.25460  0.77950  0.71700  Biso   1.000  H
  H1398    1.0000 0.29000  0.76510  0.67060  Biso   1.000  H
  C493     1.0000 0.29480  0.83170  0.69430  Biso   1.000  C
  H1399    1.0000 0.27660  0.83890  0.68480  Biso   1.000  H
  H1400    1.0000 0.30960  0.84750  0.69320  Biso   1.000  H
  N83      1.0000 0.33458  0.77385  0.60609  Biso   1.000  N
  C494     1.0000 0.28840  0.82420  0.72700  Biso   1.000  C
  H1401    1.0000 0.30120  0.83610  0.73980  Biso   1.000  H
  H1402    1.0000 0.26780  0.82910  0.73170  Biso   1.000  H
  C495     1.0000 0.38140  0.84470  0.64320  Biso   1.000  C
  H1403    1.0000 0.38900  0.82690  0.63340  Biso   1.000  H
  H1404    1.0000 0.37650  0.83940  0.66370  Biso   1.000  H
  H1405    1.0000 0.37100  0.84620  0.58660  Biso   1.000  H
  C496     1.0000 0.35990  0.76460  0.62280  Biso   1.000  C
  H1406    1.0000 0.35420  0.76140  0.64350  Biso   1.000  H
  H1407    1.0000 0.37500  0.78010  0.62220  Biso   1.000  H
  C497     1.0000 0.31240  0.74950  0.60620  Biso   1.000  C
  H1408    1.0000 0.29490  0.75550  0.59490  Biso   1.000  H
  H1409    1.0000 0.30620  0.74530  0.62660  Biso   1.000  H
  C498     1.0000 0.34260  0.77800  0.57550  Biso   1.000  C
  H1410    1.0000 0.35680  0.79440  0.57400  Biso   1.000  H
  H1411    1.0000 0.32490  0.78340  0.56410  Biso   1.000  H
  H1412    1.0000 0.33890  0.37640  0.31400  Biso   1.000  H
  H1413    1.0000 0.28560  0.34760  0.31040  Biso   1.000  H
  H1414    1.0000 0.25460  0.27950  0.21700  Biso   1.000  H
  H1415    1.0000 0.29000  0.26510  0.17060  Biso   1.000  H
  C499     1.0000 0.29480  0.33170  0.19430  Biso   1.000  C
  H1416    1.0000 0.27660  0.33890  0.18480  Biso   1.000  H
  H1417    1.0000 0.30960  0.34750  0.19320  Biso   1.000  H
  N84      1.0000 0.33458  0.27385  0.10609  Biso   1.000  N
  C500     1.0000 0.28840  0.32420  0.22700  Biso   1.000  C
  H1418    1.0000 0.30120  0.33610  0.23980  Biso   1.000  H
  H1419    1.0000 0.26780  0.32910  0.23170  Biso   1.000  H
  C501     1.0000 0.38140  0.34470  0.14320  Biso   1.000  C
  H1420    1.0000 0.38900  0.32690  0.13340  Biso   1.000  H
  H1421    1.0000 0.37650  0.33940  0.16370  Biso   1.000  H
  H1422    1.0000 0.37100  0.34620  0.08660  Biso   1.000  H
  C502     1.0000 0.35990  0.26460  0.12280  Biso   1.000  C
  H1423    1.0000 0.35420  0.26140  0.14350  Biso   1.000  H
  H1424    1.0000 0.37500  0.28010  0.12220  Biso   1.000  H
  C503     1.0000 0.31240  0.24950  0.10620  Biso   1.000  C
  H1425    1.0000 0.29490  0.25550  0.09490  Biso   1.000  H
  H1426    1.0000 0.30620  0.24530  0.12660  Biso   1.000  H
  C504     1.0000 0.34260  0.27800  0.07550  Biso   1.000  C
  H1427    1.0000 0.35680  0.29440  0.07400  Biso   1.000  H
  H1428    1.0000 0.32490  0.28340  0.06410  Biso   1.000  H
  H1429    1.0000 0.33890  0.87360  0.93600  Biso   1.000  H
  H1430    1.0000 0.28560  0.90240  0.93960  Biso   1.000  H
  H1431    1.0000 0.25460  0.97050  0.03300  Biso   1.000  H
  H1432    1.0000 0.29000  0.98490  0.07940  Biso   1.000  H
  C505     1.0000 0.29480  0.91830  0.05570  Biso   1.000  C
  H1433    1.0000 0.27660  0.91110  0.06520  Biso   1.000  H
  H1434    1.0000 0.30960  0.90250  0.05680  Biso   1.000  H
  N85      1.0000 0.33458  0.97615  0.14391  Biso   1.000  N
  C506     1.0000 0.28840  0.92580  0.02300  Biso   1.000  C
  H1435    1.0000 0.30120  0.91390  0.01020  Biso   1.000  H
  H1436    1.0000 0.26780  0.92090  0.01830  Biso   1.000  H
  C507     1.0000 0.38140  0.90530  0.10680  Biso   1.000  C
  H1437    1.0000 0.38900  0.92310  0.11660  Biso   1.000  H
  H1438    1.0000 0.37650  0.91060  0.08630  Biso   1.000  H
  H1439    1.0000 0.37100  0.90380  0.16340  Biso   1.000  H
  C508     1.0000 0.35990  0.98540  0.12720  Biso   1.000  C
  H1440    1.0000 0.35420  0.98860  0.10650  Biso   1.000  H
  H1441    1.0000 0.37500  0.96990  0.12780  Biso   1.000  H
  C509     1.0000 0.31240  0.00050  0.14380  Biso   1.000  C
  H1442    1.0000 0.29490  0.99450  0.15510  Biso   1.000  H
  H1443    1.0000 0.30620  0.00470  0.12340  Biso   1.000  H
  C510     1.0000 0.34260  0.97200  0.17450  Biso   1.000  C
  H1444    1.0000 0.35680  0.95560  0.17600  Biso   1.000  H
  H1445    1.0000 0.32490  0.96660  0.18590  Biso   1.000  H
  H1446    1.0000 0.33890  0.37360  0.43600  Biso   1.000  H
  H1447    1.0000 0.28560  0.40240  0.43960  Biso   1.000  H
  H1448    1.0000 0.25460  0.47050  0.53300  Biso   1.000  H
  H1449    1.0000 0.29000  0.48490  0.57940  Biso   1.000  H
  C511     1.0000 0.29480  0.41830  0.55570  Biso   1.000  C
  H1450    1.0000 0.27660  0.41110  0.56520  Biso   1.000  H
  H1451    1.0000 0.30960  0.40250  0.55680  Biso   1.000  H
  N86      1.0000 0.33458  0.47615  0.64391  Biso   1.000  N
  C512     1.0000 0.28840  0.42580  0.52300  Biso   1.000  C
  H1452    1.0000 0.30120  0.41390  0.51020  Biso   1.000  H
  H1453    1.0000 0.26780  0.42090  0.51830  Biso   1.000  H
  C513     1.0000 0.38140  0.40530  0.60680  Biso   1.000  C
  H1454    1.0000 0.38900  0.42310  0.61660  Biso   1.000  H
  H1455    1.0000 0.37650  0.41060  0.58630  Biso   1.000  H
  H1456    1.0000 0.37100  0.40380  0.66340  Biso   1.000  H
  C514     1.0000 0.35990  0.48540  0.62720  Biso   1.000  C
  H1457    1.0000 0.35420  0.48860  0.60650  Biso   1.000  H
  H1458    1.0000 0.37500  0.46990  0.62780  Biso   1.000  H
  C515     1.0000 0.31240  0.50050  0.64380  Biso   1.000  C
  H1459    1.0000 0.29490  0.49450  0.65510  Biso   1.000  H
  H1460    1.0000 0.30620  0.50470  0.62340  Biso   1.000  H
  C516     1.0000 0.34260  0.47200  0.67450  Biso   1.000  C
  H1461    1.0000 0.35680  0.45560  0.67600  Biso   1.000  H
  H1462    1.0000 0.32490  0.46660  0.68590  Biso   1.000  H
  H1463    1.0000 0.83890  0.87360  0.43600  Biso   1.000  H
  H1464    1.0000 0.78560  0.90240  0.43960  Biso   1.000  H
  H1465    1.0000 0.75460  0.97050  0.53300  Biso   1.000  H
  H1466    1.0000 0.79000  0.98490  0.57940  Biso   1.000  H
  C517     1.0000 0.79480  0.91830  0.55570  Biso   1.000  C
  H1467    1.0000 0.77660  0.91110  0.56520  Biso   1.000  H
  H1468    1.0000 0.80960  0.90250  0.55680  Biso   1.000  H
  N87      1.0000 0.83458  0.97615  0.64391  Biso   1.000  N
  C518     1.0000 0.78840  0.92580  0.52300  Biso   1.000  C
  H1469    1.0000 0.80120  0.91390  0.51020  Biso   1.000  H
  H1470    1.0000 0.76780  0.92090  0.51830  Biso   1.000  H
  C519     1.0000 0.88140  0.90530  0.60680  Biso   1.000  C
  H1471    1.0000 0.88900  0.92310  0.61660  Biso   1.000  H
  H1472    1.0000 0.87650  0.91060  0.58630  Biso   1.000  H
  H1473    1.0000 0.87100  0.90380  0.66340  Biso   1.000  H
  C520     1.0000 0.85990  0.98540  0.62720  Biso   1.000  C
  H1474    1.0000 0.85420  0.98860  0.60650  Biso   1.000  H
  H1475    1.0000 0.87500  0.96990  0.62780  Biso   1.000  H
  C521     1.0000 0.81240  0.00050  0.64380  Biso   1.000  C
  H1476    1.0000 0.79490  0.99450  0.65510  Biso   1.000  H
  H1477    1.0000 0.80620  0.00470  0.62340  Biso   1.000  H
  C522     1.0000 0.84260  0.97200  0.67450  Biso   1.000  C
  H1478    1.0000 0.85680  0.95560  0.67600  Biso   1.000  H
  H1479    1.0000 0.82490  0.96660  0.68590  Biso   1.000  H
  H1480    1.0000 0.83890  0.37360  0.93600  Biso   1.000  H
  H1481    1.0000 0.78560  0.40240  0.93960  Biso   1.000  H
  H1482    1.0000 0.75460  0.47050  0.03300  Biso   1.000  H
  H1483    1.0000 0.79000  0.48490  0.07940  Biso   1.000  H
  C523     1.0000 0.79480  0.41830  0.05570  Biso   1.000  C
  H1484    1.0000 0.77660  0.41110  0.06520  Biso   1.000  H
  H1485    1.0000 0.80960  0.40250  0.05680  Biso   1.000  H
  N88      1.0000 0.83458  0.47615  0.14391  Biso   1.000  N
  C524     1.0000 0.78840  0.42580  0.02300  Biso   1.000  C
  H1486    1.0000 0.80120  0.41390  0.01020  Biso   1.000  H
  H1487    1.0000 0.76780  0.42090  0.01830  Biso   1.000  H
  C525     1.0000 0.88140  0.40530  0.10680  Biso   1.000  C
  H1488    1.0000 0.88900  0.42310  0.11660  Biso   1.000  H
  H1489    1.0000 0.87650  0.41060  0.08630  Biso   1.000  H
  H1490    1.0000 0.87100  0.40380  0.16340  Biso   1.000  H
  C526     1.0000 0.85990  0.48540  0.12720  Biso   1.000  C
  H1491    1.0000 0.85420  0.48860  0.10650  Biso   1.000  H
  H1492    1.0000 0.87500  0.46990  0.12780  Biso   1.000  H
  C527     1.0000 0.81240  0.50050  0.14380  Biso   1.000  C
  H1493    1.0000 0.79490  0.49450  0.15510  Biso   1.000  H
  H1494    1.0000 0.80620  0.50470  0.12340  Biso   1.000  H
  C528     1.0000 0.84260  0.47200  0.17450  Biso   1.000  C
  H1495    1.0000 0.85680  0.45560  0.17600  Biso   1.000  H
  H1496    1.0000 0.82490  0.46660  0.18590  Biso   1.000  H
  H1497    1.0000 0.41110  0.37640  0.43600  Biso   1.000  H
  H1498    1.0000 0.46440  0.34760  0.43960  Biso   1.000  H
  H1499    1.0000 0.49540  0.27950  0.53300  Biso   1.000  H
  H1500    1.0000 0.46000  0.26510  0.57940  Biso   1.000  H
  C529     1.0000 0.45520  0.33170  0.55570  Biso   1.000  C
  H1501    1.0000 0.47340  0.33890  0.56520  Biso   1.000  H
  H1502    1.0000 0.44040  0.34750  0.55680  Biso   1.000  H
  N89      1.0000 0.41542  0.27385  0.64391  Biso   1.000  N
  C530     1.0000 0.46160  0.32420  0.52300  Biso   1.000  C
  H1503    1.0000 0.44880  0.33610  0.51020  Biso   1.000  H
  H1504    1.0000 0.48220  0.32910  0.51830  Biso   1.000  H
  C531     1.0000 0.36860  0.34470  0.60680  Biso   1.000  C
  H1505    1.0000 0.36100  0.32690  0.61660  Biso   1.000  H
  H1506    1.0000 0.37350  0.33940  0.58630  Biso   1.000  H
  H1507    1.0000 0.37900  0.34620  0.66340  Biso   1.000  H
  C532     1.0000 0.39010  0.26460  0.62720  Biso   1.000  C
  H1508    1.0000 0.39580  0.26140  0.60650  Biso   1.000  H
  H1509    1.0000 0.37500  0.28010  0.62780  Biso   1.000  H
  C533     1.0000 0.43760  0.24950  0.64380  Biso   1.000  C
  H1510    1.0000 0.45510  0.25550  0.65510  Biso   1.000  H
  H1511    1.0000 0.44380  0.24530  0.62340  Biso   1.000  H
  C534     1.0000 0.40740  0.27800  0.67450  Biso   1.000  C
  H1512    1.0000 0.39320  0.29440  0.67600  Biso   1.000  H
  H1513    1.0000 0.42510  0.28340  0.68590  Biso   1.000  H
  H1514    1.0000 0.41110  0.87640  0.93600  Biso   1.000  H
  H1515    1.0000 0.46440  0.84760  0.93960  Biso   1.000  H
  H1516    1.0000 0.49540  0.77950  0.03300  Biso   1.000  H
  H1517    1.0000 0.46000  0.76510  0.07940  Biso   1.000  H
  C535     1.0000 0.45520  0.83170  0.05570  Biso   1.000  C
  H1518    1.0000 0.47340  0.83890  0.06520  Biso   1.000  H
  H1519    1.0000 0.44040  0.84750  0.05680  Biso   1.000  H
  N90      1.0000 0.41542  0.77385  0.14391  Biso   1.000  N
  C536     1.0000 0.46160  0.82420  0.02300  Biso   1.000  C
  H1520    1.0000 0.44880  0.83610  0.01020  Biso   1.000  H
  H1521    1.0000 0.48220  0.82910  0.01830  Biso   1.000  H
  C537     1.0000 0.36860  0.84470  0.10680  Biso   1.000  C
  H1522    1.0000 0.36100  0.82690  0.11660  Biso   1.000  H
  H1523    1.0000 0.37350  0.83940  0.08630  Biso   1.000  H
  H1524    1.0000 0.37900  0.84620  0.16340  Biso   1.000  H
  C538     1.0000 0.39010  0.76460  0.12720  Biso   1.000  C
  H1525    1.0000 0.39580  0.76140  0.10650  Biso   1.000  H
  H1526    1.0000 0.37500  0.78010  0.12780  Biso   1.000  H
  C539     1.0000 0.43760  0.74950  0.14380  Biso   1.000  C
  H1527    1.0000 0.45510  0.75550  0.15510  Biso   1.000  H
  H1528    1.0000 0.44380  0.74530  0.12340  Biso   1.000  H
  C540     1.0000 0.40740  0.77800  0.17450  Biso   1.000  C
  H1529    1.0000 0.39320  0.79440  0.17600  Biso   1.000  H
  H1530    1.0000 0.42510  0.78340  0.18590  Biso   1.000  H
  H1531    1.0000 0.91110  0.37640  0.93600  Biso   1.000  H
  H1532    1.0000 0.96440  0.34760  0.93960  Biso   1.000  H
  H1533    1.0000 0.99540  0.27950  0.03300  Biso   1.000  H
  H1534    1.0000 0.96000  0.26510  0.07940  Biso   1.000  H
  C541     1.0000 0.95520  0.33170  0.05570  Biso   1.000  C
  H1535    1.0000 0.97340  0.33890  0.06520  Biso   1.000  H
  H1536    1.0000 0.94040  0.34750  0.05680  Biso   1.000  H
  N91      1.0000 0.91542  0.27385  0.14391  Biso   1.000  N
  C542     1.0000 0.96160  0.32420  0.02300  Biso   1.000  C
  H1537    1.0000 0.94880  0.33610  0.01020  Biso   1.000  H
  H1538    1.0000 0.98220  0.32910  0.01830  Biso   1.000  H
  C543     1.0000 0.86860  0.34470  0.10680  Biso   1.000  C
  H1539    1.0000 0.86100  0.32690  0.11660  Biso   1.000  H
  H1540    1.0000 0.87350  0.33940  0.08630  Biso   1.000  H
  H1541    1.0000 0.87900  0.34620  0.16340  Biso   1.000  H
  C544     1.0000 0.89010  0.26460  0.12720  Biso   1.000  C
  H1542    1.0000 0.89580  0.26140  0.10650  Biso   1.000  H
  H1543    1.0000 0.87500  0.28010  0.12780  Biso   1.000  H
  C545     1.0000 0.93760  0.24950  0.14380  Biso   1.000  C
  H1544    1.0000 0.95510  0.25550  0.15510  Biso   1.000  H
  H1545    1.0000 0.94380  0.24530  0.12340  Biso   1.000  H
  C546     1.0000 0.90740  0.27800  0.17450  Biso   1.000  C
  H1546    1.0000 0.89320  0.29440  0.17600  Biso   1.000  H
  H1547    1.0000 0.92510  0.28340  0.18590  Biso   1.000  H
  H1548    1.0000 0.91110  0.87640  0.43600  Biso   1.000  H
  H1549    1.0000 0.96440  0.84760  0.43960  Biso   1.000  H
  H1550    1.0000 0.99540  0.77950  0.53300  Biso   1.000  H
  H1551    1.0000 0.96000  0.76510  0.57940  Biso   1.000  H
  C547     1.0000 0.95520  0.83170  0.55570  Biso   1.000  C
  H1552    1.0000 0.97340  0.83890  0.56520  Biso   1.000  H
  H1553    1.0000 0.94040  0.84750  0.55680  Biso   1.000  H
  N92      1.0000 0.91542  0.77385  0.64391  Biso   1.000  N
  C548     1.0000 0.96160  0.82420  0.52300  Biso   1.000  C
  H1554    1.0000 0.94880  0.83610  0.51020  Biso   1.000  H
  H1555    1.0000 0.98220  0.82910  0.51830  Biso   1.000  H
  C549     1.0000 0.86860  0.84470  0.60680  Biso   1.000  C
  H1556    1.0000 0.86100  0.82690  0.61660  Biso   1.000  H
  H1557    1.0000 0.87350  0.83940  0.58630  Biso   1.000  H
  H1558    1.0000 0.87900  0.84620  0.66340  Biso   1.000  H
  C550     1.0000 0.89010  0.76460  0.62720  Biso   1.000  C
  H1559    1.0000 0.89580  0.76140  0.60650  Biso   1.000  H
  H1560    1.0000 0.87500  0.78010  0.62780  Biso   1.000  H
  C551     1.0000 0.93760  0.74950  0.64380  Biso   1.000  C
  H1561    1.0000 0.95510  0.75550  0.65510  Biso   1.000  H
  H1562    1.0000 0.94380  0.74530  0.62340  Biso   1.000  H
  C552     1.0000 0.90740  0.77800  0.67450  Biso   1.000  C
  H1563    1.0000 0.89320  0.79440  0.67600  Biso   1.000  H
  H1564    1.0000 0.92510  0.78340  0.68590  Biso   1.000  H
  H1565    1.0000 0.91110  0.37360  0.81400  Biso   1.000  H
  H1566    1.0000 0.96440  0.40240  0.81040  Biso   1.000  H
  H1567    1.0000 0.99540  0.47050  0.71700  Biso   1.000  H
  H1568    1.0000 0.96000  0.48490  0.67060  Biso   1.000  H
  C553     1.0000 0.95520  0.41830  0.69430  Biso   1.000  C
  H1569    1.0000 0.97340  0.41110  0.68480  Biso   1.000  H
  H1570    1.0000 0.94040  0.40250  0.69320  Biso   1.000  H
  N93      1.0000 0.91542  0.47615  0.60609  Biso   1.000  N
  C554     1.0000 0.96160  0.42580  0.72700  Biso   1.000  C
  H1571    1.0000 0.94880  0.41390  0.73980  Biso   1.000  H
  H1572    1.0000 0.98220  0.42090  0.73170  Biso   1.000  H
  C555     1.0000 0.86860  0.40530  0.64320  Biso   1.000  C
  H1573    1.0000 0.86100  0.42310  0.63340  Biso   1.000  H
  H1574    1.0000 0.87350  0.41060  0.66370  Biso   1.000  H
  H1575    1.0000 0.87900  0.40380  0.58660  Biso   1.000  H
  C556     1.0000 0.89010  0.48540  0.62280  Biso   1.000  C
  H1576    1.0000 0.89580  0.48860  0.64350  Biso   1.000  H
  H1577    1.0000 0.87500  0.46990  0.62220  Biso   1.000  H
  C557     1.0000 0.93760  0.50050  0.60620  Biso   1.000  C
  H1578    1.0000 0.95510  0.49450  0.59490  Biso   1.000  H
  H1579    1.0000 0.94380  0.50470  0.62660  Biso   1.000  H
  C558     1.0000 0.90740  0.47200  0.57550  Biso   1.000  C
  H1580    1.0000 0.89320  0.45560  0.57400  Biso   1.000  H
  H1581    1.0000 0.92510  0.46660  0.56410  Biso   1.000  H
  H1582    1.0000 0.91110  0.87360  0.31400  Biso   1.000  H
  H1583    1.0000 0.96440  0.90240  0.31040  Biso   1.000  H
  H1584    1.0000 0.99540  0.97050  0.21700  Biso   1.000  H
  H1585    1.0000 0.96000  0.98490  0.17060  Biso   1.000  H
  C559     1.0000 0.95520  0.91830  0.19430  Biso   1.000  C
  H1586    1.0000 0.97340  0.91110  0.18480  Biso   1.000  H
  H1587    1.0000 0.94040  0.90250  0.19320  Biso   1.000  H
  N94      1.0000 0.91542  0.97615  0.10609  Biso   1.000  N
  C560     1.0000 0.96160  0.92580  0.22700  Biso   1.000  C
  H1588    1.0000 0.94880  0.91390  0.23980  Biso   1.000  H
  H1589    1.0000 0.98220  0.92090  0.23170  Biso   1.000  H
  C561     1.0000 0.86860  0.90530  0.14320  Biso   1.000  C
  H1590    1.0000 0.86100  0.92310  0.13340  Biso   1.000  H
  H1591    1.0000 0.87350  0.91060  0.16370  Biso   1.000  H
  H1592    1.0000 0.87900  0.90380  0.08660  Biso   1.000  H
  C562     1.0000 0.89010  0.98540  0.12280  Biso   1.000  C
  H1593    1.0000 0.89580  0.98860  0.14350  Biso   1.000  H
  H1594    1.0000 0.87500  0.96990  0.12220  Biso   1.000  H
  C563     1.0000 0.93760  0.00050  0.10620  Biso   1.000  C
  H1595    1.0000 0.95510  0.99450  0.09490  Biso   1.000  H
  H1596    1.0000 0.94380  0.00470  0.12660  Biso   1.000  H
  C564     1.0000 0.90740  0.97200  0.07550  Biso   1.000  C
  H1597    1.0000 0.89320  0.95560  0.07400  Biso   1.000  H
  H1598    1.0000 0.92510  0.96660  0.06410  Biso   1.000  H
  H1599    1.0000 0.41110  0.37360  0.31400  Biso   1.000  H
  H1600    1.0000 0.46440  0.40240  0.31040  Biso   1.000  H
  H1601    1.0000 0.49540  0.47050  0.21700  Biso   1.000  H
  H1602    1.0000 0.46000  0.48490  0.17060  Biso   1.000  H
  C565     1.0000 0.45520  0.41830  0.19430  Biso   1.000  C
  H1603    1.0000 0.47340  0.41110  0.18480  Biso   1.000  H
  H1604    1.0000 0.44040  0.40250  0.19320  Biso   1.000  H
  N95      1.0000 0.41542  0.47615  0.10609  Biso   1.000  N
  C566     1.0000 0.46160  0.42580  0.22700  Biso   1.000  C
  H1605    1.0000 0.44880  0.41390  0.23980  Biso   1.000  H
  H1606    1.0000 0.48220  0.42090  0.23170  Biso   1.000  H
  C567     1.0000 0.36860  0.40530  0.14320  Biso   1.000  C
  H1607    1.0000 0.36100  0.42310  0.13340  Biso   1.000  H
  H1608    1.0000 0.37350  0.41060  0.16370  Biso   1.000  H
  H1609    1.0000 0.37900  0.40380  0.08660  Biso   1.000  H
  C568     1.0000 0.39010  0.48540  0.12280  Biso   1.000  C
  H1610    1.0000 0.39580  0.48860  0.14350  Biso   1.000  H
  H1611    1.0000 0.37500  0.46990  0.12220  Biso   1.000  H
  C569     1.0000 0.43760  0.50050  0.10620  Biso   1.000  C
  H1612    1.0000 0.45510  0.49450  0.09490  Biso   1.000  H
  H1613    1.0000 0.44380  0.50470  0.12660  Biso   1.000  H
  C570     1.0000 0.40740  0.47200  0.07550  Biso   1.000  C
  H1614    1.0000 0.39320  0.45560  0.07400  Biso   1.000  H
  H1615    1.0000 0.42510  0.46660  0.06410  Biso   1.000  H
  H1616    1.0000 0.41110  0.87360  0.81400  Biso   1.000  H
  H1617    1.0000 0.46440  0.90240  0.81040  Biso   1.000  H
  H1618    1.0000 0.49540  0.97050  0.71700  Biso   1.000  H
  H1619    1.0000 0.46000  0.98490  0.67060  Biso   1.000  H
  C571     1.0000 0.45520  0.91830  0.69430  Biso   1.000  C
  H1620    1.0000 0.47340  0.91110  0.68480  Biso   1.000  H
  H1621    1.0000 0.44040  0.90250  0.69320  Biso   1.000  H
  N96      1.0000 0.41542  0.97615  0.60609  Biso   1.000  N
  C572     1.0000 0.46160  0.92580  0.72700  Biso   1.000  C
  H1622    1.0000 0.44880  0.91390  0.73980  Biso   1.000  H
  H1623    1.0000 0.48220  0.92090  0.73170  Biso   1.000  H
  C573     1.0000 0.36860  0.90530  0.64320  Biso   1.000  C
  H1624    1.0000 0.36100  0.92310  0.63340  Biso   1.000  H
  H1625    1.0000 0.37350  0.91060  0.66370  Biso   1.000  H
  H1626    1.0000 0.37900  0.90380  0.58660  Biso   1.000  H
  C574     1.0000 0.39010  0.98540  0.62280  Biso   1.000  C
  H1627    1.0000 0.39580  0.98860  0.64350  Biso   1.000  H
  H1628    1.0000 0.37500  0.96990  0.62220  Biso   1.000  H
  C575     1.0000 0.43760  0.00050  0.60620  Biso   1.000  C
  H1629    1.0000 0.45510  0.99450  0.59490  Biso   1.000  H
  H1630    1.0000 0.44380  0.00470  0.62660  Biso   1.000  H
  C576     1.0000 0.40740  0.97200  0.57550  Biso   1.000  C
  H1631    1.0000 0.39320  0.95560  0.57400  Biso   1.000  H
  H1632    1.0000 0.42510  0.96660  0.56410  Biso   1.000  H
  H1633    1.0000 0.81400  0.37360  0.91110  Biso   1.000  H
  H1634    1.0000 0.81040  0.40240  0.96440  Biso   1.000  H
  H1635    1.0000 0.71700  0.47050  0.99540  Biso   1.000  H
  H1636    1.0000 0.67060  0.48490  0.96000  Biso   1.000  H
  C577     1.0000 0.69430  0.41830  0.95520  Biso   1.000  C
  H1637    1.0000 0.68480  0.41110  0.97340  Biso   1.000  H
  H1638    1.0000 0.69320  0.40250  0.94040  Biso   1.000  H
  N97      1.0000 0.60609  0.47615  0.91542  Biso   1.000  N
  C578     1.0000 0.72700  0.42580  0.96160  Biso   1.000  C
  H1639    1.0000 0.73980  0.41390  0.94880  Biso   1.000  H
  H1640    1.0000 0.73170  0.42090  0.98220  Biso   1.000  H
  C579     1.0000 0.64320  0.40530  0.86860  Biso   1.000  C
  H1641    1.0000 0.63340  0.42310  0.86100  Biso   1.000  H
  H1642    1.0000 0.66370  0.41060  0.87350  Biso   1.000  H
  H1643    1.0000 0.58660  0.40380  0.87900  Biso   1.000  H
  C580     1.0000 0.62280  0.48540  0.89010  Biso   1.000  C
  H1644    1.0000 0.64350  0.48860  0.89580  Biso   1.000  H
  H1645    1.0000 0.62220  0.46990  0.87500  Biso   1.000  H
  C581     1.0000 0.60620  0.50050  0.93760  Biso   1.000  C
  H1646    1.0000 0.59490  0.49450  0.95510  Biso   1.000  H
  H1647    1.0000 0.62660  0.50470  0.94380  Biso   1.000  H
  C582     1.0000 0.57550  0.47200  0.90740  Biso   1.000  C
  H1648    1.0000 0.57400  0.45560  0.89320  Biso   1.000  H
  H1649    1.0000 0.56410  0.46660  0.92510  Biso   1.000  H
  H1650    1.0000 0.81400  0.87360  0.41110  Biso   1.000  H
  H1651    1.0000 0.81040  0.90240  0.46440  Biso   1.000  H
  H1652    1.0000 0.71700  0.97050  0.49540  Biso   1.000  H
  H1653    1.0000 0.67060  0.98490  0.46000  Biso   1.000  H
  C583     1.0000 0.69430  0.91830  0.45520  Biso   1.000  C
  H1654    1.0000 0.68480  0.91110  0.47340  Biso   1.000  H
  H1655    1.0000 0.69320  0.90250  0.44040  Biso   1.000  H
  N98      1.0000 0.60609  0.97615  0.41542  Biso   1.000  N
  C584     1.0000 0.72700  0.92580  0.46160  Biso   1.000  C
  H1656    1.0000 0.73980  0.91390  0.44880  Biso   1.000  H
  H1657    1.0000 0.73170  0.92090  0.48220  Biso   1.000  H
  C585     1.0000 0.64320  0.90530  0.36860  Biso   1.000  C
  H1658    1.0000 0.63340  0.92310  0.36100  Biso   1.000  H
  H1659    1.0000 0.66370  0.91060  0.37350  Biso   1.000  H
  H1660    1.0000 0.58660  0.90380  0.37900  Biso   1.000  H
  C586     1.0000 0.62280  0.98540  0.39010  Biso   1.000  C
  H1661    1.0000 0.64350  0.98860  0.39580  Biso   1.000  H
  H1662    1.0000 0.62220  0.96990  0.37500  Biso   1.000  H
  C587     1.0000 0.60620  0.00050  0.43760  Biso   1.000  C
  H1663    1.0000 0.59490  0.99450  0.45510  Biso   1.000  H
  H1664    1.0000 0.62660  0.00470  0.44380  Biso   1.000  H
  C588     1.0000 0.57550  0.97200  0.40740  Biso   1.000  C
  H1665    1.0000 0.57400  0.95560  0.39320  Biso   1.000  H
  H1666    1.0000 0.56410  0.96660  0.42510  Biso   1.000  H
  H1667    1.0000 0.31400  0.37360  0.41110  Biso   1.000  H
  H1668    1.0000 0.31040  0.40240  0.46440  Biso   1.000  H
  H1669    1.0000 0.21700  0.47050  0.49540  Biso   1.000  H
  H1670    1.0000 0.17060  0.48490  0.46000  Biso   1.000  H
  C589     1.0000 0.19430  0.41830  0.45520  Biso   1.000  C
  H1671    1.0000 0.18480  0.41110  0.47340  Biso   1.000  H
  H1672    1.0000 0.19320  0.40250  0.44040  Biso   1.000  H
  N99      1.0000 0.10609  0.47615  0.41542  Biso   1.000  N
  C590     1.0000 0.22700  0.42580  0.46160  Biso   1.000  C
  H1673    1.0000 0.23980  0.41390  0.44880  Biso   1.000  H
  H1674    1.0000 0.23170  0.42090  0.48220  Biso   1.000  H
  C591     1.0000 0.14320  0.40530  0.36860  Biso   1.000  C
  H1675    1.0000 0.13340  0.42310  0.36100  Biso   1.000  H
  H1676    1.0000 0.16370  0.41060  0.37350  Biso   1.000  H
  H1677    1.0000 0.08660  0.40380  0.37900  Biso   1.000  H
  C592     1.0000 0.12280  0.48540  0.39010  Biso   1.000  C
  H1678    1.0000 0.14350  0.48860  0.39580  Biso   1.000  H
  H1679    1.0000 0.12220  0.46990  0.37500  Biso   1.000  H
  C593     1.0000 0.10620  0.50050  0.43760  Biso   1.000  C
  H1680    1.0000 0.09490  0.49450  0.45510  Biso   1.000  H
  H1681    1.0000 0.12660  0.50470  0.44380  Biso   1.000  H
  C594     1.0000 0.07550  0.47200  0.40740  Biso   1.000  C
  H1682    1.0000 0.07400  0.45560  0.39320  Biso   1.000  H
  H1683    1.0000 0.06410  0.46660  0.42510  Biso   1.000  H
  H1684    1.0000 0.31400  0.87360  0.91110  Biso   1.000  H
  H1685    1.0000 0.31040  0.90240  0.96440  Biso   1.000  H
  H1686    1.0000 0.21700  0.97050  0.99540  Biso   1.000  H
  H1687    1.0000 0.17060  0.98490  0.96000  Biso   1.000  H
  C595     1.0000 0.19430  0.91830  0.95520  Biso   1.000  C
  H1688    1.0000 0.18480  0.91110  0.97340  Biso   1.000  H
  H1689    1.0000 0.19320  0.90250  0.94040  Biso   1.000  H
  N100     1.0000 0.10609  0.97615  0.91542  Biso   1.000  N
  C596     1.0000 0.22700  0.92580  0.96160  Biso   1.000  C
  H1690    1.0000 0.23980  0.91390  0.94880  Biso   1.000  H
  H1691    1.0000 0.23170  0.92090  0.98220  Biso   1.000  H
  C597     1.0000 0.14320  0.90530  0.86860  Biso   1.000  C
  H1692    1.0000 0.13340  0.92310  0.86100  Biso   1.000  H
  H1693    1.0000 0.16370  0.91060  0.87350  Biso   1.000  H
  H1694    1.0000 0.08660  0.90380  0.87900  Biso   1.000  H
  C598     1.0000 0.12280  0.98540  0.89010  Biso   1.000  C
  H1695    1.0000 0.14350  0.98860  0.89580  Biso   1.000  H
  H1696    1.0000 0.12220  0.96990  0.87500  Biso   1.000  H
  C599     1.0000 0.10620  0.00050  0.93760  Biso   1.000  C
  H1697    1.0000 0.09490  0.99450  0.95510  Biso   1.000  H
  H1698    1.0000 0.12660  0.00470  0.94380  Biso   1.000  H
  C600     1.0000 0.07550  0.97200  0.90740  Biso   1.000  C
  H1699    1.0000 0.07400  0.95560  0.89320  Biso   1.000  H
  H1700    1.0000 0.06410  0.96660  0.92510  Biso   1.000  H
  H1701    1.0000 0.43600  0.37640  0.41110  Biso   1.000  H
  H1702    1.0000 0.43960  0.34760  0.46440  Biso   1.000  H
  H1703    1.0000 0.53300  0.27950  0.49540  Biso   1.000  H
  H1704    1.0000 0.57940  0.26510  0.46000  Biso   1.000  H
  C601     1.0000 0.55570  0.33170  0.45520  Biso   1.000  C
  H1705    1.0000 0.56520  0.33890  0.47340  Biso   1.000  H
  H1706    1.0000 0.55680  0.34750  0.44040  Biso   1.000  H
  N101     1.0000 0.64391  0.27385  0.41542  Biso   1.000  N
  C602     1.0000 0.52300  0.32420  0.46160  Biso   1.000  C
  H1707    1.0000 0.51020  0.33610  0.44880  Biso   1.000  H
  H1708    1.0000 0.51830  0.32910  0.48220  Biso   1.000  H
  C603     1.0000 0.60680  0.34470  0.36860  Biso   1.000  C
  H1709    1.0000 0.61660  0.32690  0.36100  Biso   1.000  H
  H1710    1.0000 0.58630  0.33940  0.37350  Biso   1.000  H
  H1711    1.0000 0.66340  0.34620  0.37900  Biso   1.000  H
  C604     1.0000 0.62720  0.26460  0.39010  Biso   1.000  C
  H1712    1.0000 0.60650  0.26140  0.39580  Biso   1.000  H
  H1713    1.0000 0.62780  0.28010  0.37500  Biso   1.000  H
  C605     1.0000 0.64380  0.24950  0.43760  Biso   1.000  C
  H1714    1.0000 0.65510  0.25550  0.45510  Biso   1.000  H
  H1715    1.0000 0.62340  0.24530  0.44380  Biso   1.000  H
  C606     1.0000 0.67450  0.27800  0.40740  Biso   1.000  C
  H1716    1.0000 0.67600  0.29440  0.39320  Biso   1.000  H
  H1717    1.0000 0.68590  0.28340  0.42510  Biso   1.000  H
  H1718    1.0000 0.43600  0.87640  0.91110  Biso   1.000  H
  H1719    1.0000 0.43960  0.84760  0.96440  Biso   1.000  H
  H1720    1.0000 0.53300  0.77950  0.99540  Biso   1.000  H
  H1721    1.0000 0.57940  0.76510  0.96000  Biso   1.000  H
  C607     1.0000 0.55570  0.83170  0.95520  Biso   1.000  C
  H1722    1.0000 0.56520  0.83890  0.97340  Biso   1.000  H
  H1723    1.0000 0.55680  0.84750  0.94040  Biso   1.000  H
  N102     1.0000 0.64391  0.77385  0.91542  Biso   1.000  N
  C608     1.0000 0.52300  0.82420  0.96160  Biso   1.000  C
  H1724    1.0000 0.51020  0.83610  0.94880  Biso   1.000  H
  H1725    1.0000 0.51830  0.82910  0.98220  Biso   1.000  H
  C609     1.0000 0.60680  0.84470  0.86860  Biso   1.000  C
  H1726    1.0000 0.61660  0.82690  0.86100  Biso   1.000  H
  H1727    1.0000 0.58630  0.83940  0.87350  Biso   1.000  H
  H1728    1.0000 0.66340  0.84620  0.87900  Biso   1.000  H
  C610     1.0000 0.62720  0.76460  0.89010  Biso   1.000  C
  H1729    1.0000 0.60650  0.76140  0.89580  Biso   1.000  H
  H1730    1.0000 0.62780  0.78010  0.87500  Biso   1.000  H
  C611     1.0000 0.64380  0.74950  0.93760  Biso   1.000  C
  H1731    1.0000 0.65510  0.75550  0.95510  Biso   1.000  H
  H1732    1.0000 0.62340  0.74530  0.94380  Biso   1.000  H
  C612     1.0000 0.67450  0.77800  0.90740  Biso   1.000  C
  H1733    1.0000 0.67600  0.79440  0.89320  Biso   1.000  H
  H1734    1.0000 0.68590  0.78340  0.92510  Biso   1.000  H
  H1735    1.0000 0.93600  0.37640  0.91110  Biso   1.000  H
  H1736    1.0000 0.93960  0.34760  0.96440  Biso   1.000  H
  H1737    1.0000 0.03300  0.27950  0.99540  Biso   1.000  H
  H1738    1.0000 0.07940  0.26510  0.96000  Biso   1.000  H
  C613     1.0000 0.05570  0.33170  0.95520  Biso   1.000  C
  H1739    1.0000 0.06520  0.33890  0.97340  Biso   1.000  H
  H1740    1.0000 0.05680  0.34750  0.94040  Biso   1.000  H
  N103     1.0000 0.14391  0.27385  0.91542  Biso   1.000  N
  C614     1.0000 0.02300  0.32420  0.96160  Biso   1.000  C
  H1741    1.0000 0.01020  0.33610  0.94880  Biso   1.000  H
  H1742    1.0000 0.01830  0.32910  0.98220  Biso   1.000  H
  C615     1.0000 0.10680  0.34470  0.86860  Biso   1.000  C
  H1743    1.0000 0.11660  0.32690  0.86100  Biso   1.000  H
  H1744    1.0000 0.08630  0.33940  0.87350  Biso   1.000  H
  H1745    1.0000 0.16340  0.34620  0.87900  Biso   1.000  H
  C616     1.0000 0.12720  0.26460  0.89010  Biso   1.000  C
  H1746    1.0000 0.10650  0.26140  0.89580  Biso   1.000  H
  H1747    1.0000 0.12780  0.28010  0.87500  Biso   1.000  H
  C617     1.0000 0.14380  0.24950  0.93760  Biso   1.000  C
  H1748    1.0000 0.15510  0.25550  0.95510  Biso   1.000  H
  H1749    1.0000 0.12340  0.24530  0.94380  Biso   1.000  H
  C618     1.0000 0.17450  0.27800  0.90740  Biso   1.000  C
  H1750    1.0000 0.17600  0.29440  0.89320  Biso   1.000  H
  H1751    1.0000 0.18590  0.28340  0.92510  Biso   1.000  H
  H1752    1.0000 0.93600  0.87640  0.41110  Biso   1.000  H
  H1753    1.0000 0.93960  0.84760  0.46440  Biso   1.000  H
  H1754    1.0000 0.03300  0.77950  0.49540  Biso   1.000  H
  H1755    1.0000 0.07940  0.76510  0.46000  Biso   1.000  H
  C619     1.0000 0.05570  0.83170  0.45520  Biso   1.000  C
  H1756    1.0000 0.06520  0.83890  0.47340  Biso   1.000  H
  H1757    1.0000 0.05680  0.84750  0.44040  Biso   1.000  H
  N104     1.0000 0.14391  0.77385  0.41542  Biso   1.000  N
  C620     1.0000 0.02300  0.82420  0.46160  Biso   1.000  C
  H1758    1.0000 0.01020  0.83610  0.44880  Biso   1.000  H
  H1759    1.0000 0.01830  0.82910  0.48220  Biso   1.000  H
  C621     1.0000 0.10680  0.84470  0.36860  Biso   1.000  C
  H1760    1.0000 0.11660  0.82690  0.36100  Biso   1.000  H
  H1761    1.0000 0.08630  0.83940  0.37350  Biso   1.000  H
  H1762    1.0000 0.16340  0.84620  0.37900  Biso   1.000  H
  C622     1.0000 0.12720  0.76460  0.39010  Biso   1.000  C
  H1763    1.0000 0.10650  0.76140  0.39580  Biso   1.000  H
  H1764    1.0000 0.12780  0.78010  0.37500  Biso   1.000  H
  C623     1.0000 0.14380  0.74950  0.43760  Biso   1.000  C
  H1765    1.0000 0.15510  0.75550  0.45510  Biso   1.000  H
  H1766    1.0000 0.12340  0.74530  0.44380  Biso   1.000  H
  C624     1.0000 0.17450  0.77800  0.40740  Biso   1.000  C
  H1767    1.0000 0.17600  0.79440  0.39320  Biso   1.000  H
  H1768    1.0000 0.18590  0.78340  0.42510  Biso   1.000  H
  H1769    1.0000 0.93600  0.87360  0.33890  Biso   1.000  H
  H1770    1.0000 0.93960  0.90240  0.28560  Biso   1.000  H
  H1771    1.0000 0.03300  0.97050  0.25460  Biso   1.000  H
  H1772    1.0000 0.07940  0.98490  0.29000  Biso   1.000  H
  C625     1.0000 0.05570  0.91830  0.29480  Biso   1.000  C
  H1773    1.0000 0.06520  0.91110  0.27660  Biso   1.000  H
  H1774    1.0000 0.05680  0.90250  0.30960  Biso   1.000  H
  N105     1.0000 0.14391  0.97615  0.33458  Biso   1.000  N
  C626     1.0000 0.02300  0.92580  0.28840  Biso   1.000  C
  H1775    1.0000 0.01020  0.91390  0.30120  Biso   1.000  H
  H1776    1.0000 0.01830  0.92090  0.26780  Biso   1.000  H
  C627     1.0000 0.10680  0.90530  0.38140  Biso   1.000  C
  H1777    1.0000 0.11660  0.92310  0.38900  Biso   1.000  H
  H1778    1.0000 0.08630  0.91060  0.37650  Biso   1.000  H
  H1779    1.0000 0.16340  0.90380  0.37100  Biso   1.000  H
  C628     1.0000 0.12720  0.98540  0.35990  Biso   1.000  C
  H1780    1.0000 0.10650  0.98860  0.35420  Biso   1.000  H
  H1781    1.0000 0.12780  0.96990  0.37500  Biso   1.000  H
  C629     1.0000 0.14380  0.00050  0.31240  Biso   1.000  C
  H1782    1.0000 0.15510  0.99450  0.29490  Biso   1.000  H
  H1783    1.0000 0.12340  0.00470  0.30620  Biso   1.000  H
  C630     1.0000 0.17450  0.97200  0.34260  Biso   1.000  C
  H1784    1.0000 0.17600  0.95560  0.35680  Biso   1.000  H
  H1785    1.0000 0.18590  0.96660  0.32490  Biso   1.000  H
  H1786    1.0000 0.93600  0.37360  0.83890  Biso   1.000  H
  H1787    1.0000 0.93960  0.40240  0.78560  Biso   1.000  H
  H1788    1.0000 0.03300  0.47050  0.75460  Biso   1.000  H
  H1789    1.0000 0.07940  0.48490  0.79000  Biso   1.000  H
  C631     1.0000 0.05570  0.41830  0.79480  Biso   1.000  C
  H1790    1.0000 0.06520  0.41110  0.77660  Biso   1.000  H
  H1791    1.0000 0.05680  0.40250  0.80960  Biso   1.000  H
  N106     1.0000 0.14391  0.47615  0.83458  Biso   1.000  N
  C632     1.0000 0.02300  0.42580  0.78840  Biso   1.000  C
  H1792    1.0000 0.01020  0.41390  0.80120  Biso   1.000  H
  H1793    1.0000 0.01830  0.42090  0.76780  Biso   1.000  H
  C633     1.0000 0.10680  0.40530  0.88140  Biso   1.000  C
  H1794    1.0000 0.11660  0.42310  0.88900  Biso   1.000  H
  H1795    1.0000 0.08630  0.41060  0.87650  Biso   1.000  H
  H1796    1.0000 0.16340  0.40380  0.87100  Biso   1.000  H
  C634     1.0000 0.12720  0.48540  0.85990  Biso   1.000  C
  H1797    1.0000 0.10650  0.48860  0.85420  Biso   1.000  H
  H1798    1.0000 0.12780  0.46990  0.87500  Biso   1.000  H
  C635     1.0000 0.14380  0.50050  0.81240  Biso   1.000  C
  H1799    1.0000 0.15510  0.49450  0.79490  Biso   1.000  H
  H1800    1.0000 0.12340  0.50470  0.80620  Biso   1.000  H
  C636     1.0000 0.17450  0.47200  0.84260  Biso   1.000  C
  H1801    1.0000 0.17600  0.45560  0.85680  Biso   1.000  H
  H1802    1.0000 0.18590  0.46660  0.82490  Biso   1.000  H
  H1803    1.0000 0.43600  0.87360  0.83890  Biso   1.000  H
  H1804    1.0000 0.43960  0.90240  0.78560  Biso   1.000  H
  H1805    1.0000 0.53300  0.97050  0.75460  Biso   1.000  H
  H1806    1.0000 0.57940  0.98490  0.79000  Biso   1.000  H
  C637     1.0000 0.55570  0.91830  0.79480  Biso   1.000  C
  H1807    1.0000 0.56520  0.91110  0.77660  Biso   1.000  H
  H1808    1.0000 0.55680  0.90250  0.80960  Biso   1.000  H
  N107     1.0000 0.64391  0.97615  0.83458  Biso   1.000  N
  C638     1.0000 0.52300  0.92580  0.78840  Biso   1.000  C
  H1809    1.0000 0.51020  0.91390  0.80120  Biso   1.000  H
  H1810    1.0000 0.51830  0.92090  0.76780  Biso   1.000  H
  C639     1.0000 0.60680  0.90530  0.88140  Biso   1.000  C
  H1811    1.0000 0.61660  0.92310  0.88900  Biso   1.000  H
  H1812    1.0000 0.58630  0.91060  0.87650  Biso   1.000  H
  H1813    1.0000 0.66340  0.90380  0.87100  Biso   1.000  H
  C640     1.0000 0.62720  0.98540  0.85990  Biso   1.000  C
  H1814    1.0000 0.60650  0.98860  0.85420  Biso   1.000  H
  H1815    1.0000 0.62780  0.96990  0.87500  Biso   1.000  H
  C641     1.0000 0.64380  0.00050  0.81240  Biso   1.000  C
  H1816    1.0000 0.65510  0.99450  0.79490  Biso   1.000  H
  H1817    1.0000 0.62340  0.00470  0.80620  Biso   1.000  H
  C642     1.0000 0.67450  0.97200  0.84260  Biso   1.000  C
  H1818    1.0000 0.67600  0.95560  0.85680  Biso   1.000  H
  H1819    1.0000 0.68590  0.96660  0.82490  Biso   1.000  H
  H1820    1.0000 0.43600  0.37360  0.33890  Biso   1.000  H
  H1821    1.0000 0.43960  0.40240  0.28560  Biso   1.000  H
  H1822    1.0000 0.53300  0.47050  0.25460  Biso   1.000  H
  H1823    1.0000 0.57940  0.48490  0.29000  Biso   1.000  H
  C643     1.0000 0.55570  0.41830  0.29480  Biso   1.000  C
  H1824    1.0000 0.56520  0.41110  0.27660  Biso   1.000  H
  H1825    1.0000 0.55680  0.40250  0.30960  Biso   1.000  H
  N108     1.0000 0.64391  0.47615  0.33458  Biso   1.000  N
  C644     1.0000 0.52300  0.42580  0.28840  Biso   1.000  C
  H1826    1.0000 0.51020  0.41390  0.30120  Biso   1.000  H
  H1827    1.0000 0.51830  0.42090  0.26780  Biso   1.000  H
  C645     1.0000 0.60680  0.40530  0.38140  Biso   1.000  C
  H1828    1.0000 0.61660  0.42310  0.38900  Biso   1.000  H
  H1829    1.0000 0.58630  0.41060  0.37650  Biso   1.000  H
  H1830    1.0000 0.66340  0.40380  0.37100  Biso   1.000  H
  C646     1.0000 0.62720  0.48540  0.35990  Biso   1.000  C
  H1831    1.0000 0.60650  0.48860  0.35420  Biso   1.000  H
  H1832    1.0000 0.62780  0.46990  0.37500  Biso   1.000  H
  C647     1.0000 0.64380  0.50050  0.31240  Biso   1.000  C
  H1833    1.0000 0.65510  0.49450  0.29490  Biso   1.000  H
  H1834    1.0000 0.62340  0.50470  0.30620  Biso   1.000  H
  C648     1.0000 0.67450  0.47200  0.34260  Biso   1.000  C
  H1835    1.0000 0.67600  0.45560  0.35680  Biso   1.000  H
  H1836    1.0000 0.68590  0.46660  0.32490  Biso   1.000  H
  H1837    1.0000 0.31400  0.87640  0.83890  Biso   1.000  H
  H1838    1.0000 0.31040  0.84760  0.78560  Biso   1.000  H
  H1839    1.0000 0.21700  0.77950  0.75460  Biso   1.000  H
  H1840    1.0000 0.17060  0.76510  0.79000  Biso   1.000  H
  C649     1.0000 0.19430  0.83170  0.79480  Biso   1.000  C
  H1841    1.0000 0.18480  0.83890  0.77660  Biso   1.000  H
  H1842    1.0000 0.19320  0.84750  0.80960  Biso   1.000  H
  N109     1.0000 0.10609  0.77385  0.83458  Biso   1.000  N
  C650     1.0000 0.22700  0.82420  0.78840  Biso   1.000  C
  H1843    1.0000 0.23980  0.83610  0.80120  Biso   1.000  H
  H1844    1.0000 0.23170  0.82910  0.76780  Biso   1.000  H
  C651     1.0000 0.14320  0.84470  0.88140  Biso   1.000  C
  H1845    1.0000 0.13340  0.82690  0.88900  Biso   1.000  H
  H1846    1.0000 0.16370  0.83940  0.87650  Biso   1.000  H
  H1847    1.0000 0.08660  0.84620  0.87100  Biso   1.000  H
  C652     1.0000 0.12280  0.76460  0.85990  Biso   1.000  C
  H1848    1.0000 0.14350  0.76140  0.85420  Biso   1.000  H
  H1849    1.0000 0.12220  0.78010  0.87500  Biso   1.000  H
  C653     1.0000 0.10620  0.74950  0.81240  Biso   1.000  C
  H1850    1.0000 0.09490  0.75550  0.79490  Biso   1.000  H
  H1851    1.0000 0.12660  0.74530  0.80620  Biso   1.000  H
  C654     1.0000 0.07550  0.77800  0.84260  Biso   1.000  C
  H1852    1.0000 0.07400  0.79440  0.85680  Biso   1.000  H
  H1853    1.0000 0.06410  0.78340  0.82490  Biso   1.000  H
  H1854    1.0000 0.31400  0.37640  0.33890  Biso   1.000  H
  H1855    1.0000 0.31040  0.34760  0.28560  Biso   1.000  H
  H1856    1.0000 0.21700  0.27950  0.25460  Biso   1.000  H
  H1857    1.0000 0.17060  0.26510  0.29000  Biso   1.000  H
  C655     1.0000 0.19430  0.33170  0.29480  Biso   1.000  C
  H1858    1.0000 0.18480  0.33890  0.27660  Biso   1.000  H
  H1859    1.0000 0.19320  0.34750  0.30960  Biso   1.000  H
  N110     1.0000 0.10609  0.27385  0.33458  Biso   1.000  N
  C656     1.0000 0.22700  0.32420  0.28840  Biso   1.000  C
  H1860    1.0000 0.23980  0.33610  0.30120  Biso   1.000  H
  H1861    1.0000 0.23170  0.32910  0.26780  Biso   1.000  H
  C657     1.0000 0.14320  0.34470  0.38140  Biso   1.000  C
  H1862    1.0000 0.13340  0.32690  0.38900  Biso   1.000  H
  H1863    1.0000 0.16370  0.33940  0.37650  Biso   1.000  H
  H1864    1.0000 0.08660  0.34620  0.37100  Biso   1.000  H
  C658     1.0000 0.12280  0.26460  0.35990  Biso   1.000  C
  H1865    1.0000 0.14350  0.26140  0.35420  Biso   1.000  H
  H1866    1.0000 0.12220  0.28010  0.37500  Biso   1.000  H
  C659     1.0000 0.10620  0.24950  0.31240  Biso   1.000  C
  H1867    1.0000 0.09490  0.25550  0.29490  Biso   1.000  H
  H1868    1.0000 0.12660  0.24530  0.30620  Biso   1.000  H
  C660     1.0000 0.07550  0.27800  0.34260  Biso   1.000  C
  H1869    1.0000 0.07400  0.29440  0.35680  Biso   1.000  H
  H1870    1.0000 0.06410  0.28340  0.32490  Biso   1.000  H
  H1871    1.0000 0.81400  0.87640  0.33890  Biso   1.000  H
  H1872    1.0000 0.81040  0.84760  0.28560  Biso   1.000  H
  H1873    1.0000 0.71700  0.77950  0.25460  Biso   1.000  H
  H1874    1.0000 0.67060  0.76510  0.29000  Biso   1.000  H
  C661     1.0000 0.69430  0.83170  0.29480  Biso   1.000  C
  H1875    1.0000 0.68480  0.83890  0.27660  Biso   1.000  H
  H1876    1.0000 0.69320  0.84750  0.30960  Biso   1.000  H
  N111     1.0000 0.60609  0.77385  0.33458  Biso   1.000  N
  C662     1.0000 0.72700  0.82420  0.28840  Biso   1.000  C
  H1877    1.0000 0.73980  0.83610  0.30120  Biso   1.000  H
  H1878    1.0000 0.73170  0.82910  0.26780  Biso   1.000  H
  C663     1.0000 0.64320  0.84470  0.38140  Biso   1.000  C
  H1879    1.0000 0.63340  0.82690  0.38900  Biso   1.000  H
  H1880    1.0000 0.66370  0.83940  0.37650  Biso   1.000  H
  H1881    1.0000 0.58660  0.84620  0.37100  Biso   1.000  H
  C664     1.0000 0.62280  0.76460  0.35990  Biso   1.000  C
  H1882    1.0000 0.64350  0.76140  0.35420  Biso   1.000  H
  H1883    1.0000 0.62220  0.78010  0.37500  Biso   1.000  H
  C665     1.0000 0.60620  0.74950  0.31240  Biso   1.000  C
  H1884    1.0000 0.59490  0.75550  0.29490  Biso   1.000  H
  H1885    1.0000 0.62660  0.74530  0.30620  Biso   1.000  H
  C666     1.0000 0.57550  0.77800  0.34260  Biso   1.000  C
  H1886    1.0000 0.57400  0.79440  0.35680  Biso   1.000  H
  H1887    1.0000 0.56410  0.78340  0.32490  Biso   1.000  H
  H1888    1.0000 0.81400  0.37640  0.83890  Biso   1.000  H
  H1889    1.0000 0.81040  0.34760  0.78560  Biso   1.000  H
  H1890    1.0000 0.71700  0.27950  0.75460  Biso   1.000  H
  H1891    1.0000 0.67060  0.26510  0.79000  Biso   1.000  H
  C667     1.0000 0.69430  0.33170  0.79480  Biso   1.000  C
  H1892    1.0000 0.68480  0.33890  0.77660  Biso   1.000  H
  H1893    1.0000 0.69320  0.34750  0.80960  Biso   1.000  H
  N112     1.0000 0.60609  0.27385  0.83458  Biso   1.000  N
  C668     1.0000 0.72700  0.32420  0.78840  Biso   1.000  C
  H1894    1.0000 0.73980  0.33610  0.80120  Biso   1.000  H
  H1895    1.0000 0.73170  0.32910  0.76780  Biso   1.000  H
  C669     1.0000 0.64320  0.34470  0.88140  Biso   1.000  C
  H1896    1.0000 0.63340  0.32690  0.88900  Biso   1.000  H
  H1897    1.0000 0.66370  0.33940  0.87650  Biso   1.000  H
  H1898    1.0000 0.58660  0.34620  0.87100  Biso   1.000  H
  C670     1.0000 0.62280  0.26460  0.85990  Biso   1.000  C
  H1899    1.0000 0.64350  0.26140  0.85420  Biso   1.000  H
  H1900    1.0000 0.62220  0.28010  0.87500  Biso   1.000  H
  C671     1.0000 0.60620  0.24950  0.81240  Biso   1.000  C
  H1901    1.0000 0.59490  0.25550  0.79490  Biso   1.000  H
  H1902    1.0000 0.62660  0.24530  0.80620  Biso   1.000  H
  C672     1.0000 0.57550  0.27800  0.84260  Biso   1.000  C
  H1903    1.0000 0.57400  0.29440  0.85680  Biso   1.000  H
  H1904    1.0000 0.56410  0.28340  0.82490  Biso   1.000  H
  H1905    1.0000 0.91110  0.81400  0.37360  Biso   1.000  H
  H1906    1.0000 0.96440  0.81040  0.40240  Biso   1.000  H
  H1907    1.0000 0.99540  0.71700  0.47050  Biso   1.000  H
  H1908    1.0000 0.96000  0.67060  0.48490  Biso   1.000  H
  C673     1.0000 0.95520  0.69430  0.41830  Biso   1.000  C
  H1909    1.0000 0.97340  0.68480  0.41110  Biso   1.000  H
  H1910    1.0000 0.94040  0.69320  0.40250  Biso   1.000  H
  N113     1.0000 0.91542  0.60609  0.47615  Biso   1.000  N
  C674     1.0000 0.96160  0.72700  0.42580  Biso   1.000  C
  H1911    1.0000 0.94880  0.73980  0.41390  Biso   1.000  H
  H1912    1.0000 0.98220  0.73170  0.42090  Biso   1.000  H
  C675     1.0000 0.86860  0.64320  0.40530  Biso   1.000  C
  H1913    1.0000 0.86100  0.63340  0.42310  Biso   1.000  H
  H1914    1.0000 0.87350  0.66370  0.41060  Biso   1.000  H
  H1915    1.0000 0.87900  0.58660  0.40380  Biso   1.000  H
  C676     1.0000 0.89010  0.62280  0.48540  Biso   1.000  C
  H1916    1.0000 0.89580  0.64350  0.48860  Biso   1.000  H
  H1917    1.0000 0.87500  0.62220  0.46990  Biso   1.000  H
  C677     1.0000 0.93760  0.60620  0.50050  Biso   1.000  C
  H1918    1.0000 0.95510  0.59490  0.49450  Biso   1.000  H
  H1919    1.0000 0.94380  0.62660  0.50470  Biso   1.000  H
  C678     1.0000 0.90740  0.57550  0.47200  Biso   1.000  C
  H1920    1.0000 0.89320  0.57400  0.45560  Biso   1.000  H
  H1921    1.0000 0.92510  0.56410  0.46660  Biso   1.000  H
  H1922    1.0000 0.91110  0.31400  0.87360  Biso   1.000  H
  H1923    1.0000 0.96440  0.31040  0.90240  Biso   1.000  H
  H1924    1.0000 0.99540  0.21700  0.97050  Biso   1.000  H
  H1925    1.0000 0.96000  0.17060  0.98490  Biso   1.000  H
  C679     1.0000 0.95520  0.19430  0.91830  Biso   1.000  C
  H1926    1.0000 0.97340  0.18480  0.91110  Biso   1.000  H
  H1927    1.0000 0.94040  0.19320  0.90250  Biso   1.000  H
  N114     1.0000 0.91542  0.10609  0.97615  Biso   1.000  N
  C680     1.0000 0.96160  0.22700  0.92580  Biso   1.000  C
  H1928    1.0000 0.94880  0.23980  0.91390  Biso   1.000  H
  H1929    1.0000 0.98220  0.23170  0.92090  Biso   1.000  H
  C681     1.0000 0.86860  0.14320  0.90530  Biso   1.000  C
  H1930    1.0000 0.86100  0.13340  0.92310  Biso   1.000  H
  H1931    1.0000 0.87350  0.16370  0.91060  Biso   1.000  H
  H1932    1.0000 0.87900  0.08660  0.90380  Biso   1.000  H
  C682     1.0000 0.89010  0.12280  0.98540  Biso   1.000  C
  H1933    1.0000 0.89580  0.14350  0.98860  Biso   1.000  H
  H1934    1.0000 0.87500  0.12220  0.96990  Biso   1.000  H
  C683     1.0000 0.93760  0.10620  0.00050  Biso   1.000  C
  H1935    1.0000 0.95510  0.09490  0.99450  Biso   1.000  H
  H1936    1.0000 0.94380  0.12660  0.00470  Biso   1.000  H
  C684     1.0000 0.90740  0.07550  0.97200  Biso   1.000  C
  H1937    1.0000 0.89320  0.07400  0.95560  Biso   1.000  H
  H1938    1.0000 0.92510  0.06410  0.96660  Biso   1.000  H
  H1939    1.0000 0.41110  0.81400  0.87360  Biso   1.000  H
  H1940    1.0000 0.46440  0.81040  0.90240  Biso   1.000  H
  H1941    1.0000 0.49540  0.71700  0.97050  Biso   1.000  H
  H1942    1.0000 0.46000  0.67060  0.98490  Biso   1.000  H
  C685     1.0000 0.45520  0.69430  0.91830  Biso   1.000  C
  H1943    1.0000 0.47340  0.68480  0.91110  Biso   1.000  H
  H1944    1.0000 0.44040  0.69320  0.90250  Biso   1.000  H
  N115     1.0000 0.41542  0.60609  0.97615  Biso   1.000  N
  C686     1.0000 0.46160  0.72700  0.92580  Biso   1.000  C
  H1945    1.0000 0.44880  0.73980  0.91390  Biso   1.000  H
  H1946    1.0000 0.48220  0.73170  0.92090  Biso   1.000  H
  C687     1.0000 0.36860  0.64320  0.90530  Biso   1.000  C
  H1947    1.0000 0.36100  0.63340  0.92310  Biso   1.000  H
  H1948    1.0000 0.37350  0.66370  0.91060  Biso   1.000  H
  H1949    1.0000 0.37900  0.58660  0.90380  Biso   1.000  H
  C688     1.0000 0.39010  0.62280  0.98540  Biso   1.000  C
  H1950    1.0000 0.39580  0.64350  0.98860  Biso   1.000  H
  H1951    1.0000 0.37500  0.62220  0.96990  Biso   1.000  H
  C689     1.0000 0.43760  0.60620  0.00050  Biso   1.000  C
  H1952    1.0000 0.45510  0.59490  0.99450  Biso   1.000  H
  H1953    1.0000 0.44380  0.62660  0.00470  Biso   1.000  H
  C690     1.0000 0.40740  0.57550  0.97200  Biso   1.000  C
  H1954    1.0000 0.39320  0.57400  0.95560  Biso   1.000  H
  H1955    1.0000 0.42510  0.56410  0.96660  Biso   1.000  H
  H1956    1.0000 0.41110  0.31400  0.37360  Biso   1.000  H
  H1957    1.0000 0.46440  0.31040  0.40240  Biso   1.000  H
  H1958    1.0000 0.49540  0.21700  0.47050  Biso   1.000  H
  H1959    1.0000 0.46000  0.17060  0.48490  Biso   1.000  H
  C691     1.0000 0.45520  0.19430  0.41830  Biso   1.000  C
  H1960    1.0000 0.47340  0.18480  0.41110  Biso   1.000  H
  H1961    1.0000 0.44040  0.19320  0.40250  Biso   1.000  H
  N116     1.0000 0.41542  0.10609  0.47615  Biso   1.000  N
  C692     1.0000 0.46160  0.22700  0.42580  Biso   1.000  C
  H1962    1.0000 0.44880  0.23980  0.41390  Biso   1.000  H
  H1963    1.0000 0.48220  0.23170  0.42090  Biso   1.000  H
  C693     1.0000 0.36860  0.14320  0.40530  Biso   1.000  C
  H1964    1.0000 0.36100  0.13340  0.42310  Biso   1.000  H
  H1965    1.0000 0.37350  0.16370  0.41060  Biso   1.000  H
  H1966    1.0000 0.37900  0.08660  0.40380  Biso   1.000  H
  C694     1.0000 0.39010  0.12280  0.48540  Biso   1.000  C
  H1967    1.0000 0.39580  0.14350  0.48860  Biso   1.000  H
  H1968    1.0000 0.37500  0.12220  0.46990  Biso   1.000  H
  C695     1.0000 0.43760  0.10620  0.50050  Biso   1.000  C
  H1969    1.0000 0.45510  0.09490  0.49450  Biso   1.000  H
  H1970    1.0000 0.44380  0.12660  0.50470  Biso   1.000  H
  C696     1.0000 0.40740  0.07550  0.47200  Biso   1.000  C
  H1971    1.0000 0.39320  0.07400  0.45560  Biso   1.000  H
  H1972    1.0000 0.42510  0.06410  0.46660  Biso   1.000  H
  H1973    1.0000 0.41110  0.43600  0.37640  Biso   1.000  H
  H1974    1.0000 0.46440  0.43960  0.34760  Biso   1.000  H
  H1975    1.0000 0.49540  0.53300  0.27950  Biso   1.000  H
  H1976    1.0000 0.46000  0.57940  0.26510  Biso   1.000  H
  C697     1.0000 0.45520  0.55570  0.33170  Biso   1.000  C
  H1977    1.0000 0.47340  0.56520  0.33890  Biso   1.000  H
  H1978    1.0000 0.44040  0.55680  0.34750  Biso   1.000  H
  N117     1.0000 0.41542  0.64391  0.27385  Biso   1.000  N
  C698     1.0000 0.46160  0.52300  0.32420  Biso   1.000  C
  H1979    1.0000 0.44880  0.51020  0.33610  Biso   1.000  H
  H1980    1.0000 0.48220  0.51830  0.32910  Biso   1.000  H
  C699     1.0000 0.36860  0.60680  0.34470  Biso   1.000  C
  H1981    1.0000 0.36100  0.61660  0.32690  Biso   1.000  H
  H1982    1.0000 0.37350  0.58630  0.33940  Biso   1.000  H
  H1983    1.0000 0.37900  0.66340  0.34620  Biso   1.000  H
  C700     1.0000 0.39010  0.62720  0.26460  Biso   1.000  C
  H1984    1.0000 0.39580  0.60650  0.26140  Biso   1.000  H
  H1985    1.0000 0.37500  0.62780  0.28010  Biso   1.000  H
  C701     1.0000 0.43760  0.64380  0.24950  Biso   1.000  C
  H1986    1.0000 0.45510  0.65510  0.25550  Biso   1.000  H
  H1987    1.0000 0.44380  0.62340  0.24530  Biso   1.000  H
  C702     1.0000 0.40740  0.67450  0.27800  Biso   1.000  C
  H1988    1.0000 0.39320  0.67600  0.29440  Biso   1.000  H
  H1989    1.0000 0.42510  0.68590  0.28340  Biso   1.000  H
  H1990    1.0000 0.41110  0.93600  0.87640  Biso   1.000  H
  H1991    1.0000 0.46440  0.93960  0.84760  Biso   1.000  H
  H1992    1.0000 0.49540  0.03300  0.77950  Biso   1.000  H
  H1993    1.0000 0.46000  0.07940  0.76510  Biso   1.000  H
  C703     1.0000 0.45520  0.05570  0.83170  Biso   1.000  C
  H1994    1.0000 0.47340  0.06520  0.83890  Biso   1.000  H
  H1995    1.0000 0.44040  0.05680  0.84750  Biso   1.000  H
  N118     1.0000 0.41542  0.14391  0.77385  Biso   1.000  N
  C704     1.0000 0.46160  0.02300  0.82420  Biso   1.000  C
  H1996    1.0000 0.44880  0.01020  0.83610  Biso   1.000  H
  H1997    1.0000 0.48220  0.01830  0.82910  Biso   1.000  H
  C705     1.0000 0.36860  0.10680  0.84470  Biso   1.000  C
  H1998    1.0000 0.36100  0.11660  0.82690  Biso   1.000  H
  H1999    1.0000 0.37350  0.08630  0.83940  Biso   1.000  H
  H2000    1.0000 0.37900  0.16340  0.84620  Biso   1.000  H
  C706     1.0000 0.39010  0.12720  0.76460  Biso   1.000  C
  H2001    1.0000 0.39580  0.10650  0.76140  Biso   1.000  H
  H2002    1.0000 0.37500  0.12780  0.78010  Biso   1.000  H
  C707     1.0000 0.43760  0.14380  0.74950  Biso   1.000  C
  H2003    1.0000 0.45510  0.15510  0.75550  Biso   1.000  H
  H2004    1.0000 0.44380  0.12340  0.74530  Biso   1.000  H
  C708     1.0000 0.40740  0.17450  0.77800  Biso   1.000  C
  H2005    1.0000 0.39320  0.17600  0.79440  Biso   1.000  H
  H2006    1.0000 0.42510  0.18590  0.78340  Biso   1.000  H
  H2007    1.0000 0.91110  0.43600  0.87640  Biso   1.000  H
  H2008    1.0000 0.96440  0.43960  0.84760  Biso   1.000  H
  H2009    1.0000 0.99540  0.53300  0.77950  Biso   1.000  H
  H2010    1.0000 0.96000  0.57940  0.76510  Biso   1.000  H
  C709     1.0000 0.95520  0.55570  0.83170  Biso   1.000  C
  H2011    1.0000 0.97340  0.56520  0.83890  Biso   1.000  H
  H2012    1.0000 0.94040  0.55680  0.84750  Biso   1.000  H
  N119     1.0000 0.91542  0.64391  0.77385  Biso   1.000  N
  C710     1.0000 0.96160  0.52300  0.82420  Biso   1.000  C
  H2013    1.0000 0.94880  0.51020  0.83610  Biso   1.000  H
  H2014    1.0000 0.98220  0.51830  0.82910  Biso   1.000  H
  C711     1.0000 0.86860  0.60680  0.84470  Biso   1.000  C
  H2015    1.0000 0.86100  0.61660  0.82690  Biso   1.000  H
  H2016    1.0000 0.87350  0.58630  0.83940  Biso   1.000  H
  H2017    1.0000 0.87900  0.66340  0.84620  Biso   1.000  H
  C712     1.0000 0.89010  0.62720  0.76460  Biso   1.000  C
  H2018    1.0000 0.89580  0.60650  0.76140  Biso   1.000  H
  H2019    1.0000 0.87500  0.62780  0.78010  Biso   1.000  H
  C713     1.0000 0.93760  0.64380  0.74950  Biso   1.000  C
  H2020    1.0000 0.95510  0.65510  0.75550  Biso   1.000  H
  H2021    1.0000 0.94380  0.62340  0.74530  Biso   1.000  H
  C714     1.0000 0.90740  0.67450  0.77800  Biso   1.000  C
  H2022    1.0000 0.89320  0.67600  0.79440  Biso   1.000  H
  H2023    1.0000 0.92510  0.68590  0.78340  Biso   1.000  H
  H2024    1.0000 0.91110  0.93600  0.37640  Biso   1.000  H
  H2025    1.0000 0.96440  0.93960  0.34760  Biso   1.000  H
  H2026    1.0000 0.99540  0.03300  0.27950  Biso   1.000  H
  H2027    1.0000 0.96000  0.07940  0.26510  Biso   1.000  H
  C715     1.0000 0.95520  0.05570  0.33170  Biso   1.000  C
  H2028    1.0000 0.97340  0.06520  0.33890  Biso   1.000  H
  H2029    1.0000 0.94040  0.05680  0.34750  Biso   1.000  H
  N120     1.0000 0.91542  0.14391  0.27385  Biso   1.000  N
  C716     1.0000 0.96160  0.02300  0.32420  Biso   1.000  C
  H2030    1.0000 0.94880  0.01020  0.33610  Biso   1.000  H
  H2031    1.0000 0.98220  0.01830  0.32910  Biso   1.000  H
  C717     1.0000 0.86860  0.10680  0.34470  Biso   1.000  C
  H2032    1.0000 0.86100  0.11660  0.32690  Biso   1.000  H
  H2033    1.0000 0.87350  0.08630  0.33940  Biso   1.000  H
  H2034    1.0000 0.87900  0.16340  0.34620  Biso   1.000  H
  C718     1.0000 0.89010  0.12720  0.26460  Biso   1.000  C
  H2035    1.0000 0.89580  0.10650  0.26140  Biso   1.000  H
  H2036    1.0000 0.87500  0.12780  0.28010  Biso   1.000  H
  C719     1.0000 0.93760  0.14380  0.24950  Biso   1.000  C
  H2037    1.0000 0.95510  0.15510  0.25550  Biso   1.000  H
  H2038    1.0000 0.94380  0.12340  0.24530  Biso   1.000  H
  C720     1.0000 0.90740  0.17450  0.27800  Biso   1.000  C
  H2039    1.0000 0.89320  0.17600  0.29440  Biso   1.000  H
  H2040    1.0000 0.92510  0.18590  0.28340  Biso   1.000  H
  H2041    1.0000 0.33890  0.93600  0.87360  Biso   1.000  H
  H2042    1.0000 0.28560  0.93960  0.90240  Biso   1.000  H
  H2043    1.0000 0.25460  0.03300  0.97050  Biso   1.000  H
  H2044    1.0000 0.29000  0.07940  0.98490  Biso   1.000  H
  C721     1.0000 0.29480  0.05570  0.91830  Biso   1.000  C
  H2045    1.0000 0.27660  0.06520  0.91110  Biso   1.000  H
  H2046    1.0000 0.30960  0.05680  0.90250  Biso   1.000  H
  N121     1.0000 0.33458  0.14391  0.97615  Biso   1.000  N
  C722     1.0000 0.28840  0.02300  0.92580  Biso   1.000  C
  H2047    1.0000 0.30120  0.01020  0.91390  Biso   1.000  H
  H2048    1.0000 0.26780  0.01830  0.92090  Biso   1.000  H
  C723     1.0000 0.38140  0.10680  0.90530  Biso   1.000  C
  H2049    1.0000 0.38900  0.11660  0.92310  Biso   1.000  H
  H2050    1.0000 0.37650  0.08630  0.91060  Biso   1.000  H
  H2051    1.0000 0.37100  0.16340  0.90380  Biso   1.000  H
  C724     1.0000 0.35990  0.12720  0.98540  Biso   1.000  C
  H2052    1.0000 0.35420  0.10650  0.98860  Biso   1.000  H
  H2053    1.0000 0.37500  0.12780  0.96990  Biso   1.000  H
  C725     1.0000 0.31240  0.14380  0.00050  Biso   1.000  C
  H2054    1.0000 0.29490  0.15510  0.99450  Biso   1.000  H
  H2055    1.0000 0.30620  0.12340  0.00470  Biso   1.000  H
  C726     1.0000 0.34260  0.17450  0.97200  Biso   1.000  C
  H2056    1.0000 0.35680  0.17600  0.95560  Biso   1.000  H
  H2057    1.0000 0.32490  0.18590  0.96660  Biso   1.000  H
  H2058    1.0000 0.33890  0.43600  0.37360  Biso   1.000  H
  H2059    1.0000 0.28560  0.43960  0.40240  Biso   1.000  H
  H2060    1.0000 0.25460  0.53300  0.47050  Biso   1.000  H
  H2061    1.0000 0.29000  0.57940  0.48490  Biso   1.000  H
  C727     1.0000 0.29480  0.55570  0.41830  Biso   1.000  C
  H2062    1.0000 0.27660  0.56520  0.41110  Biso   1.000  H
  H2063    1.0000 0.30960  0.55680  0.40250  Biso   1.000  H
  N122     1.0000 0.33458  0.64391  0.47615  Biso   1.000  N
  C728     1.0000 0.28840  0.52300  0.42580  Biso   1.000  C
  H2064    1.0000 0.30120  0.51020  0.41390  Biso   1.000  H
  H2065    1.0000 0.26780  0.51830  0.42090  Biso   1.000  H
  C729     1.0000 0.38140  0.60680  0.40530  Biso   1.000  C
  H2066    1.0000 0.38900  0.61660  0.42310  Biso   1.000  H
  H2067    1.0000 0.37650  0.58630  0.41060  Biso   1.000  H
  H2068    1.0000 0.37100  0.66340  0.40380  Biso   1.000  H
  C730     1.0000 0.35990  0.62720  0.48540  Biso   1.000  C
  H2069    1.0000 0.35420  0.60650  0.48860  Biso   1.000  H
  H2070    1.0000 0.37500  0.62780  0.46990  Biso   1.000  H
  C731     1.0000 0.31240  0.64380  0.50050  Biso   1.000  C
  H2071    1.0000 0.29490  0.65510  0.49450  Biso   1.000  H
  H2072    1.0000 0.30620  0.62340  0.50470  Biso   1.000  H
  C732     1.0000 0.34260  0.67450  0.47200  Biso   1.000  C
  H2073    1.0000 0.35680  0.67600  0.45560  Biso   1.000  H
  H2074    1.0000 0.32490  0.68590  0.46660  Biso   1.000  H
  H2075    1.0000 0.83890  0.93600  0.37360  Biso   1.000  H
  H2076    1.0000 0.78560  0.93960  0.40240  Biso   1.000  H
  H2077    1.0000 0.75460  0.03300  0.47050  Biso   1.000  H
  H2078    1.0000 0.79000  0.07940  0.48490  Biso   1.000  H
  C733     1.0000 0.79480  0.05570  0.41830  Biso   1.000  C
  H2079    1.0000 0.77660  0.06520  0.41110  Biso   1.000  H
  H2080    1.0000 0.80960  0.05680  0.40250  Biso   1.000  H
  N123     1.0000 0.83458  0.14391  0.47615  Biso   1.000  N
  C734     1.0000 0.78840  0.02300  0.42580  Biso   1.000  C
  H2081    1.0000 0.80120  0.01020  0.41390  Biso   1.000  H
  H2082    1.0000 0.76780  0.01830  0.42090  Biso   1.000  H
  C735     1.0000 0.88140  0.10680  0.40530  Biso   1.000  C
  H2083    1.0000 0.88900  0.11660  0.42310  Biso   1.000  H
  H2084    1.0000 0.87650  0.08630  0.41060  Biso   1.000  H
  H2085    1.0000 0.87100  0.16340  0.40380  Biso   1.000  H
  C736     1.0000 0.85990  0.12720  0.48540  Biso   1.000  C
  H2086    1.0000 0.85420  0.10650  0.48860  Biso   1.000  H
  H2087    1.0000 0.87500  0.12780  0.46990  Biso   1.000  H
  C737     1.0000 0.81240  0.14380  0.50050  Biso   1.000  C
  H2088    1.0000 0.79490  0.15510  0.49450  Biso   1.000  H
  H2089    1.0000 0.80620  0.12340  0.50470  Biso   1.000  H
  C738     1.0000 0.84260  0.17450  0.47200  Biso   1.000  C
  H2090    1.0000 0.85680  0.17600  0.45560  Biso   1.000  H
  H2091    1.0000 0.82490  0.18590  0.46660  Biso   1.000  H
  H2092    1.0000 0.83890  0.43600  0.87360  Biso   1.000  H
  H2093    1.0000 0.78560  0.43960  0.90240  Biso   1.000  H
  H2094    1.0000 0.75460  0.53300  0.97050  Biso   1.000  H
  H2095    1.0000 0.79000  0.57940  0.98490  Biso   1.000  H
  C739     1.0000 0.79480  0.55570  0.91830  Biso   1.000  C
  H2096    1.0000 0.77660  0.56520  0.91110  Biso   1.000  H
  H2097    1.0000 0.80960  0.55680  0.90250  Biso   1.000  H
  N124     1.0000 0.83458  0.64391  0.97615  Biso   1.000  N
  C740     1.0000 0.78840  0.52300  0.92580  Biso   1.000  C
  H2098    1.0000 0.80120  0.51020  0.91390  Biso   1.000  H
  H2099    1.0000 0.76780  0.51830  0.92090  Biso   1.000  H
  C741     1.0000 0.88140  0.60680  0.90530  Biso   1.000  C
  H2100    1.0000 0.88900  0.61660  0.92310  Biso   1.000  H
  H2101    1.0000 0.87650  0.58630  0.91060  Biso   1.000  H
  H2102    1.0000 0.87100  0.66340  0.90380  Biso   1.000  H
  C742     1.0000 0.85990  0.62720  0.98540  Biso   1.000  C
  H2103    1.0000 0.85420  0.60650  0.98860  Biso   1.000  H
  H2104    1.0000 0.87500  0.62780  0.96990  Biso   1.000  H
  C743     1.0000 0.81240  0.64380  0.00050  Biso   1.000  C
  H2105    1.0000 0.79490  0.65510  0.99450  Biso   1.000  H
  H2106    1.0000 0.80620  0.62340  0.00470  Biso   1.000  H
  C744     1.0000 0.84260  0.67450  0.97200  Biso   1.000  C
  H2107    1.0000 0.85680  0.67600  0.95560  Biso   1.000  H
  H2108    1.0000 0.82490  0.68590  0.96660  Biso   1.000  H
  H2109    1.0000 0.83890  0.31400  0.87640  Biso   1.000  H
  H2110    1.0000 0.78560  0.31040  0.84760  Biso   1.000  H
  H2111    1.0000 0.75460  0.21700  0.77950  Biso   1.000  H
  H2112    1.0000 0.79000  0.17060  0.76510  Biso   1.000  H
  C745     1.0000 0.79480  0.19430  0.83170  Biso   1.000  C
  H2113    1.0000 0.77660  0.18480  0.83890  Biso   1.000  H
  H2114    1.0000 0.80960  0.19320  0.84750  Biso   1.000  H
  N125     1.0000 0.83458  0.10609  0.77385  Biso   1.000  N
  C746     1.0000 0.78840  0.22700  0.82420  Biso   1.000  C
  H2115    1.0000 0.80120  0.23980  0.83610  Biso   1.000  H
  H2116    1.0000 0.76780  0.23170  0.82910  Biso   1.000  H
  C747     1.0000 0.88140  0.14320  0.84470  Biso   1.000  C
  H2117    1.0000 0.88900  0.13340  0.82690  Biso   1.000  H
  H2118    1.0000 0.87650  0.16370  0.83940  Biso   1.000  H
  H2119    1.0000 0.87100  0.08660  0.84620  Biso   1.000  H
  C748     1.0000 0.85990  0.12280  0.76460  Biso   1.000  C
  H2120    1.0000 0.85420  0.14350  0.76140  Biso   1.000  H
  H2121    1.0000 0.87500  0.12220  0.78010  Biso   1.000  H
  C749     1.0000 0.81240  0.10620  0.74950  Biso   1.000  C
  H2122    1.0000 0.79490  0.09490  0.75550  Biso   1.000  H
  H2123    1.0000 0.80620  0.12660  0.74530  Biso   1.000  H
  C750     1.0000 0.84260  0.07550  0.77800  Biso   1.000  C
  H2124    1.0000 0.85680  0.07400  0.79440  Biso   1.000  H
  H2125    1.0000 0.82490  0.06410  0.78340  Biso   1.000  H
  H2126    1.0000 0.83890  0.81400  0.37640  Biso   1.000  H
  H2127    1.0000 0.78560  0.81040  0.34760  Biso   1.000  H
  H2128    1.0000 0.75460  0.71700  0.27950  Biso   1.000  H
  H2129    1.0000 0.79000  0.67060  0.26510  Biso   1.000  H
  C751     1.0000 0.79480  0.69430  0.33170  Biso   1.000  C
  H2130    1.0000 0.77660  0.68480  0.33890  Biso   1.000  H
  H2131    1.0000 0.80960  0.69320  0.34750  Biso   1.000  H
  N126     1.0000 0.83458  0.60609  0.27385  Biso   1.000  N
  C752     1.0000 0.78840  0.72700  0.32420  Biso   1.000  C
  H2132    1.0000 0.80120  0.73980  0.33610  Biso   1.000  H
  H2133    1.0000 0.76780  0.73170  0.32910  Biso   1.000  H
  C753     1.0000 0.88140  0.64320  0.34470  Biso   1.000  C
  H2134    1.0000 0.88900  0.63340  0.32690  Biso   1.000  H
  H2135    1.0000 0.87650  0.66370  0.33940  Biso   1.000  H
  H2136    1.0000 0.87100  0.58660  0.34620  Biso   1.000  H
  C754     1.0000 0.85990  0.62280  0.26460  Biso   1.000  C
  H2137    1.0000 0.85420  0.64350  0.26140  Biso   1.000  H
  H2138    1.0000 0.87500  0.62220  0.28010  Biso   1.000  H
  C755     1.0000 0.81240  0.60620  0.24950  Biso   1.000  C
  H2139    1.0000 0.79490  0.59490  0.25550  Biso   1.000  H
  H2140    1.0000 0.80620  0.62660  0.24530  Biso   1.000  H
  C756     1.0000 0.84260  0.57550  0.27800  Biso   1.000  C
  H2141    1.0000 0.85680  0.57400  0.29440  Biso   1.000  H
  H2142    1.0000 0.82490  0.56410  0.28340  Biso   1.000  H
  H2143    1.0000 0.33890  0.31400  0.37640  Biso   1.000  H
  H2144    1.0000 0.28560  0.31040  0.34760  Biso   1.000  H
  H2145    1.0000 0.25460  0.21700  0.27950  Biso   1.000  H
  H2146    1.0000 0.29000  0.17060  0.26510  Biso   1.000  H
  C757     1.0000 0.29480  0.19430  0.33170  Biso   1.000  C
  H2147    1.0000 0.27660  0.18480  0.33890  Biso   1.000  H
  H2148    1.0000 0.30960  0.19320  0.34750  Biso   1.000  H
  N127     1.0000 0.33458  0.10609  0.27385  Biso   1.000  N
  C758     1.0000 0.28840  0.22700  0.32420  Biso   1.000  C
  H2149    1.0000 0.30120  0.23980  0.33610  Biso   1.000  H
  H2150    1.0000 0.26780  0.23170  0.32910  Biso   1.000  H
  C759     1.0000 0.38140  0.14320  0.34470  Biso   1.000  C
  H2151    1.0000 0.38900  0.13340  0.32690  Biso   1.000  H
  H2152    1.0000 0.37650  0.16370  0.33940  Biso   1.000  H
  H2153    1.0000 0.37100  0.08660  0.34620  Biso   1.000  H
  C760     1.0000 0.35990  0.12280  0.26460  Biso   1.000  C
  H2154    1.0000 0.35420  0.14350  0.26140  Biso   1.000  H
  H2155    1.0000 0.37500  0.12220  0.28010  Biso   1.000  H
  C761     1.0000 0.31240  0.10620  0.24950  Biso   1.000  C
  H2156    1.0000 0.29490  0.09490  0.25550  Biso   1.000  H
  H2157    1.0000 0.30620  0.12660  0.24530  Biso   1.000  H
  C762     1.0000 0.34260  0.07550  0.27800  Biso   1.000  C
  H2158    1.0000 0.35680  0.07400  0.29440  Biso   1.000  H
  H2159    1.0000 0.32490  0.06410  0.28340  Biso   1.000  H
  H2160    1.0000 0.33890  0.81400  0.87640  Biso   1.000  H
  H2161    1.0000 0.28560  0.81040  0.84760  Biso   1.000  H
  H2162    1.0000 0.25460  0.71700  0.77950  Biso   1.000  H
  H2163    1.0000 0.29000  0.67060  0.76510  Biso   1.000  H
  C763     1.0000 0.29480  0.69430  0.83170  Biso   1.000  C
  H2164    1.0000 0.27660  0.68480  0.83890  Biso   1.000  H
  H2165    1.0000 0.30960  0.69320  0.84750  Biso   1.000  H
  N128     1.0000 0.33458  0.60609  0.77385  Biso   1.000  N
  C764     1.0000 0.28840  0.72700  0.82420  Biso   1.000  C
  H2166    1.0000 0.30120  0.73980  0.83610  Biso   1.000  H
  H2167    1.0000 0.26780  0.73170  0.82910  Biso   1.000  H
  C765     1.0000 0.38140  0.64320  0.84470  Biso   1.000  C
  H2168    1.0000 0.38900  0.63340  0.82690  Biso   1.000  H
  H2169    1.0000 0.37650  0.66370  0.83940  Biso   1.000  H
  H2170    1.0000 0.37100  0.58660  0.84620  Biso   1.000  H
  C766     1.0000 0.35990  0.62280  0.76460  Biso   1.000  C
  H2171    1.0000 0.35420  0.64350  0.76140  Biso   1.000  H
  H2172    1.0000 0.37500  0.62220  0.78010  Biso   1.000  H
  C767     1.0000 0.31240  0.60620  0.74950  Biso   1.000  C
  H2173    1.0000 0.29490  0.59490  0.75550  Biso   1.000  H
  H2174    1.0000 0.30620  0.62660  0.74530  Biso   1.000  H
  C768     1.0000 0.34260  0.57550  0.77800  Biso   1.000  C
  H2175    1.0000 0.35680  0.57400  0.79440  Biso   1.000  H
  H2176    1.0000 0.32490  0.56410  0.78340  Biso   1.000  H
  H2177    1.0000 0.37360  0.91110  0.81400  Biso   1.000  H
  H2178    1.0000 0.40240  0.96440  0.81040  Biso   1.000  H
  H2179    1.0000 0.47050  0.99540  0.71700  Biso   1.000  H
  H2180    1.0000 0.48490  0.96000  0.67060  Biso   1.000  H
  C769     1.0000 0.41830  0.95520  0.69430  Biso   1.000  C
  H2181    1.0000 0.41110  0.97340  0.68480  Biso   1.000  H
  H2182    1.0000 0.40250  0.94040  0.69320  Biso   1.000  H
  N129     1.0000 0.47615  0.91542  0.60609  Biso   1.000  N
  C770     1.0000 0.42580  0.96160  0.72700  Biso   1.000  C
  H2183    1.0000 0.41390  0.94880  0.73980  Biso   1.000  H
  H2184    1.0000 0.42090  0.98220  0.73170  Biso   1.000  H
  C771     1.0000 0.40530  0.86860  0.64320  Biso   1.000  C
  H2185    1.0000 0.42310  0.86100  0.63340  Biso   1.000  H
  H2186    1.0000 0.41060  0.87350  0.66370  Biso   1.000  H
  H2187    1.0000 0.40380  0.87900  0.58660  Biso   1.000  H
  C772     1.0000 0.48540  0.89010  0.62280  Biso   1.000  C
  H2188    1.0000 0.48860  0.89580  0.64350  Biso   1.000  H
  H2189    1.0000 0.46990  0.87500  0.62220  Biso   1.000  H
  C773     1.0000 0.50050  0.93760  0.60620  Biso   1.000  C
  H2190    1.0000 0.49450  0.95510  0.59490  Biso   1.000  H
  H2191    1.0000 0.50470  0.94380  0.62660  Biso   1.000  H
  C774     1.0000 0.47200  0.90740  0.57550  Biso   1.000  C
  H2192    1.0000 0.45560  0.89320  0.57400  Biso   1.000  H
  H2193    1.0000 0.46660  0.92510  0.56410  Biso   1.000  H
  H2194    1.0000 0.37360  0.41110  0.31400  Biso   1.000  H
  H2195    1.0000 0.40240  0.46440  0.31040  Biso   1.000  H
  H2196    1.0000 0.47050  0.49540  0.21700  Biso   1.000  H
  H2197    1.0000 0.48490  0.46000  0.17060  Biso   1.000  H
  C775     1.0000 0.41830  0.45520  0.19430  Biso   1.000  C
  H2198    1.0000 0.41110  0.47340  0.18480  Biso   1.000  H
  H2199    1.0000 0.40250  0.44040  0.19320  Biso   1.000  H
  N130     1.0000 0.47615  0.41542  0.10609  Biso   1.000  N
  C776     1.0000 0.42580  0.46160  0.22700  Biso   1.000  C
  H2200    1.0000 0.41390  0.44880  0.23980  Biso   1.000  H
  H2201    1.0000 0.42090  0.48220  0.23170  Biso   1.000  H
  C777     1.0000 0.40530  0.36860  0.14320  Biso   1.000  C
  H2202    1.0000 0.42310  0.36100  0.13340  Biso   1.000  H
  H2203    1.0000 0.41060  0.37350  0.16370  Biso   1.000  H
  H2204    1.0000 0.40380  0.37900  0.08660  Biso   1.000  H
  C778     1.0000 0.48540  0.39010  0.12280  Biso   1.000  C
  H2205    1.0000 0.48860  0.39580  0.14350  Biso   1.000  H
  H2206    1.0000 0.46990  0.37500  0.12220  Biso   1.000  H
  C779     1.0000 0.50050  0.43760  0.10620  Biso   1.000  C
  H2207    1.0000 0.49450  0.45510  0.09490  Biso   1.000  H
  H2208    1.0000 0.50470  0.44380  0.12660  Biso   1.000  H
  C780     1.0000 0.47200  0.40740  0.07550  Biso   1.000  C
  H2209    1.0000 0.45560  0.39320  0.07400  Biso   1.000  H
  H2210    1.0000 0.46660  0.42510  0.06410  Biso   1.000  H
  H2211    1.0000 0.87360  0.91110  0.31400  Biso   1.000  H
  H2212    1.0000 0.90240  0.96440  0.31040  Biso   1.000  H
  H2213    1.0000 0.97050  0.99540  0.21700  Biso   1.000  H
  H2214    1.0000 0.98490  0.96000  0.17060  Biso   1.000  H
  C781     1.0000 0.91830  0.95520  0.19430  Biso   1.000  C
  H2215    1.0000 0.91110  0.97340  0.18480  Biso   1.000  H
  H2216    1.0000 0.90250  0.94040  0.19320  Biso   1.000  H
  N131     1.0000 0.97615  0.91542  0.10609  Biso   1.000  N
  C782     1.0000 0.92580  0.96160  0.22700  Biso   1.000  C
  H2217    1.0000 0.91390  0.94880  0.23980  Biso   1.000  H
  H2218    1.0000 0.92090  0.98220  0.23170  Biso   1.000  H
  C783     1.0000 0.90530  0.86860  0.14320  Biso   1.000  C
  H2219    1.0000 0.92310  0.86100  0.13340  Biso   1.000  H
  H2220    1.0000 0.91060  0.87350  0.16370  Biso   1.000  H
  H2221    1.0000 0.90380  0.87900  0.08660  Biso   1.000  H
  C784     1.0000 0.98540  0.89010  0.12280  Biso   1.000  C
  H2222    1.0000 0.98860  0.89580  0.14350  Biso   1.000  H
  H2223    1.0000 0.96990  0.87500  0.12220  Biso   1.000  H
  C785     1.0000 0.00050  0.93760  0.10620  Biso   1.000  C
  H2224    1.0000 0.99450  0.95510  0.09490  Biso   1.000  H
  H2225    1.0000 0.00470  0.94380  0.12660  Biso   1.000  H
  C786     1.0000 0.97200  0.90740  0.07550  Biso   1.000  C
  H2226    1.0000 0.95560  0.89320  0.07400  Biso   1.000  H
  H2227    1.0000 0.96660  0.92510  0.06410  Biso   1.000  H
  H2228    1.0000 0.87360  0.41110  0.81400  Biso   1.000  H
  H2229    1.0000 0.90240  0.46440  0.81040  Biso   1.000  H
  H2230    1.0000 0.97050  0.49540  0.71700  Biso   1.000  H
  H2231    1.0000 0.98490  0.46000  0.67060  Biso   1.000  H
  C787     1.0000 0.91830  0.45520  0.69430  Biso   1.000  C
  H2232    1.0000 0.91110  0.47340  0.68480  Biso   1.000  H
  H2233    1.0000 0.90250  0.44040  0.69320  Biso   1.000  H
  N132     1.0000 0.97615  0.41542  0.60609  Biso   1.000  N
  C788     1.0000 0.92580  0.46160  0.72700  Biso   1.000  C
  H2234    1.0000 0.91390  0.44880  0.73980  Biso   1.000  H
  H2235    1.0000 0.92090  0.48220  0.73170  Biso   1.000  H
  C789     1.0000 0.90530  0.36860  0.64320  Biso   1.000  C
  H2236    1.0000 0.92310  0.36100  0.63340  Biso   1.000  H
  H2237    1.0000 0.91060  0.37350  0.66370  Biso   1.000  H
  H2238    1.0000 0.90380  0.37900  0.58660  Biso   1.000  H
  C790     1.0000 0.98540  0.39010  0.62280  Biso   1.000  C
  H2239    1.0000 0.98860  0.39580  0.64350  Biso   1.000  H
  H2240    1.0000 0.96990  0.37500  0.62220  Biso   1.000  H
  C791     1.0000 0.00050  0.43760  0.60620  Biso   1.000  C
  H2241    1.0000 0.99450  0.45510  0.59490  Biso   1.000  H
  H2242    1.0000 0.00470  0.44380  0.62660  Biso   1.000  H
  C792     1.0000 0.97200  0.40740  0.57550  Biso   1.000  C
  H2243    1.0000 0.95560  0.39320  0.57400  Biso   1.000  H
  H2244    1.0000 0.96660  0.42510  0.56410  Biso   1.000  H
  H2245    1.0000 0.37640  0.41110  0.43600  Biso   1.000  H
  H2246    1.0000 0.34760  0.46440  0.43960  Biso   1.000  H
  H2247    1.0000 0.27950  0.49540  0.53300  Biso   1.000  H
  H2248    1.0000 0.26510  0.46000  0.57940  Biso   1.000  H
  C793     1.0000 0.33170  0.45520  0.55570  Biso   1.000  C
  H2249    1.0000 0.33890  0.47340  0.56520  Biso   1.000  H
  H2250    1.0000 0.34750  0.44040  0.55680  Biso   1.000  H
  N133     1.0000 0.27385  0.41542  0.64391  Biso   1.000  N
  C794     1.0000 0.32420  0.46160  0.52300  Biso   1.000  C
  H2251    1.0000 0.33610  0.44880  0.51020  Biso   1.000  H
  H2252    1.0000 0.32910  0.48220  0.51830  Biso   1.000  H
  C795     1.0000 0.34470  0.36860  0.60680  Biso   1.000  C
  H2253    1.0000 0.32690  0.36100  0.61660  Biso   1.000  H
  H2254    1.0000 0.33940  0.37350  0.58630  Biso   1.000  H
  H2255    1.0000 0.34620  0.37900  0.66340  Biso   1.000  H
  C796     1.0000 0.26460  0.39010  0.62720  Biso   1.000  C
  H2256    1.0000 0.26140  0.39580  0.60650  Biso   1.000  H
  H2257    1.0000 0.28010  0.37500  0.62780  Biso   1.000  H
  C797     1.0000 0.24950  0.43760  0.64380  Biso   1.000  C
  H2258    1.0000 0.25550  0.45510  0.65510  Biso   1.000  H
  H2259    1.0000 0.24530  0.44380  0.62340  Biso   1.000  H
  C798     1.0000 0.27800  0.40740  0.67450  Biso   1.000  C
  H2260    1.0000 0.29440  0.39320  0.67600  Biso   1.000  H
  H2261    1.0000 0.28340  0.42510  0.68590  Biso   1.000  H
  H2262    1.0000 0.37640  0.91110  0.93600  Biso   1.000  H
  H2263    1.0000 0.34760  0.96440  0.93960  Biso   1.000  H
  H2264    1.0000 0.27950  0.99540  0.03300  Biso   1.000  H
  H2265    1.0000 0.26510  0.96000  0.07940  Biso   1.000  H
  C799     1.0000 0.33170  0.95520  0.05570  Biso   1.000  C
  H2266    1.0000 0.33890  0.97340  0.06520  Biso   1.000  H
  H2267    1.0000 0.34750  0.94040  0.05680  Biso   1.000  H
  N134     1.0000 0.27385  0.91542  0.14391  Biso   1.000  N
  C800     1.0000 0.32420  0.96160  0.02300  Biso   1.000  C
  H2268    1.0000 0.33610  0.94880  0.01020  Biso   1.000  H
  H2269    1.0000 0.32910  0.98220  0.01830  Biso   1.000  H
  C801     1.0000 0.34470  0.86860  0.10680  Biso   1.000  C
  H2270    1.0000 0.32690  0.86100  0.11660  Biso   1.000  H
  H2271    1.0000 0.33940  0.87350  0.08630  Biso   1.000  H
  H2272    1.0000 0.34620  0.87900  0.16340  Biso   1.000  H
  C802     1.0000 0.26460  0.89010  0.12720  Biso   1.000  C
  H2273    1.0000 0.26140  0.89580  0.10650  Biso   1.000  H
  H2274    1.0000 0.28010  0.87500  0.12780  Biso   1.000  H
  C803     1.0000 0.24950  0.93760  0.14380  Biso   1.000  C
  H2275    1.0000 0.25550  0.95510  0.15510  Biso   1.000  H
  H2276    1.0000 0.24530  0.94380  0.12340  Biso   1.000  H
  C804     1.0000 0.27800  0.90740  0.17450  Biso   1.000  C
  H2277    1.0000 0.29440  0.89320  0.17600  Biso   1.000  H
  H2278    1.0000 0.28340  0.92510  0.18590  Biso   1.000  H
  H2279    1.0000 0.87640  0.41110  0.93600  Biso   1.000  H
  H2280    1.0000 0.84760  0.46440  0.93960  Biso   1.000  H
  H2281    1.0000 0.77950  0.49540  0.03300  Biso   1.000  H
  H2282    1.0000 0.76510  0.46000  0.07940  Biso   1.000  H
  C805     1.0000 0.83170  0.45520  0.05570  Biso   1.000  C
  H2283    1.0000 0.83890  0.47340  0.06520  Biso   1.000  H
  H2284    1.0000 0.84750  0.44040  0.05680  Biso   1.000  H
  N135     1.0000 0.77385  0.41542  0.14391  Biso   1.000  N
  C806     1.0000 0.82420  0.46160  0.02300  Biso   1.000  C
  H2285    1.0000 0.83610  0.44880  0.01020  Biso   1.000  H
  H2286    1.0000 0.82910  0.48220  0.01830  Biso   1.000  H
  C807     1.0000 0.84470  0.36860  0.10680  Biso   1.000  C
  H2287    1.0000 0.82690  0.36100  0.11660  Biso   1.000  H
  H2288    1.0000 0.83940  0.37350  0.08630  Biso   1.000  H
  H2289    1.0000 0.84620  0.37900  0.16340  Biso   1.000  H
  C808     1.0000 0.76460  0.39010  0.12720  Biso   1.000  C
  H2290    1.0000 0.76140  0.39580  0.10650  Biso   1.000  H
  H2291    1.0000 0.78010  0.37500  0.12780  Biso   1.000  H
  C809     1.0000 0.74950  0.43760  0.14380  Biso   1.000  C
  H2292    1.0000 0.75550  0.45510  0.15510  Biso   1.000  H
  H2293    1.0000 0.74530  0.44380  0.12340  Biso   1.000  H
  C810     1.0000 0.77800  0.40740  0.17450  Biso   1.000  C
  H2294    1.0000 0.79440  0.39320  0.17600  Biso   1.000  H
  H2295    1.0000 0.78340  0.42510  0.18590  Biso   1.000  H
  H2296    1.0000 0.87640  0.91110  0.43600  Biso   1.000  H
  H2297    1.0000 0.84760  0.96440  0.43960  Biso   1.000  H
  H2298    1.0000 0.77950  0.99540  0.53300  Biso   1.000  H
  H2299    1.0000 0.76510  0.96000  0.57940  Biso   1.000  H
  C811     1.0000 0.83170  0.95520  0.55570  Biso   1.000  C
  H2300    1.0000 0.83890  0.97340  0.56520  Biso   1.000  H
  H2301    1.0000 0.84750  0.94040  0.55680  Biso   1.000  H
  N136     1.0000 0.77385  0.91542  0.64391  Biso   1.000  N
  C812     1.0000 0.82420  0.96160  0.52300  Biso   1.000  C
  H2302    1.0000 0.83610  0.94880  0.51020  Biso   1.000  H
  H2303    1.0000 0.82910  0.98220  0.51830  Biso   1.000  H
  C813     1.0000 0.84470  0.86860  0.60680  Biso   1.000  C
  H2304    1.0000 0.82690  0.86100  0.61660  Biso   1.000  H
  H2305    1.0000 0.83940  0.87350  0.58630  Biso   1.000  H
  H2306    1.0000 0.84620  0.87900  0.66340  Biso   1.000  H
  C814     1.0000 0.76460  0.89010  0.62720  Biso   1.000  C
  H2307    1.0000 0.76140  0.89580  0.60650  Biso   1.000  H
  H2308    1.0000 0.78010  0.87500  0.62780  Biso   1.000  H
  C815     1.0000 0.74950  0.93760  0.64380  Biso   1.000  C
  H2309    1.0000 0.75550  0.95510  0.65510  Biso   1.000  H
  H2310    1.0000 0.74530  0.94380  0.62340  Biso   1.000  H
  C816     1.0000 0.77800  0.90740  0.67450  Biso   1.000  C
  H2311    1.0000 0.79440  0.89320  0.67600  Biso   1.000  H
  H2312    1.0000 0.78340  0.92510  0.68590  Biso   1.000  H
  H2313    1.0000 0.87360  0.33890  0.93600  Biso   1.000  H
  H2314    1.0000 0.90240  0.28560  0.93960  Biso   1.000  H
  H2315    1.0000 0.97050  0.25460  0.03300  Biso   1.000  H
  H2316    1.0000 0.98490  0.29000  0.07940  Biso   1.000  H
  C817     1.0000 0.91830  0.29480  0.05570  Biso   1.000  C
  H2317    1.0000 0.91110  0.27660  0.06520  Biso   1.000  H
  H2318    1.0000 0.90250  0.30960  0.05680  Biso   1.000  H
  N137     1.0000 0.97615  0.33458  0.14391  Biso   1.000  N
  C818     1.0000 0.92580  0.28840  0.02300  Biso   1.000  C
  H2319    1.0000 0.91390  0.30120  0.01020  Biso   1.000  H
  H2320    1.0000 0.92090  0.26780  0.01830  Biso   1.000  H
  C819     1.0000 0.90530  0.38140  0.10680  Biso   1.000  C
  H2321    1.0000 0.92310  0.38900  0.11660  Biso   1.000  H
  H2322    1.0000 0.91060  0.37650  0.08630  Biso   1.000  H
  H2323    1.0000 0.90380  0.37100  0.16340  Biso   1.000  H
  C820     1.0000 0.98540  0.35990  0.12720  Biso   1.000  C
  H2324    1.0000 0.98860  0.35420  0.10650  Biso   1.000  H
  H2325    1.0000 0.96990  0.37500  0.12780  Biso   1.000  H
  C821     1.0000 0.00050  0.31240  0.14380  Biso   1.000  C
  H2326    1.0000 0.99450  0.29490  0.15510  Biso   1.000  H
  H2327    1.0000 0.00470  0.30620  0.12340  Biso   1.000  H
  C822     1.0000 0.97200  0.34260  0.17450  Biso   1.000  C
  H2328    1.0000 0.95560  0.35680  0.17600  Biso   1.000  H
  H2329    1.0000 0.96660  0.32490  0.18590  Biso   1.000  H
  H2330    1.0000 0.87360  0.83890  0.43600  Biso   1.000  H
  H2331    1.0000 0.90240  0.78560  0.43960  Biso   1.000  H
  H2332    1.0000 0.97050  0.75460  0.53300  Biso   1.000  H
  H2333    1.0000 0.98490  0.79000  0.57940  Biso   1.000  H
  C823     1.0000 0.91830  0.79480  0.55570  Biso   1.000  C
  H2334    1.0000 0.91110  0.77660  0.56520  Biso   1.000  H
  H2335    1.0000 0.90250  0.80960  0.55680  Biso   1.000  H
  N138     1.0000 0.97615  0.83458  0.64391  Biso   1.000  N
  C824     1.0000 0.92580  0.78840  0.52300  Biso   1.000  C
  H2336    1.0000 0.91390  0.80120  0.51020  Biso   1.000  H
  H2337    1.0000 0.92090  0.76780  0.51830  Biso   1.000  H
  C825     1.0000 0.90530  0.88140  0.60680  Biso   1.000  C
  H2338    1.0000 0.92310  0.88900  0.61660  Biso   1.000  H
  H2339    1.0000 0.91060  0.87650  0.58630  Biso   1.000  H
  H2340    1.0000 0.90380  0.87100  0.66340  Biso   1.000  H
  C826     1.0000 0.98540  0.85990  0.62720  Biso   1.000  C
  H2341    1.0000 0.98860  0.85420  0.60650  Biso   1.000  H
  H2342    1.0000 0.96990  0.87500  0.62780  Biso   1.000  H
  C827     1.0000 0.00050  0.81240  0.64380  Biso   1.000  C
  H2343    1.0000 0.99450  0.79490  0.65510  Biso   1.000  H
  H2344    1.0000 0.00470  0.80620  0.62340  Biso   1.000  H
  C828     1.0000 0.97200  0.84260  0.67450  Biso   1.000  C
  H2345    1.0000 0.95560  0.85680  0.67600  Biso   1.000  H
  H2346    1.0000 0.96660  0.82490  0.68590  Biso   1.000  H
  H2347    1.0000 0.37360  0.33890  0.43600  Biso   1.000  H
  H2348    1.0000 0.40240  0.28560  0.43960  Biso   1.000  H
  H2349    1.0000 0.47050  0.25460  0.53300  Biso   1.000  H
  H2350    1.0000 0.48490  0.29000  0.57940  Biso   1.000  H
  C829     1.0000 0.41830  0.29480  0.55570  Biso   1.000  C
  H2351    1.0000 0.41110  0.27660  0.56520  Biso   1.000  H
  H2352    1.0000 0.40250  0.30960  0.55680  Biso   1.000  H
  N139     1.0000 0.47615  0.33458  0.64391  Biso   1.000  N
  C830     1.0000 0.42580  0.28840  0.52300  Biso   1.000  C
  H2353    1.0000 0.41390  0.30120  0.51020  Biso   1.000  H
  H2354    1.0000 0.42090  0.26780  0.51830  Biso   1.000  H
  C831     1.0000 0.40530  0.38140  0.60680  Biso   1.000  C
  H2355    1.0000 0.42310  0.38900  0.61660  Biso   1.000  H
  H2356    1.0000 0.41060  0.37650  0.58630  Biso   1.000  H
  H2357    1.0000 0.40380  0.37100  0.66340  Biso   1.000  H
  C832     1.0000 0.48540  0.35990  0.62720  Biso   1.000  C
  H2358    1.0000 0.48860  0.35420  0.60650  Biso   1.000  H
  H2359    1.0000 0.46990  0.37500  0.62780  Biso   1.000  H
  C833     1.0000 0.50050  0.31240  0.64380  Biso   1.000  C
  H2360    1.0000 0.49450  0.29490  0.65510  Biso   1.000  H
  H2361    1.0000 0.50470  0.30620  0.62340  Biso   1.000  H
  C834     1.0000 0.47200  0.34260  0.67450  Biso   1.000  C
  H2362    1.0000 0.45560  0.35680  0.67600  Biso   1.000  H
  H2363    1.0000 0.46660  0.32490  0.68590  Biso   1.000  H
  H2364    1.0000 0.37360  0.83890  0.93600  Biso   1.000  H
  H2365    1.0000 0.40240  0.78560  0.93960  Biso   1.000  H
  H2366    1.0000 0.47050  0.75460  0.03300  Biso   1.000  H
  H2367    1.0000 0.48490  0.79000  0.07940  Biso   1.000  H
  C835     1.0000 0.41830  0.79480  0.05570  Biso   1.000  C
  H2368    1.0000 0.41110  0.77660  0.06520  Biso   1.000  H
  H2369    1.0000 0.40250  0.80960  0.05680  Biso   1.000  H
  N140     1.0000 0.47615  0.83458  0.14391  Biso   1.000  N
  C836     1.0000 0.42580  0.78840  0.02300  Biso   1.000  C
  H2370    1.0000 0.41390  0.80120  0.01020  Biso   1.000  H
  H2371    1.0000 0.42090  0.76780  0.01830  Biso   1.000  H
  C837     1.0000 0.40530  0.88140  0.10680  Biso   1.000  C
  H2372    1.0000 0.42310  0.88900  0.11660  Biso   1.000  H
  H2373    1.0000 0.41060  0.87650  0.08630  Biso   1.000  H
  H2374    1.0000 0.40380  0.87100  0.16340  Biso   1.000  H
  C838     1.0000 0.48540  0.85990  0.12720  Biso   1.000  C
  H2375    1.0000 0.48860  0.85420  0.10650  Biso   1.000  H
  H2376    1.0000 0.46990  0.87500  0.12780  Biso   1.000  H
  C839     1.0000 0.50050  0.81240  0.14380  Biso   1.000  C
  H2377    1.0000 0.49450  0.79490  0.15510  Biso   1.000  H
  H2378    1.0000 0.50470  0.80620  0.12340  Biso   1.000  H
  C840     1.0000 0.47200  0.84260  0.17450  Biso   1.000  C
  H2379    1.0000 0.45560  0.85680  0.17600  Biso   1.000  H
  H2380    1.0000 0.46660  0.82490  0.18590  Biso   1.000  H
  H2381    1.0000 0.87640  0.83890  0.31400  Biso   1.000  H
  H2382    1.0000 0.84760  0.78560  0.31040  Biso   1.000  H
  H2383    1.0000 0.77950  0.75460  0.21700  Biso   1.000  H
  H2384    1.0000 0.76510  0.79000  0.17060  Biso   1.000  H
  C841     1.0000 0.83170  0.79480  0.19430  Biso   1.000  C
  H2385    1.0000 0.83890  0.77660  0.18480  Biso   1.000  H
  H2386    1.0000 0.84750  0.80960  0.19320  Biso   1.000  H
  N141     1.0000 0.77385  0.83458  0.10609  Biso   1.000  N
  C842     1.0000 0.82420  0.78840  0.22700  Biso   1.000  C
  H2387    1.0000 0.83610  0.80120  0.23980  Biso   1.000  H
  H2388    1.0000 0.82910  0.76780  0.23170  Biso   1.000  H
  C843     1.0000 0.84470  0.88140  0.14320  Biso   1.000  C
  H2389    1.0000 0.82690  0.88900  0.13340  Biso   1.000  H
  H2390    1.0000 0.83940  0.87650  0.16370  Biso   1.000  H
  H2391    1.0000 0.84620  0.87100  0.08660  Biso   1.000  H
  C844     1.0000 0.76460  0.85990  0.12280  Biso   1.000  C
  H2392    1.0000 0.76140  0.85420  0.14350  Biso   1.000  H
  H2393    1.0000 0.78010  0.87500  0.12220  Biso   1.000  H
  C845     1.0000 0.74950  0.81240  0.10620  Biso   1.000  C
  H2394    1.0000 0.75550  0.79490  0.09490  Biso   1.000  H
  H2395    1.0000 0.74530  0.80620  0.12660  Biso   1.000  H
  C846     1.0000 0.77800  0.84260  0.07550  Biso   1.000  C
  H2396    1.0000 0.79440  0.85680  0.07400  Biso   1.000  H
  H2397    1.0000 0.78340  0.82490  0.06410  Biso   1.000  H
  H2398    1.0000 0.87640  0.33890  0.81400  Biso   1.000  H
  H2399    1.0000 0.84760  0.28560  0.81040  Biso   1.000  H
  H2400    1.0000 0.77950  0.25460  0.71700  Biso   1.000  H
  H2401    1.0000 0.76510  0.29000  0.67060  Biso   1.000  H
  C847     1.0000 0.83170  0.29480  0.69430  Biso   1.000  C
  H2402    1.0000 0.83890  0.27660  0.68480  Biso   1.000  H
  H2403    1.0000 0.84750  0.30960  0.69320  Biso   1.000  H
  N142     1.0000 0.77385  0.33458  0.60609  Biso   1.000  N
  C848     1.0000 0.82420  0.28840  0.72700  Biso   1.000  C
  H2404    1.0000 0.83610  0.30120  0.73980  Biso   1.000  H
  H2405    1.0000 0.82910  0.26780  0.73170  Biso   1.000  H
  C849     1.0000 0.84470  0.38140  0.64320  Biso   1.000  C
  H2406    1.0000 0.82690  0.38900  0.63340  Biso   1.000  H
  H2407    1.0000 0.83940  0.37650  0.66370  Biso   1.000  H
  H2408    1.0000 0.84620  0.37100  0.58660  Biso   1.000  H
  C850     1.0000 0.76460  0.35990  0.62280  Biso   1.000  C
  H2409    1.0000 0.76140  0.35420  0.64350  Biso   1.000  H
  H2410    1.0000 0.78010  0.37500  0.62220  Biso   1.000  H
  C851     1.0000 0.74950  0.31240  0.60620  Biso   1.000  C
  H2411    1.0000 0.75550  0.29490  0.59490  Biso   1.000  H
  H2412    1.0000 0.74530  0.30620  0.62660  Biso   1.000  H
  C852     1.0000 0.77800  0.34260  0.57550  Biso   1.000  C
  H2413    1.0000 0.79440  0.35680  0.57400  Biso   1.000  H
  H2414    1.0000 0.78340  0.32490  0.56410  Biso   1.000  H
  H2415    1.0000 0.37640  0.83890  0.81400  Biso   1.000  H
  H2416    1.0000 0.34760  0.78560  0.81040  Biso   1.000  H
  H2417    1.0000 0.27950  0.75460  0.71700  Biso   1.000  H
  H2418    1.0000 0.26510  0.79000  0.67060  Biso   1.000  H
  C853     1.0000 0.33170  0.79480  0.69430  Biso   1.000  C
  H2419    1.0000 0.33890  0.77660  0.68480  Biso   1.000  H
  H2420    1.0000 0.34750  0.80960  0.69320  Biso   1.000  H
  N143     1.0000 0.27385  0.83458  0.60609  Biso   1.000  N
  C854     1.0000 0.32420  0.78840  0.72700  Biso   1.000  C
  H2421    1.0000 0.33610  0.80120  0.73980  Biso   1.000  H
  H2422    1.0000 0.32910  0.76780  0.73170  Biso   1.000  H
  C855     1.0000 0.34470  0.88140  0.64320  Biso   1.000  C
  H2423    1.0000 0.32690  0.88900  0.63340  Biso   1.000  H
  H2424    1.0000 0.33940  0.87650  0.66370  Biso   1.000  H
  H2425    1.0000 0.34620  0.87100  0.58660  Biso   1.000  H
  C856     1.0000 0.26460  0.85990  0.62280  Biso   1.000  C
  H2426    1.0000 0.26140  0.85420  0.64350  Biso   1.000  H
  H2427    1.0000 0.28010  0.87500  0.62220  Biso   1.000  H
  C857     1.0000 0.24950  0.81240  0.60620  Biso   1.000  C
  H2428    1.0000 0.25550  0.79490  0.59490  Biso   1.000  H
  H2429    1.0000 0.24530  0.80620  0.62660  Biso   1.000  H
  C858     1.0000 0.27800  0.84260  0.57550  Biso   1.000  C
  H2430    1.0000 0.29440  0.85680  0.57400  Biso   1.000  H
  H2431    1.0000 0.28340  0.82490  0.56410  Biso   1.000  H
  H2432    1.0000 0.37640  0.33890  0.31400  Biso   1.000  H
  H2433    1.0000 0.34760  0.28560  0.31040  Biso   1.000  H
  H2434    1.0000 0.27950  0.25460  0.21700  Biso   1.000  H
  H2435    1.0000 0.26510  0.29000  0.17060  Biso   1.000  H
  C859     1.0000 0.33170  0.29480  0.19430  Biso   1.000  C
  H2436    1.0000 0.33890  0.27660  0.18480  Biso   1.000  H
  H2437    1.0000 0.34750  0.30960  0.19320  Biso   1.000  H
  N144     1.0000 0.27385  0.33458  0.10609  Biso   1.000  N
  C860     1.0000 0.32420  0.28840  0.22700  Biso   1.000  C
  H2438    1.0000 0.33610  0.30120  0.23980  Biso   1.000  H
  H2439    1.0000 0.32910  0.26780  0.23170  Biso   1.000  H
  C861     1.0000 0.34470  0.38140  0.14320  Biso   1.000  C
  H2440    1.0000 0.32690  0.38900  0.13340  Biso   1.000  H
  H2441    1.0000 0.33940  0.37650  0.16370  Biso   1.000  H
  H2442    1.0000 0.34620  0.37100  0.08660  Biso   1.000  H
  C862     1.0000 0.26460  0.35990  0.12280  Biso   1.000  C
  H2443    1.0000 0.26140  0.35420  0.14350  Biso   1.000  H
  H2444    1.0000 0.28010  0.37500  0.12220  Biso   1.000  H
  C863     1.0000 0.24950  0.31240  0.10620  Biso   1.000  C
  H2445    1.0000 0.25550  0.29490  0.09490  Biso   1.000  H
  H2446    1.0000 0.24530  0.30620  0.12660  Biso   1.000  H
  C864     1.0000 0.27800  0.34260  0.07550  Biso   1.000  C
  H2447    1.0000 0.29440  0.35680  0.07400  Biso   1.000  H
  H2448    1.0000 0.28340  0.32490  0.06410  Biso   1.000  H
  H2449    1.0000 0.62360  0.56400  0.58890  Biso   1.000  H
  H2450    1.0000 0.65240  0.56040  0.53560  Biso   1.000  H
  H2451    1.0000 0.72050  0.46700  0.50460  Biso   1.000  H
  H2452    1.0000 0.73490  0.42060  0.54000  Biso   1.000  H
  C865     1.0000 0.66830  0.44430  0.54480  Biso   1.000  C
  H2453    1.0000 0.66110  0.43480  0.52660  Biso   1.000  H
  H2454    1.0000 0.65250  0.44320  0.55960  Biso   1.000  H
  N145     1.0000 0.72615  0.35609  0.58458  Biso   1.000  N
  C866     1.0000 0.67580  0.47700  0.53840  Biso   1.000  C
  H2455    1.0000 0.66390  0.48980  0.55120  Biso   1.000  H
  H2456    1.0000 0.67090  0.48170  0.51780  Biso   1.000  H
  C867     1.0000 0.65530  0.39320  0.63140  Biso   1.000  C
  H2457    1.0000 0.67310  0.38340  0.63900  Biso   1.000  H
  H2458    1.0000 0.66060  0.41370  0.62650  Biso   1.000  H
  H2459    1.0000 0.65380  0.33660  0.62100  Biso   1.000  H
  C868     1.0000 0.73540  0.37280  0.60990  Biso   1.000  C
  H2460    1.0000 0.73860  0.39350  0.60420  Biso   1.000  H
  H2461    1.0000 0.71990  0.37220  0.62500  Biso   1.000  H
  C869     1.0000 0.75050  0.35620  0.56240  Biso   1.000  C
  H2462    1.0000 0.74450  0.34490  0.54490  Biso   1.000  H
  H2463    1.0000 0.75470  0.37660  0.55620  Biso   1.000  H
  C870     1.0000 0.72200  0.32550  0.59260  Biso   1.000  C
  H2464    1.0000 0.70560  0.32400  0.60680  Biso   1.000  H
  H2465    1.0000 0.71660  0.31410  0.57490  Biso   1.000  H
  H2466    1.0000 0.62360  0.06400  0.08890  Biso   1.000  H
  H2467    1.0000 0.65240  0.06040  0.03560  Biso   1.000  H
  H2468    1.0000 0.72050  0.96700  0.00460  Biso   1.000  H
  H2469    1.0000 0.73490  0.92060  0.04000  Biso   1.000  H
  C871     1.0000 0.66830  0.94430  0.04480  Biso   1.000  C
  H2470    1.0000 0.66110  0.93480  0.02660  Biso   1.000  H
  H2471    1.0000 0.65250  0.94320  0.05960  Biso   1.000  H
  N146     1.0000 0.72615  0.85609  0.08458  Biso   1.000  N
  C872     1.0000 0.67580  0.97700  0.03840  Biso   1.000  C
  H2472    1.0000 0.66390  0.98980  0.05120  Biso   1.000  H
  H2473    1.0000 0.67090  0.98170  0.01780  Biso   1.000  H
  C873     1.0000 0.65530  0.89320  0.13140  Biso   1.000  C
  H2474    1.0000 0.67310  0.88340  0.13900  Biso   1.000  H
  H2475    1.0000 0.66060  0.91370  0.12650  Biso   1.000  H
  H2476    1.0000 0.65380  0.83660  0.12100  Biso   1.000  H
  C874     1.0000 0.73540  0.87280  0.10990  Biso   1.000  C
  H2477    1.0000 0.73860  0.89350  0.10420  Biso   1.000  H
  H2478    1.0000 0.71990  0.87220  0.12500  Biso   1.000  H
  C875     1.0000 0.75050  0.85620  0.06240  Biso   1.000  C
  H2479    1.0000 0.74450  0.84490  0.04490  Biso   1.000  H
  H2480    1.0000 0.75470  0.87660  0.05620  Biso   1.000  H
  C876     1.0000 0.72200  0.82550  0.09260  Biso   1.000  C
  H2481    1.0000 0.70560  0.82400  0.10680  Biso   1.000  H
  H2482    1.0000 0.71660  0.81410  0.07490  Biso   1.000  H
  H2483    1.0000 0.12360  0.56400  0.08890  Biso   1.000  H
  H2484    1.0000 0.15240  0.56040  0.03560  Biso   1.000  H
  H2485    1.0000 0.22050  0.46700  0.00460  Biso   1.000  H
  H2486    1.0000 0.23490  0.42060  0.04000  Biso   1.000  H
  C877     1.0000 0.16830  0.44430  0.04480  Biso   1.000  C
  H2487    1.0000 0.16110  0.43480  0.02660  Biso   1.000  H
  H2488    1.0000 0.15250  0.44320  0.05960  Biso   1.000  H
  N147     1.0000 0.22615  0.35609  0.08458  Biso   1.000  N
  C878     1.0000 0.17580  0.47700  0.03840  Biso   1.000  C
  H2489    1.0000 0.16390  0.48980  0.05120  Biso   1.000  H
  H2490    1.0000 0.17090  0.48170  0.01780  Biso   1.000  H
  C879     1.0000 0.15530  0.39320  0.13140  Biso   1.000  C
  H2491    1.0000 0.17310  0.38340  0.13900  Biso   1.000  H
  H2492    1.0000 0.16060  0.41370  0.12650  Biso   1.000  H
  H2493    1.0000 0.15380  0.33660  0.12100  Biso   1.000  H
  C880     1.0000 0.23540  0.37280  0.10990  Biso   1.000  C
  H2494    1.0000 0.23860  0.39350  0.10420  Biso   1.000  H
  H2495    1.0000 0.21990  0.37220  0.12500  Biso   1.000  H
  C881     1.0000 0.25050  0.35620  0.06240  Biso   1.000  C
  H2496    1.0000 0.24450  0.34490  0.04490  Biso   1.000  H
  H2497    1.0000 0.25470  0.37660  0.05620  Biso   1.000  H
  C882     1.0000 0.22200  0.32550  0.09260  Biso   1.000  C
  H2498    1.0000 0.20560  0.32400  0.10680  Biso   1.000  H
  H2499    1.0000 0.21660  0.31410  0.07490  Biso   1.000  H
  H2500    1.0000 0.12360  0.06400  0.58890  Biso   1.000  H
  H2501    1.0000 0.15240  0.06040  0.53560  Biso   1.000  H
  H2502    1.0000 0.22050  0.96700  0.50460  Biso   1.000  H
  H2503    1.0000 0.23490  0.92060  0.54000  Biso   1.000  H
  C883     1.0000 0.16830  0.94430  0.54480  Biso   1.000  C
  H2504    1.0000 0.16110  0.93480  0.52660  Biso   1.000  H
  H2505    1.0000 0.15250  0.94320  0.55960  Biso   1.000  H
  N148     1.0000 0.22615  0.85609  0.58458  Biso   1.000  N
  C884     1.0000 0.17580  0.97700  0.53840  Biso   1.000  C
  H2506    1.0000 0.16390  0.98980  0.55120  Biso   1.000  H
  H2507    1.0000 0.17090  0.98170  0.51780  Biso   1.000  H
  C885     1.0000 0.15530  0.89320  0.63140  Biso   1.000  C
  H2508    1.0000 0.17310  0.88340  0.63900  Biso   1.000  H
  H2509    1.0000 0.16060  0.91370  0.62650  Biso   1.000  H
  H2510    1.0000 0.15380  0.83660  0.62100  Biso   1.000  H
  C886     1.0000 0.23540  0.87280  0.60990  Biso   1.000  C
  H2511    1.0000 0.23860  0.89350  0.60420  Biso   1.000  H
  H2512    1.0000 0.21990  0.87220  0.62500  Biso   1.000  H
  C887     1.0000 0.25050  0.85620  0.56240  Biso   1.000  C
  H2513    1.0000 0.24450  0.84490  0.54490  Biso   1.000  H
  H2514    1.0000 0.25470  0.87660  0.55620  Biso   1.000  H
  C888     1.0000 0.22200  0.82550  0.59260  Biso   1.000  C
  H2515    1.0000 0.20560  0.82400  0.60680  Biso   1.000  H
  H2516    1.0000 0.21660  0.81410  0.57490  Biso   1.000  H
  H2517    1.0000 0.62640  0.18600  0.08890  Biso   1.000  H
  H2518    1.0000 0.59760  0.18960  0.03560  Biso   1.000  H
  H2519    1.0000 0.52950  0.28300  0.00460  Biso   1.000  H
  H2520    1.0000 0.51510  0.32940  0.04000  Biso   1.000  H
  C889     1.0000 0.58170  0.30570  0.04480  Biso   1.000  C
  H2521    1.0000 0.58890  0.31520  0.02660  Biso   1.000  H
  H2522    1.0000 0.59750  0.30680  0.05960  Biso   1.000  H
  N149     1.0000 0.52385  0.39391  0.08458  Biso   1.000  N
  C890     1.0000 0.57420  0.27300  0.03840  Biso   1.000  C
  H2523    1.0000 0.58610  0.26020  0.05120  Biso   1.000  H
  H2524    1.0000 0.57910  0.26830  0.01780  Biso   1.000  H
  C891     1.0000 0.59470  0.35680  0.13140  Biso   1.000  C
  H2525    1.0000 0.57690  0.36660  0.13900  Biso   1.000  H
  H2526    1.0000 0.58940  0.33630  0.12650  Biso   1.000  H
  H2527    1.0000 0.59620  0.41340  0.12100  Biso   1.000  H
  C892     1.0000 0.51460  0.37720  0.10990  Biso   1.000  C
  H2528    1.0000 0.51140  0.35650  0.10420  Biso   1.000  H
  H2529    1.0000 0.53010  0.37780  0.12500  Biso   1.000  H
  C893     1.0000 0.49950  0.39380  0.06240  Biso   1.000  C
  H2530    1.0000 0.50550  0.40510  0.04490  Biso   1.000  H
  H2531    1.0000 0.49530  0.37340  0.05620  Biso   1.000  H
  C894     1.0000 0.52800  0.42450  0.09260  Biso   1.000  C
  H2532    1.0000 0.54440  0.42600  0.10680  Biso   1.000  H
  H2533    1.0000 0.53340  0.43590  0.07490  Biso   1.000  H
  H2534    1.0000 0.62640  0.68600  0.58890  Biso   1.000  H
  H2535    1.0000 0.59760  0.68960  0.53560  Biso   1.000  H
  H2536    1.0000 0.52950  0.78300  0.50460  Biso   1.000  H
  H2537    1.0000 0.51510  0.82940  0.54000  Biso   1.000  H
  C895     1.0000 0.58170  0.80570  0.54480  Biso   1.000  C
  H2538    1.0000 0.58890  0.81520  0.52660  Biso   1.000  H
  H2539    1.0000 0.59750  0.80680  0.55960  Biso   1.000  H
  N150     1.0000 0.52385  0.89391  0.58458  Biso   1.000  N
  C896     1.0000 0.57420  0.77300  0.53840  Biso   1.000  C
  H2540    1.0000 0.58610  0.76020  0.55120  Biso   1.000  H
  H2541    1.0000 0.57910  0.76830  0.51780  Biso   1.000  H
  C897     1.0000 0.59470  0.85680  0.63140  Biso   1.000  C
  H2542    1.0000 0.57690  0.86660  0.63900  Biso   1.000  H
  H2543    1.0000 0.58940  0.83630  0.62650  Biso   1.000  H
  H2544    1.0000 0.59620  0.91340  0.62100  Biso   1.000  H
  C898     1.0000 0.51460  0.87720  0.60990  Biso   1.000  C
  H2545    1.0000 0.51140  0.85650  0.60420  Biso   1.000  H
  H2546    1.0000 0.53010  0.87780  0.62500  Biso   1.000  H
  C899     1.0000 0.49950  0.89380  0.56240  Biso   1.000  C
  H2547    1.0000 0.50550  0.90510  0.54490  Biso   1.000  H
  H2548    1.0000 0.49530  0.87340  0.55620  Biso   1.000  H
  C900     1.0000 0.52800  0.92450  0.59260  Biso   1.000  C
  H2549    1.0000 0.54440  0.92600  0.60680  Biso   1.000  H
  H2550    1.0000 0.53340  0.93590  0.57490  Biso   1.000  H
  H2551    1.0000 0.12640  0.18600  0.58890  Biso   1.000  H
  H2552    1.0000 0.09760  0.18960  0.53560  Biso   1.000  H
  H2553    1.0000 0.02950  0.28300  0.50460  Biso   1.000  H
  H2554    1.0000 0.01510  0.32940  0.54000  Biso   1.000  H
  C901     1.0000 0.08170  0.30570  0.54480  Biso   1.000  C
  H2555    1.0000 0.08890  0.31520  0.52660  Biso   1.000  H
  H2556    1.0000 0.09750  0.30680  0.55960  Biso   1.000  H
  N151     1.0000 0.02385  0.39391  0.58458  Biso   1.000  N
  C902     1.0000 0.07420  0.27300  0.53840  Biso   1.000  C
  H2557    1.0000 0.08610  0.26020  0.55120  Biso   1.000  H
  H2558    1.0000 0.07910  0.26830  0.51780  Biso   1.000  H
  C903     1.0000 0.09470  0.35680  0.63140  Biso   1.000  C
  H2559    1.0000 0.07690  0.36660  0.63900  Biso   1.000  H
  H2560    1.0000 0.08940  0.33630  0.62650  Biso   1.000  H
  H2561    1.0000 0.09620  0.41340  0.62100  Biso   1.000  H
  C904     1.0000 0.01460  0.37720  0.60990  Biso   1.000  C
  H2562    1.0000 0.01140  0.35650  0.60420  Biso   1.000  H
  H2563    1.0000 0.03010  0.37780  0.62500  Biso   1.000  H
  C905     1.0000 0.99950  0.39380  0.56240  Biso   1.000  C
  H2564    1.0000 0.00550  0.40510  0.54490  Biso   1.000  H
  H2565    1.0000 0.99530  0.37340  0.55620  Biso   1.000  H
  C906     1.0000 0.02800  0.42450  0.59260  Biso   1.000  C
  H2566    1.0000 0.04440  0.42600  0.60680  Biso   1.000  H
  H2567    1.0000 0.03340  0.43590  0.57490  Biso   1.000  H
  H2568    1.0000 0.12640  0.68600  0.08890  Biso   1.000  H
  H2569    1.0000 0.09760  0.68960  0.03560  Biso   1.000  H
  H2570    1.0000 0.02950  0.78300  0.00460  Biso   1.000  H
  H2571    1.0000 0.01510  0.82940  0.04000  Biso   1.000  H
  C907     1.0000 0.08170  0.80570  0.04480  Biso   1.000  C
  H2572    1.0000 0.08890  0.81520  0.02660  Biso   1.000  H
  H2573    1.0000 0.09750  0.80680  0.05960  Biso   1.000  H
  N152     1.0000 0.02385  0.89391  0.08458  Biso   1.000  N
  C908     1.0000 0.07420  0.77300  0.03840  Biso   1.000  C
  H2574    1.0000 0.08610  0.76020  0.05120  Biso   1.000  H
  H2575    1.0000 0.07910  0.76830  0.01780  Biso   1.000  H
  C909     1.0000 0.09470  0.85680  0.13140  Biso   1.000  C
  H2576    1.0000 0.07690  0.86660  0.13900  Biso   1.000  H
  H2577    1.0000 0.08940  0.83630  0.12650  Biso   1.000  H
  H2578    1.0000 0.09620  0.91340  0.12100  Biso   1.000  H
  C910     1.0000 0.01460  0.87720  0.10990  Biso   1.000  C
  H2579    1.0000 0.01140  0.85650  0.10420  Biso   1.000  H
  H2580    1.0000 0.03010  0.87780  0.12500  Biso   1.000  H
  C911     1.0000 0.99950  0.89380  0.06240  Biso   1.000  C
  H2581    1.0000 0.00550  0.90510  0.04490  Biso   1.000  H
  H2582    1.0000 0.99530  0.87340  0.05620  Biso   1.000  H
  C912     1.0000 0.02800  0.92450  0.09260  Biso   1.000  C
  H2583    1.0000 0.04440  0.92600  0.10680  Biso   1.000  H
  H2584    1.0000 0.03340  0.93590  0.07490  Biso   1.000  H
  H2585    1.0000 0.12360  0.68600  0.16110  Biso   1.000  H
  H2586    1.0000 0.15240  0.68960  0.21440  Biso   1.000  H
  H2587    1.0000 0.22050  0.78300  0.24540  Biso   1.000  H
  H2588    1.0000 0.23490  0.82940  0.21000  Biso   1.000  H
  C913     1.0000 0.16830  0.80570  0.20520  Biso   1.000  C
  H2589    1.0000 0.16110  0.81520  0.22340  Biso   1.000  H
  H2590    1.0000 0.15250  0.80680  0.19040  Biso   1.000  H
  N153     1.0000 0.22615  0.89391  0.16542  Biso   1.000  N
  C914     1.0000 0.17580  0.77300  0.21160  Biso   1.000  C
  H2591    1.0000 0.16390  0.76020  0.19880  Biso   1.000  H
  H2592    1.0000 0.17090  0.76830  0.23220  Biso   1.000  H
  C915     1.0000 0.15530  0.85680  0.11860  Biso   1.000  C
  H2593    1.0000 0.17310  0.86660  0.11100  Biso   1.000  H
  H2594    1.0000 0.16060  0.83630  0.12350  Biso   1.000  H
  H2595    1.0000 0.15380  0.91340  0.12900  Biso   1.000  H
  C916     1.0000 0.23540  0.87720  0.14010  Biso   1.000  C
  H2596    1.0000 0.23860  0.85650  0.14580  Biso   1.000  H
  H2597    1.0000 0.21990  0.87780  0.12500  Biso   1.000  H
  C917     1.0000 0.25050  0.89380  0.18760  Biso   1.000  C
  H2598    1.0000 0.24450  0.90510  0.20510  Biso   1.000  H
  H2599    1.0000 0.25470  0.87340  0.19380  Biso   1.000  H
  C918     1.0000 0.22200  0.92450  0.15740  Biso   1.000  C
  H2600    1.0000 0.20560  0.92600  0.14320  Biso   1.000  H
  H2601    1.0000 0.21660  0.93590  0.17510  Biso   1.000  H
  H2602    1.0000 0.12360  0.18600  0.66110  Biso   1.000  H
  H2603    1.0000 0.15240  0.18960  0.71440  Biso   1.000  H
  H2604    1.0000 0.22050  0.28300  0.74540  Biso   1.000  H
  H2605    1.0000 0.23490  0.32940  0.71000  Biso   1.000  H
  C919     1.0000 0.16830  0.30570  0.70520  Biso   1.000  C
  H2606    1.0000 0.16110  0.31520  0.72340  Biso   1.000  H
  H2607    1.0000 0.15250  0.30680  0.69040  Biso   1.000  H
  N154     1.0000 0.22615  0.39391  0.66542  Biso   1.000  N
  C920     1.0000 0.17580  0.27300  0.71160  Biso   1.000  C
  H2608    1.0000 0.16390  0.26020  0.69880  Biso   1.000  H
  H2609    1.0000 0.17090  0.26830  0.73220  Biso   1.000  H
  C921     1.0000 0.15530  0.35680  0.61860  Biso   1.000  C
  H2610    1.0000 0.17310  0.36660  0.61100  Biso   1.000  H
  H2611    1.0000 0.16060  0.33630  0.62350  Biso   1.000  H
  H2612    1.0000 0.15380  0.41340  0.62900  Biso   1.000  H
  C922     1.0000 0.23540  0.37720  0.64010  Biso   1.000  C
  H2613    1.0000 0.23860  0.35650  0.64580  Biso   1.000  H
  H2614    1.0000 0.21990  0.37780  0.62500  Biso   1.000  H
  C923     1.0000 0.25050  0.39380  0.68760  Biso   1.000  C
  H2615    1.0000 0.24450  0.40510  0.70510  Biso   1.000  H
  H2616    1.0000 0.25470  0.37340  0.69380  Biso   1.000  H
  C924     1.0000 0.22200  0.42450  0.65740  Biso   1.000  C
  H2617    1.0000 0.20560  0.42600  0.64320  Biso   1.000  H
  H2618    1.0000 0.21660  0.43590  0.67510  Biso   1.000  H
  H2619    1.0000 0.62360  0.68600  0.66110  Biso   1.000  H
  H2620    1.0000 0.65240  0.68960  0.71440  Biso   1.000  H
  H2621    1.0000 0.72050  0.78300  0.74540  Biso   1.000  H
  H2622    1.0000 0.73490  0.82940  0.71000  Biso   1.000  H
  C925     1.0000 0.66830  0.80570  0.70520  Biso   1.000  C
  H2623    1.0000 0.66110  0.81520  0.72340  Biso   1.000  H
  H2624    1.0000 0.65250  0.80680  0.69040  Biso   1.000  H
  N155     1.0000 0.72615  0.89391  0.66542  Biso   1.000  N
  C926     1.0000 0.67580  0.77300  0.71160  Biso   1.000  C
  H2625    1.0000 0.66390  0.76020  0.69880  Biso   1.000  H
  H2626    1.0000 0.67090  0.76830  0.73220  Biso   1.000  H
  C927     1.0000 0.65530  0.85680  0.61860  Biso   1.000  C
  H2627    1.0000 0.67310  0.86660  0.61100  Biso   1.000  H
  H2628    1.0000 0.66060  0.83630  0.62350  Biso   1.000  H
  H2629    1.0000 0.65380  0.91340  0.62900  Biso   1.000  H
  C928     1.0000 0.73540  0.87720  0.64010  Biso   1.000  C
  H2630    1.0000 0.73860  0.85650  0.64580  Biso   1.000  H
  H2631    1.0000 0.71990  0.87780  0.62500  Biso   1.000  H
  C929     1.0000 0.75050  0.89380  0.68760  Biso   1.000  C
  H2632    1.0000 0.74450  0.90510  0.70510  Biso   1.000  H
  H2633    1.0000 0.75470  0.87340  0.69380  Biso   1.000  H
  C930     1.0000 0.72200  0.92450  0.65740  Biso   1.000  C
  H2634    1.0000 0.70560  0.92600  0.64320  Biso   1.000  H
  H2635    1.0000 0.71660  0.93590  0.67510  Biso   1.000  H
  H2636    1.0000 0.62360  0.18600  0.16110  Biso   1.000  H
  H2637    1.0000 0.65240  0.18960  0.21440  Biso   1.000  H
  H2638    1.0000 0.72050  0.28300  0.24540  Biso   1.000  H
  H2639    1.0000 0.73490  0.32940  0.21000  Biso   1.000  H
  C931     1.0000 0.66830  0.30570  0.20520  Biso   1.000  C
  H2640    1.0000 0.66110  0.31520  0.22340  Biso   1.000  H
  H2641    1.0000 0.65250  0.30680  0.19040  Biso   1.000  H
  N156     1.0000 0.72615  0.39391  0.16542  Biso   1.000  N
  C932     1.0000 0.67580  0.27300  0.21160  Biso   1.000  C
  H2642    1.0000 0.66390  0.26020  0.19880  Biso   1.000  H
  H2643    1.0000 0.67090  0.26830  0.23220  Biso   1.000  H
  C933     1.0000 0.65530  0.35680  0.11860  Biso   1.000  C
  H2644    1.0000 0.67310  0.36660  0.11100  Biso   1.000  H
  H2645    1.0000 0.66060  0.33630  0.12350  Biso   1.000  H
  H2646    1.0000 0.65380  0.41340  0.12900  Biso   1.000  H
  C934     1.0000 0.73540  0.37720  0.14010  Biso   1.000  C
  H2647    1.0000 0.73860  0.35650  0.14580  Biso   1.000  H
  H2648    1.0000 0.71990  0.37780  0.12500  Biso   1.000  H
  C935     1.0000 0.75050  0.39380  0.18760  Biso   1.000  C
  H2649    1.0000 0.74450  0.40510  0.20510  Biso   1.000  H
  H2650    1.0000 0.75470  0.37340  0.19380  Biso   1.000  H
  C936     1.0000 0.72200  0.42450  0.15740  Biso   1.000  C
  H2651    1.0000 0.70560  0.42600  0.14320  Biso   1.000  H
  H2652    1.0000 0.71660  0.43590  0.17510  Biso   1.000  H
  H2653    1.0000 0.12640  0.06400  0.66110  Biso   1.000  H
  H2654    1.0000 0.09760  0.06040  0.71440  Biso   1.000  H
  H2655    1.0000 0.02950  0.96700  0.74540  Biso   1.000  H
  H2656    1.0000 0.01510  0.92060  0.71000  Biso   1.000  H
  C937     1.0000 0.08170  0.94430  0.70520  Biso   1.000  C
  H2657    1.0000 0.08890  0.93480  0.72340  Biso   1.000  H
  H2658    1.0000 0.09750  0.94320  0.69040  Biso   1.000  H
  N157     1.0000 0.02385  0.85609  0.66542  Biso   1.000  N
  C938     1.0000 0.07420  0.97700  0.71160  Biso   1.000  C
  H2659    1.0000 0.08610  0.98980  0.69880  Biso   1.000  H
  H2660    1.0000 0.07910  0.98170  0.73220  Biso   1.000  H
  C939     1.0000 0.09470  0.89320  0.61860  Biso   1.000  C
  H2661    1.0000 0.07690  0.88340  0.61100  Biso   1.000  H
  H2662    1.0000 0.08940  0.91370  0.62350  Biso   1.000  H
  H2663    1.0000 0.09620  0.83660  0.62900  Biso   1.000  H
  C940     1.0000 0.01460  0.87280  0.64010  Biso   1.000  C
  H2664    1.0000 0.01140  0.89350  0.64580  Biso   1.000  H
  H2665    1.0000 0.03010  0.87220  0.62500  Biso   1.000  H
  C941     1.0000 0.99950  0.85620  0.68760  Biso   1.000  C
  H2666    1.0000 0.00550  0.84490  0.70510  Biso   1.000  H
  H2667    1.0000 0.99530  0.87660  0.69380  Biso   1.000  H
  C942     1.0000 0.02800  0.82550  0.65740  Biso   1.000  C
  H2668    1.0000 0.04440  0.82400  0.64320  Biso   1.000  H
  H2669    1.0000 0.03340  0.81410  0.67510  Biso   1.000  H
  H2670    1.0000 0.12640  0.56400  0.16110  Biso   1.000  H
  H2671    1.0000 0.09760  0.56040  0.21440  Biso   1.000  H
  H2672    1.0000 0.02950  0.46700  0.24540  Biso   1.000  H
  H2673    1.0000 0.01510  0.42060  0.21000  Biso   1.000  H
  C943     1.0000 0.08170  0.44430  0.20520  Biso   1.000  C
  H2674    1.0000 0.08890  0.43480  0.22340  Biso   1.000  H
  H2675    1.0000 0.09750  0.44320  0.19040  Biso   1.000  H
  N158     1.0000 0.02385  0.35609  0.16542  Biso   1.000  N
  C944     1.0000 0.07420  0.47700  0.21160  Biso   1.000  C
  H2676    1.0000 0.08610  0.48980  0.19880  Biso   1.000  H
  H2677    1.0000 0.07910  0.48170  0.23220  Biso   1.000  H
  C945     1.0000 0.09470  0.39320  0.11860  Biso   1.000  C
  H2678    1.0000 0.07690  0.38340  0.11100  Biso   1.000  H
  H2679    1.0000 0.08940  0.41370  0.12350  Biso   1.000  H
  H2680    1.0000 0.09620  0.33660  0.12900  Biso   1.000  H
  C946     1.0000 0.01460  0.37280  0.14010  Biso   1.000  C
  H2681    1.0000 0.01140  0.39350  0.14580  Biso   1.000  H
  H2682    1.0000 0.03010  0.37220  0.12500  Biso   1.000  H
  C947     1.0000 0.99950  0.35620  0.18760  Biso   1.000  C
  H2683    1.0000 0.00550  0.34490  0.20510  Biso   1.000  H
  H2684    1.0000 0.99530  0.37660  0.19380  Biso   1.000  H
  C948     1.0000 0.02800  0.32550  0.15740  Biso   1.000  C
  H2685    1.0000 0.04440  0.32400  0.14320  Biso   1.000  H
  H2686    1.0000 0.03340  0.31410  0.17510  Biso   1.000  H
  H2687    1.0000 0.62640  0.06400  0.16110  Biso   1.000  H
  H2688    1.0000 0.59760  0.06040  0.21440  Biso   1.000  H
  H2689    1.0000 0.52950  0.96700  0.24540  Biso   1.000  H
  H2690    1.0000 0.51510  0.92060  0.21000  Biso   1.000  H
  C949     1.0000 0.58170  0.94430  0.20520  Biso   1.000  C
  H2691    1.0000 0.58890  0.93480  0.22340  Biso   1.000  H
  H2692    1.0000 0.59750  0.94320  0.19040  Biso   1.000  H
  N159     1.0000 0.52385  0.85609  0.16542  Biso   1.000  N
  C950     1.0000 0.57420  0.97700  0.21160  Biso   1.000  C
  H2693    1.0000 0.58610  0.98980  0.19880  Biso   1.000  H
  H2694    1.0000 0.57910  0.98170  0.23220  Biso   1.000  H
  C951     1.0000 0.59470  0.89320  0.11860  Biso   1.000  C
  H2695    1.0000 0.57690  0.88340  0.11100  Biso   1.000  H
  H2696    1.0000 0.58940  0.91370  0.12350  Biso   1.000  H
  H2697    1.0000 0.59620  0.83660  0.12900  Biso   1.000  H
  C952     1.0000 0.51460  0.87280  0.14010  Biso   1.000  C
  H2698    1.0000 0.51140  0.89350  0.14580  Biso   1.000  H
  H2699    1.0000 0.53010  0.87220  0.12500  Biso   1.000  H
  C953     1.0000 0.49950  0.85620  0.18760  Biso   1.000  C
  H2700    1.0000 0.50550  0.84490  0.20510  Biso   1.000  H
  H2701    1.0000 0.49530  0.87660  0.19380  Biso   1.000  H
  C954     1.0000 0.52800  0.82550  0.15740  Biso   1.000  C
  H2702    1.0000 0.54440  0.82400  0.14320  Biso   1.000  H
  H2703    1.0000 0.53340  0.81410  0.17510  Biso   1.000  H
  H2704    1.0000 0.62640  0.56400  0.66110  Biso   1.000  H
  H2705    1.0000 0.59760  0.56040  0.71440  Biso   1.000  H
  H2706    1.0000 0.52950  0.46700  0.74540  Biso   1.000  H
  H2707    1.0000 0.51510  0.42060  0.71000  Biso   1.000  H
  C955     1.0000 0.58170  0.44430  0.70520  Biso   1.000  C
  H2708    1.0000 0.58890  0.43480  0.72340  Biso   1.000  H
  H2709    1.0000 0.59750  0.44320  0.69040  Biso   1.000  H
  N160     1.0000 0.52385  0.35609  0.66542  Biso   1.000  N
  C956     1.0000 0.57420  0.47700  0.71160  Biso   1.000  C
  H2710    1.0000 0.58610  0.48980  0.69880  Biso   1.000  H
  H2711    1.0000 0.57910  0.48170  0.73220  Biso   1.000  H
  C957     1.0000 0.59470  0.39320  0.61860  Biso   1.000  C
  H2712    1.0000 0.57690  0.38340  0.61100  Biso   1.000  H
  H2713    1.0000 0.58940  0.41370  0.62350  Biso   1.000  H
  H2714    1.0000 0.59620  0.33660  0.62900  Biso   1.000  H
  C958     1.0000 0.51460  0.37280  0.64010  Biso   1.000  C
  H2715    1.0000 0.51140  0.39350  0.64580  Biso   1.000  H
  H2716    1.0000 0.53010  0.37220  0.62500  Biso   1.000  H
  C959     1.0000 0.49950  0.35620  0.68760  Biso   1.000  C
  H2717    1.0000 0.50550  0.34490  0.70510  Biso   1.000  H
  H2718    1.0000 0.49530  0.37660  0.69380  Biso   1.000  H
  C960     1.0000 0.52800  0.32550  0.65740  Biso   1.000  C
  H2719    1.0000 0.54440  0.32400  0.64320  Biso   1.000  H
  H2720    1.0000 0.53340  0.31410  0.67510  Biso   1.000  H
  H2721    1.0000 0.06400  0.66110  0.12640  Biso   1.000  H
  H2722    1.0000 0.06040  0.71440  0.09760  Biso   1.000  H
  H2723    1.0000 0.96700  0.74540  0.02950  Biso   1.000  H
  H2724    1.0000 0.92060  0.71000  0.01510  Biso   1.000  H
  C961     1.0000 0.94430  0.70520  0.08170  Biso   1.000  C
  H2725    1.0000 0.93480  0.72340  0.08890  Biso   1.000  H
  H2726    1.0000 0.94320  0.69040  0.09750  Biso   1.000  H
  N161     1.0000 0.85609  0.66542  0.02385  Biso   1.000  N
  C962     1.0000 0.97700  0.71160  0.07420  Biso   1.000  C
  H2727    1.0000 0.98980  0.69880  0.08610  Biso   1.000  H
  H2728    1.0000 0.98170  0.73220  0.07910  Biso   1.000  H
  C963     1.0000 0.89320  0.61860  0.09470  Biso   1.000  C
  H2729    1.0000 0.88340  0.61100  0.07690  Biso   1.000  H
  H2730    1.0000 0.91370  0.62350  0.08940  Biso   1.000  H
  H2731    1.0000 0.83660  0.62900  0.09620  Biso   1.000  H
  C964     1.0000 0.87280  0.64010  0.01460  Biso   1.000  C
  H2732    1.0000 0.89350  0.64580  0.01140  Biso   1.000  H
  H2733    1.0000 0.87220  0.62500  0.03010  Biso   1.000  H
  C965     1.0000 0.85620  0.68760  0.99950  Biso   1.000  C
  H2734    1.0000 0.84490  0.70510  0.00550  Biso   1.000  H
  H2735    1.0000 0.87660  0.69380  0.99530  Biso   1.000  H
  C966     1.0000 0.82550  0.65740  0.02800  Biso   1.000  C
  H2736    1.0000 0.82400  0.64320  0.04440  Biso   1.000  H
  H2737    1.0000 0.81410  0.67510  0.03340  Biso   1.000  H
  H2738    1.0000 0.06400  0.16110  0.62640  Biso   1.000  H
  H2739    1.0000 0.06040  0.21440  0.59760  Biso   1.000  H
  H2740    1.0000 0.96700  0.24540  0.52950  Biso   1.000  H
  H2741    1.0000 0.92060  0.21000  0.51510  Biso   1.000  H
  C967     1.0000 0.94430  0.20520  0.58170  Biso   1.000  C
  H2742    1.0000 0.93480  0.22340  0.58890  Biso   1.000  H
  H2743    1.0000 0.94320  0.19040  0.59750  Biso   1.000  H
  N162     1.0000 0.85609  0.16542  0.52385  Biso   1.000  N
  C968     1.0000 0.97700  0.21160  0.57420  Biso   1.000  C
  H2744    1.0000 0.98980  0.19880  0.58610  Biso   1.000  H
  H2745    1.0000 0.98170  0.23220  0.57910  Biso   1.000  H
  C969     1.0000 0.89320  0.11860  0.59470  Biso   1.000  C
  H2746    1.0000 0.88340  0.11100  0.57690  Biso   1.000  H
  H2747    1.0000 0.91370  0.12350  0.58940  Biso   1.000  H
  H2748    1.0000 0.83660  0.12900  0.59620  Biso   1.000  H
  C970     1.0000 0.87280  0.14010  0.51460  Biso   1.000  C
  H2749    1.0000 0.89350  0.14580  0.51140  Biso   1.000  H
  H2750    1.0000 0.87220  0.12500  0.53010  Biso   1.000  H
  C971     1.0000 0.85620  0.18760  0.49950  Biso   1.000  C
  H2751    1.0000 0.84490  0.20510  0.50550  Biso   1.000  H
  H2752    1.0000 0.87660  0.19380  0.49530  Biso   1.000  H
  C972     1.0000 0.82550  0.15740  0.52800  Biso   1.000  C
  H2753    1.0000 0.82400  0.14320  0.54440  Biso   1.000  H
  H2754    1.0000 0.81410  0.17510  0.53340  Biso   1.000  H
  H2755    1.0000 0.56400  0.66110  0.62640  Biso   1.000  H
  H2756    1.0000 0.56040  0.71440  0.59760  Biso   1.000  H
  H2757    1.0000 0.46700  0.74540  0.52950  Biso   1.000  H
  H2758    1.0000 0.42060  0.71000  0.51510  Biso   1.000  H
  C973     1.0000 0.44430  0.70520  0.58170  Biso   1.000  C
  H2759    1.0000 0.43480  0.72340  0.58890  Biso   1.000  H
  H2760    1.0000 0.44320  0.69040  0.59750  Biso   1.000  H
  N163     1.0000 0.35609  0.66542  0.52385  Biso   1.000  N
  C974     1.0000 0.47700  0.71160  0.57420  Biso   1.000  C
  H2761    1.0000 0.48980  0.69880  0.58610  Biso   1.000  H
  H2762    1.0000 0.48170  0.73220  0.57910  Biso   1.000  H
  C975     1.0000 0.39320  0.61860  0.59470  Biso   1.000  C
  H2763    1.0000 0.38340  0.61100  0.57690  Biso   1.000  H
  H2764    1.0000 0.41370  0.62350  0.58940  Biso   1.000  H
  H2765    1.0000 0.33660  0.62900  0.59620  Biso   1.000  H
  C976     1.0000 0.37280  0.64010  0.51460  Biso   1.000  C
  H2766    1.0000 0.39350  0.64580  0.51140  Biso   1.000  H
  H2767    1.0000 0.37220  0.62500  0.53010  Biso   1.000  H
  C977     1.0000 0.35620  0.68760  0.49950  Biso   1.000  C
  H2768    1.0000 0.34490  0.70510  0.50550  Biso   1.000  H
  H2769    1.0000 0.37660  0.69380  0.49530  Biso   1.000  H
  C978     1.0000 0.32550  0.65740  0.52800  Biso   1.000  C
  H2770    1.0000 0.32400  0.64320  0.54440  Biso   1.000  H
  H2771    1.0000 0.31410  0.67510  0.53340  Biso   1.000  H
  H2772    1.0000 0.56400  0.16110  0.12640  Biso   1.000  H
  H2773    1.0000 0.56040  0.21440  0.09760  Biso   1.000  H
  H2774    1.0000 0.46700  0.24540  0.02950  Biso   1.000  H
  H2775    1.0000 0.42060  0.21000  0.01510  Biso   1.000  H
  C979     1.0000 0.44430  0.20520  0.08170  Biso   1.000  C
  H2776    1.0000 0.43480  0.22340  0.08890  Biso   1.000  H
  H2777    1.0000 0.44320  0.19040  0.09750  Biso   1.000  H
  N164     1.0000 0.35609  0.16542  0.02385  Biso   1.000  N
  C980     1.0000 0.47700  0.21160  0.07420  Biso   1.000  C
  H2778    1.0000 0.48980  0.19880  0.08610  Biso   1.000  H
  H2779    1.0000 0.48170  0.23220  0.07910  Biso   1.000  H
  C981     1.0000 0.39320  0.11860  0.09470  Biso   1.000  C
  H2780    1.0000 0.38340  0.11100  0.07690  Biso   1.000  H
  H2781    1.0000 0.41370  0.12350  0.08940  Biso   1.000  H
  H2782    1.0000 0.33660  0.12900  0.09620  Biso   1.000  H
  C982     1.0000 0.37280  0.14010  0.01460  Biso   1.000  C
  H2783    1.0000 0.39350  0.14580  0.01140  Biso   1.000  H
  H2784    1.0000 0.37220  0.12500  0.03010  Biso   1.000  H
  C983     1.0000 0.35620  0.18760  0.99950  Biso   1.000  C
  H2785    1.0000 0.34490  0.20510  0.00550  Biso   1.000  H
  H2786    1.0000 0.37660  0.19380  0.99530  Biso   1.000  H
  C984     1.0000 0.32550  0.15740  0.02800  Biso   1.000  C
  H2787    1.0000 0.32400  0.14320  0.04440  Biso   1.000  H
  H2788    1.0000 0.31410  0.17510  0.03340  Biso   1.000  H
  H2789    1.0000 0.68600  0.16110  0.12360  Biso   1.000  H
  H2790    1.0000 0.68960  0.21440  0.15240  Biso   1.000  H
  H2791    1.0000 0.78300  0.24540  0.22050  Biso   1.000  H
  H2792    1.0000 0.82940  0.21000  0.23490  Biso   1.000  H
  C985     1.0000 0.80570  0.20520  0.16830  Biso   1.000  C
  H2793    1.0000 0.81520  0.22340  0.16110  Biso   1.000  H
  H2794    1.0000 0.80680  0.19040  0.15250  Biso   1.000  H
  N165     1.0000 0.89391  0.16542  0.22615  Biso   1.000  N
  C986     1.0000 0.77300  0.21160  0.17580  Biso   1.000  C
  H2795    1.0000 0.76020  0.19880  0.16390  Biso   1.000  H
  H2796    1.0000 0.76830  0.23220  0.17090  Biso   1.000  H
  C987     1.0000 0.85680  0.11860  0.15530  Biso   1.000  C
  H2797    1.0000 0.86660  0.11100  0.17310  Biso   1.000  H
  H2798    1.0000 0.83630  0.12350  0.16060  Biso   1.000  H
  H2799    1.0000 0.91340  0.12900  0.15380  Biso   1.000  H
  C988     1.0000 0.87720  0.14010  0.23540  Biso   1.000  C
  H2800    1.0000 0.85650  0.14580  0.23860  Biso   1.000  H
  H2801    1.0000 0.87780  0.12500  0.21990  Biso   1.000  H
  C989     1.0000 0.89380  0.18760  0.25050  Biso   1.000  C
  H2802    1.0000 0.90510  0.20510  0.24450  Biso   1.000  H
  H2803    1.0000 0.87340  0.19380  0.25470  Biso   1.000  H
  C990     1.0000 0.92450  0.15740  0.22200  Biso   1.000  C
  H2804    1.0000 0.92600  0.14320  0.20560  Biso   1.000  H
  H2805    1.0000 0.93590  0.17510  0.21660  Biso   1.000  H
  H2806    1.0000 0.68600  0.66110  0.62360  Biso   1.000  H
  H2807    1.0000 0.68960  0.71440  0.65240  Biso   1.000  H
  H2808    1.0000 0.78300  0.74540  0.72050  Biso   1.000  H
  H2809    1.0000 0.82940  0.71000  0.73490  Biso   1.000  H
  C991     1.0000 0.80570  0.70520  0.66830  Biso   1.000  C
  H2810    1.0000 0.81520  0.72340  0.66110  Biso   1.000  H
  H2811    1.0000 0.80680  0.69040  0.65250  Biso   1.000  H
  N166     1.0000 0.89391  0.66542  0.72615  Biso   1.000  N
  C992     1.0000 0.77300  0.71160  0.67580  Biso   1.000  C
  H2812    1.0000 0.76020  0.69880  0.66390  Biso   1.000  H
  H2813    1.0000 0.76830  0.73220  0.67090  Biso   1.000  H
  C993     1.0000 0.85680  0.61860  0.65530  Biso   1.000  C
  H2814    1.0000 0.86660  0.61100  0.67310  Biso   1.000  H
  H2815    1.0000 0.83630  0.62350  0.66060  Biso   1.000  H
  H2816    1.0000 0.91340  0.62900  0.65380  Biso   1.000  H
  C994     1.0000 0.87720  0.64010  0.73540  Biso   1.000  C
  H2817    1.0000 0.85650  0.64580  0.73860  Biso   1.000  H
  H2818    1.0000 0.87780  0.62500  0.71990  Biso   1.000  H
  C995     1.0000 0.89380  0.68760  0.75050  Biso   1.000  C
  H2819    1.0000 0.90510  0.70510  0.74450  Biso   1.000  H
  H2820    1.0000 0.87340  0.69380  0.75470  Biso   1.000  H
  C996     1.0000 0.92450  0.65740  0.72200  Biso   1.000  C
  H2821    1.0000 0.92600  0.64320  0.70560  Biso   1.000  H
  H2822    1.0000 0.93590  0.67510  0.71660  Biso   1.000  H
  H2823    1.0000 0.18600  0.16110  0.62360  Biso   1.000  H
  H2824    1.0000 0.18960  0.21440  0.65240  Biso   1.000  H
  H2825    1.0000 0.28300  0.24540  0.72050  Biso   1.000  H
  H2826    1.0000 0.32940  0.21000  0.73490  Biso   1.000  H
  C997     1.0000 0.30570  0.20520  0.66830  Biso   1.000  C
  H2827    1.0000 0.31520  0.22340  0.66110  Biso   1.000  H
  H2828    1.0000 0.30680  0.19040  0.65250  Biso   1.000  H
  N167     1.0000 0.39391  0.16542  0.72615  Biso   1.000  N
  C998     1.0000 0.27300  0.21160  0.67580  Biso   1.000  C
  H2829    1.0000 0.26020  0.19880  0.66390  Biso   1.000  H
  H2830    1.0000 0.26830  0.23220  0.67090  Biso   1.000  H
  C999     1.0000 0.35680  0.11860  0.65530  Biso   1.000  C
  H2831    1.0000 0.36660  0.11100  0.67310  Biso   1.000  H
  H2832    1.0000 0.33630  0.12350  0.66060  Biso   1.000  H
  H2833    1.0000 0.41340  0.12900  0.65380  Biso   1.000  H
  C1000    1.0000 0.37720  0.14010  0.73540  Biso   1.000  C
  H2834    1.0000 0.35650  0.14580  0.73860  Biso   1.000  H
  H2835    1.0000 0.37780  0.12500  0.71990  Biso   1.000  H
  C1001    1.0000 0.39380  0.18760  0.75050  Biso   1.000  C
  H2836    1.0000 0.40510  0.20510  0.74450  Biso   1.000  H
  H2837    1.0000 0.37340  0.19380  0.75470  Biso   1.000  H
  C1002    1.0000 0.42450  0.15740  0.72200  Biso   1.000  C
  H2838    1.0000 0.42600  0.14320  0.70560  Biso   1.000  H
  H2839    1.0000 0.43590  0.17510  0.71660  Biso   1.000  H
  H2840    1.0000 0.18600  0.66110  0.12360  Biso   1.000  H
  H2841    1.0000 0.18960  0.71440  0.15240  Biso   1.000  H
  H2842    1.0000 0.28300  0.74540  0.22050  Biso   1.000  H
  H2843    1.0000 0.32940  0.71000  0.23490  Biso   1.000  H
  C1003    1.0000 0.30570  0.70520  0.16830  Biso   1.000  C
  H2844    1.0000 0.31520  0.72340  0.16110  Biso   1.000  H
  H2845    1.0000 0.30680  0.69040  0.15250  Biso   1.000  H
  N168     1.0000 0.39391  0.66542  0.22615  Biso   1.000  N
  C1004    1.0000 0.27300  0.71160  0.17580  Biso   1.000  C
  H2846    1.0000 0.26020  0.69880  0.16390  Biso   1.000  H
  H2847    1.0000 0.26830  0.73220  0.17090  Biso   1.000  H
  C1005    1.0000 0.35680  0.61860  0.15530  Biso   1.000  C
  H2848    1.0000 0.36660  0.61100  0.17310  Biso   1.000  H
  H2849    1.0000 0.33630  0.62350  0.16060  Biso   1.000  H
  H2850    1.0000 0.41340  0.62900  0.15380  Biso   1.000  H
  C1006    1.0000 0.37720  0.64010  0.23540  Biso   1.000  C
  H2851    1.0000 0.35650  0.64580  0.23860  Biso   1.000  H
  H2852    1.0000 0.37780  0.62500  0.21990  Biso   1.000  H
  C1007    1.0000 0.39380  0.68760  0.25050  Biso   1.000  C
  H2853    1.0000 0.40510  0.70510  0.24450  Biso   1.000  H
  H2854    1.0000 0.37340  0.69380  0.25470  Biso   1.000  H
  C1008    1.0000 0.42450  0.65740  0.22200  Biso   1.000  C
  H2855    1.0000 0.42600  0.64320  0.20560  Biso   1.000  H
  H2856    1.0000 0.43590  0.67510  0.21660  Biso   1.000  H
  H2857    1.0000 0.18600  0.08890  0.62640  Biso   1.000  H
  H2858    1.0000 0.18960  0.03560  0.59760  Biso   1.000  H
  H2859    1.0000 0.28300  0.00460  0.52950  Biso   1.000  H
  H2860    1.0000 0.32940  0.04000  0.51510  Biso   1.000  H
  C1009    1.0000 0.30570  0.04480  0.58170  Biso   1.000  C
  H2861    1.0000 0.31520  0.02660  0.58890  Biso   1.000  H
  H2862    1.0000 0.30680  0.05960  0.59750  Biso   1.000  H
  N169     1.0000 0.39391  0.08458  0.52385  Biso   1.000  N
  C1010    1.0000 0.27300  0.03840  0.57420  Biso   1.000  C
  H2863    1.0000 0.26020  0.05120  0.58610  Biso   1.000  H
  H2864    1.0000 0.26830  0.01780  0.57910  Biso   1.000  H
  C1011    1.0000 0.35680  0.13140  0.59470  Biso   1.000  C
  H2865    1.0000 0.36660  0.13900  0.57690  Biso   1.000  H
  H2866    1.0000 0.33630  0.12650  0.58940  Biso   1.000  H
  H2867    1.0000 0.41340  0.12100  0.59620  Biso   1.000  H
  C1012    1.0000 0.37720  0.10990  0.51460  Biso   1.000  C
  H2868    1.0000 0.35650  0.10420  0.51140  Biso   1.000  H
  H2869    1.0000 0.37780  0.12500  0.53010  Biso   1.000  H
  C1013    1.0000 0.39380  0.06240  0.49950  Biso   1.000  C
  H2870    1.0000 0.40510  0.04490  0.50550  Biso   1.000  H
  H2871    1.0000 0.37340  0.05620  0.49530  Biso   1.000  H
  C1014    1.0000 0.42450  0.09260  0.52800  Biso   1.000  C
  H2872    1.0000 0.42600  0.10680  0.54440  Biso   1.000  H
  H2873    1.0000 0.43590  0.07490  0.53340  Biso   1.000  H
  H2874    1.0000 0.18600  0.58890  0.12640  Biso   1.000  H
  H2875    1.0000 0.18960  0.53560  0.09760  Biso   1.000  H
  H2876    1.0000 0.28300  0.50460  0.02950  Biso   1.000  H
  H2877    1.0000 0.32940  0.54000  0.01510  Biso   1.000  H
  C1015    1.0000 0.30570  0.54480  0.08170  Biso   1.000  C
  H2878    1.0000 0.31520  0.52660  0.08890  Biso   1.000  H
  H2879    1.0000 0.30680  0.55960  0.09750  Biso   1.000  H
  N170     1.0000 0.39391  0.58458  0.02385  Biso   1.000  N
  C1016    1.0000 0.27300  0.53840  0.07420  Biso   1.000  C
  H2880    1.0000 0.26020  0.55120  0.08610  Biso   1.000  H
  H2881    1.0000 0.26830  0.51780  0.07910  Biso   1.000  H
  C1017    1.0000 0.35680  0.63140  0.09470  Biso   1.000  C
  H2882    1.0000 0.36660  0.63900  0.07690  Biso   1.000  H
  H2883    1.0000 0.33630  0.62650  0.08940  Biso   1.000  H
  H2884    1.0000 0.41340  0.62100  0.09620  Biso   1.000  H
  C1018    1.0000 0.37720  0.60990  0.01460  Biso   1.000  C
  H2885    1.0000 0.35650  0.60420  0.01140  Biso   1.000  H
  H2886    1.0000 0.37780  0.62500  0.03010  Biso   1.000  H
  C1019    1.0000 0.39380  0.56240  0.99950  Biso   1.000  C
  H2887    1.0000 0.40510  0.54490  0.00550  Biso   1.000  H
  H2888    1.0000 0.37340  0.55620  0.99530  Biso   1.000  H
  C1020    1.0000 0.42450  0.59260  0.02800  Biso   1.000  C
  H2889    1.0000 0.42600  0.60680  0.04440  Biso   1.000  H
  H2890    1.0000 0.43590  0.57490  0.03340  Biso   1.000  H
  H2891    1.0000 0.68600  0.08890  0.12640  Biso   1.000  H
  H2892    1.0000 0.68960  0.03560  0.09760  Biso   1.000  H
  H2893    1.0000 0.78300  0.00460  0.02950  Biso   1.000  H
  H2894    1.0000 0.82940  0.04000  0.01510  Biso   1.000  H
  C1021    1.0000 0.80570  0.04480  0.08170  Biso   1.000  C
  H2895    1.0000 0.81520  0.02660  0.08890  Biso   1.000  H
  H2896    1.0000 0.80680  0.05960  0.09750  Biso   1.000  H
  N171     1.0000 0.89391  0.08458  0.02385  Biso   1.000  N
  C1022    1.0000 0.77300  0.03840  0.07420  Biso   1.000  C
  H2897    1.0000 0.76020  0.05120  0.08610  Biso   1.000  H
  H2898    1.0000 0.76830  0.01780  0.07910  Biso   1.000  H
  C1023    1.0000 0.85680  0.13140  0.09470  Biso   1.000  C
  H2899    1.0000 0.86660  0.13900  0.07690  Biso   1.000  H
  H2900    1.0000 0.83630  0.12650  0.08940  Biso   1.000  H
  H2901    1.0000 0.91340  0.12100  0.09620  Biso   1.000  H
  C1024    1.0000 0.87720  0.10990  0.01460  Biso   1.000  C
  H2902    1.0000 0.85650  0.10420  0.01140  Biso   1.000  H
  H2903    1.0000 0.87780  0.12500  0.03010  Biso   1.000  H
  C1025    1.0000 0.89380  0.06240  0.99950  Biso   1.000  C
  H2904    1.0000 0.90510  0.04490  0.00550  Biso   1.000  H
  H2905    1.0000 0.87340  0.05620  0.99530  Biso   1.000  H
  C1026    1.0000 0.92450  0.09260  0.02800  Biso   1.000  C
  H2906    1.0000 0.92600  0.10680  0.04440  Biso   1.000  H
  H2907    1.0000 0.93590  0.07490  0.03340  Biso   1.000  H
  H2908    1.0000 0.68600  0.58890  0.62640  Biso   1.000  H
  H2909    1.0000 0.68960  0.53560  0.59760  Biso   1.000  H
  H2910    1.0000 0.78300  0.50460  0.52950  Biso   1.000  H
  H2911    1.0000 0.82940  0.54000  0.51510  Biso   1.000  H
  C1027    1.0000 0.80570  0.54480  0.58170  Biso   1.000  C
  H2912    1.0000 0.81520  0.52660  0.58890  Biso   1.000  H
  H2913    1.0000 0.80680  0.55960  0.59750  Biso   1.000  H
  N172     1.0000 0.89391  0.58458  0.52385  Biso   1.000  N
  C1028    1.0000 0.77300  0.53840  0.57420  Biso   1.000  C
  H2914    1.0000 0.76020  0.55120  0.58610  Biso   1.000  H
  H2915    1.0000 0.76830  0.51780  0.57910  Biso   1.000  H
  C1029    1.0000 0.85680  0.63140  0.59470  Biso   1.000  C
  H2916    1.0000 0.86660  0.63900  0.57690  Biso   1.000  H
  H2917    1.0000 0.83630  0.62650  0.58940  Biso   1.000  H
  H2918    1.0000 0.91340  0.62100  0.59620  Biso   1.000  H
  C1030    1.0000 0.87720  0.60990  0.51460  Biso   1.000  C
  H2919    1.0000 0.85650  0.60420  0.51140  Biso   1.000  H
  H2920    1.0000 0.87780  0.62500  0.53010  Biso   1.000  H
  C1031    1.0000 0.89380  0.56240  0.49950  Biso   1.000  C
  H2921    1.0000 0.90510  0.54490  0.50550  Biso   1.000  H
  H2922    1.0000 0.87340  0.55620  0.49530  Biso   1.000  H
  C1032    1.0000 0.92450  0.59260  0.52800  Biso   1.000  C
  H2923    1.0000 0.92600  0.60680  0.54440  Biso   1.000  H
  H2924    1.0000 0.93590  0.57490  0.53340  Biso   1.000  H
  H2925    1.0000 0.56400  0.58890  0.62360  Biso   1.000  H
  H2926    1.0000 0.56040  0.53560  0.65240  Biso   1.000  H
  H2927    1.0000 0.46700  0.50460  0.72050  Biso   1.000  H
  H2928    1.0000 0.42060  0.54000  0.73490  Biso   1.000  H
  C1033    1.0000 0.44430  0.54480  0.66830  Biso   1.000  C
  H2929    1.0000 0.43480  0.52660  0.66110  Biso   1.000  H
  H2930    1.0000 0.44320  0.55960  0.65250  Biso   1.000  H
  N173     1.0000 0.35609  0.58458  0.72615  Biso   1.000  N
  C1034    1.0000 0.47700  0.53840  0.67580  Biso   1.000  C
  H2931    1.0000 0.48980  0.55120  0.66390  Biso   1.000  H
  H2932    1.0000 0.48170  0.51780  0.67090  Biso   1.000  H
  C1035    1.0000 0.39320  0.63140  0.65530  Biso   1.000  C
  H2933    1.0000 0.38340  0.63900  0.67310  Biso   1.000  H
  H2934    1.0000 0.41370  0.62650  0.66060  Biso   1.000  H
  H2935    1.0000 0.33660  0.62100  0.65380  Biso   1.000  H
  C1036    1.0000 0.37280  0.60990  0.73540  Biso   1.000  C
  H2936    1.0000 0.39350  0.60420  0.73860  Biso   1.000  H
  H2937    1.0000 0.37220  0.62500  0.71990  Biso   1.000  H
  C1037    1.0000 0.35620  0.56240  0.75050  Biso   1.000  C
  H2938    1.0000 0.34490  0.54490  0.74450  Biso   1.000  H
  H2939    1.0000 0.37660  0.55620  0.75470  Biso   1.000  H
  C1038    1.0000 0.32550  0.59260  0.72200  Biso   1.000  C
  H2940    1.0000 0.32400  0.60680  0.70560  Biso   1.000  H
  H2941    1.0000 0.31410  0.57490  0.71660  Biso   1.000  H
  H2942    1.0000 0.56400  0.08890  0.12360  Biso   1.000  H
  H2943    1.0000 0.56040  0.03560  0.15240  Biso   1.000  H
  H2944    1.0000 0.46700  0.00460  0.22050  Biso   1.000  H
  H2945    1.0000 0.42060  0.04000  0.23490  Biso   1.000  H
  C1039    1.0000 0.44430  0.04480  0.16830  Biso   1.000  C
  H2946    1.0000 0.43480  0.02660  0.16110  Biso   1.000  H
  H2947    1.0000 0.44320  0.05960  0.15250  Biso   1.000  H
  N174     1.0000 0.35609  0.08458  0.22615  Biso   1.000  N
  C1040    1.0000 0.47700  0.03840  0.17580  Biso   1.000  C
  H2948    1.0000 0.48980  0.05120  0.16390  Biso   1.000  H
  H2949    1.0000 0.48170  0.01780  0.17090  Biso   1.000  H
  C1041    1.0000 0.39320  0.13140  0.15530  Biso   1.000  C
  H2950    1.0000 0.38340  0.13900  0.17310  Biso   1.000  H
  H2951    1.0000 0.41370  0.12650  0.16060  Biso   1.000  H
  H2952    1.0000 0.33660  0.12100  0.15380  Biso   1.000  H
  C1042    1.0000 0.37280  0.10990  0.23540  Biso   1.000  C
  H2953    1.0000 0.39350  0.10420  0.23860  Biso   1.000  H
  H2954    1.0000 0.37220  0.12500  0.21990  Biso   1.000  H
  C1043    1.0000 0.35620  0.06240  0.25050  Biso   1.000  C
  H2955    1.0000 0.34490  0.04490  0.24450  Biso   1.000  H
  H2956    1.0000 0.37660  0.05620  0.25470  Biso   1.000  H
  C1044    1.0000 0.32550  0.09260  0.22200  Biso   1.000  C
  H2957    1.0000 0.32400  0.10680  0.20560  Biso   1.000  H
  H2958    1.0000 0.31410  0.07490  0.21660  Biso   1.000  H
  H2959    1.0000 0.06400  0.58890  0.12360  Biso   1.000  H
  H2960    1.0000 0.06040  0.53560  0.15240  Biso   1.000  H
  H2961    1.0000 0.96700  0.50460  0.22050  Biso   1.000  H
  H2962    1.0000 0.92060  0.54000  0.23490  Biso   1.000  H
  C1045    1.0000 0.94430  0.54480  0.16830  Biso   1.000  C
  H2963    1.0000 0.93480  0.52660  0.16110  Biso   1.000  H
  H2964    1.0000 0.94320  0.55960  0.15250  Biso   1.000  H
  N175     1.0000 0.85609  0.58458  0.22615  Biso   1.000  N
  C1046    1.0000 0.97700  0.53840  0.17580  Biso   1.000  C
  H2965    1.0000 0.98980  0.55120  0.16390  Biso   1.000  H
  H2966    1.0000 0.98170  0.51780  0.17090  Biso   1.000  H
  C1047    1.0000 0.89320  0.63140  0.15530  Biso   1.000  C
  H2967    1.0000 0.88340  0.63900  0.17310  Biso   1.000  H
  H2968    1.0000 0.91370  0.62650  0.16060  Biso   1.000  H
  H2969    1.0000 0.83660  0.62100  0.15380  Biso   1.000  H
  C1048    1.0000 0.87280  0.60990  0.23540  Biso   1.000  C
  H2970    1.0000 0.89350  0.60420  0.23860  Biso   1.000  H
  H2971    1.0000 0.87220  0.62500  0.21990  Biso   1.000  H
  C1049    1.0000 0.85620  0.56240  0.25050  Biso   1.000  C
  H2972    1.0000 0.84490  0.54490  0.24450  Biso   1.000  H
  H2973    1.0000 0.87660  0.55620  0.25470  Biso   1.000  H
  C1050    1.0000 0.82550  0.59260  0.22200  Biso   1.000  C
  H2974    1.0000 0.82400  0.60680  0.20560  Biso   1.000  H
  H2975    1.0000 0.81410  0.57490  0.21660  Biso   1.000  H
  H2976    1.0000 0.06400  0.08890  0.62360  Biso   1.000  H
  H2977    1.0000 0.06040  0.03560  0.65240  Biso   1.000  H
  H2978    1.0000 0.96700  0.00460  0.72050  Biso   1.000  H
  H2979    1.0000 0.92060  0.04000  0.73490  Biso   1.000  H
  C1051    1.0000 0.94430  0.04480  0.66830  Biso   1.000  C
  H2980    1.0000 0.93480  0.02660  0.66110  Biso   1.000  H
  H2981    1.0000 0.94320  0.05960  0.65250  Biso   1.000  H
  N176     1.0000 0.85609  0.08458  0.72615  Biso   1.000  N
  C1052    1.0000 0.97700  0.03840  0.67580  Biso   1.000  C
  H2982    1.0000 0.98980  0.05120  0.66390  Biso   1.000  H
  H2983    1.0000 0.98170  0.01780  0.67090  Biso   1.000  H
  C1053    1.0000 0.89320  0.13140  0.65530  Biso   1.000  C
  H2984    1.0000 0.88340  0.13900  0.67310  Biso   1.000  H
  H2985    1.0000 0.91370  0.12650  0.66060  Biso   1.000  H
  H2986    1.0000 0.83660  0.12100  0.65380  Biso   1.000  H
  C1054    1.0000 0.87280  0.10990  0.73540  Biso   1.000  C
  H2987    1.0000 0.89350  0.10420  0.73860  Biso   1.000  H
  H2988    1.0000 0.87220  0.12500  0.71990  Biso   1.000  H
  C1055    1.0000 0.85620  0.06240  0.75050  Biso   1.000  C
  H2989    1.0000 0.84490  0.04490  0.74450  Biso   1.000  H
  H2990    1.0000 0.87660  0.05620  0.75470  Biso   1.000  H
  C1056    1.0000 0.82550  0.09260  0.72200  Biso   1.000  C
  H2991    1.0000 0.82400  0.10680  0.70560  Biso   1.000  H
  H2992    1.0000 0.81410  0.07490  0.71660  Biso   1.000  H
  H2993    1.0000 0.16110  0.12360  0.68600  Biso   1.000  H
  H2994    1.0000 0.21440  0.15240  0.68960  Biso   1.000  H
  H2995    1.0000 0.24540  0.22050  0.78300  Biso   1.000  H
  H2996    1.0000 0.21000  0.23490  0.82940  Biso   1.000  H
  C1057    1.0000 0.20520  0.16830  0.80570  Biso   1.000  C
  H2997    1.0000 0.22340  0.16110  0.81520  Biso   1.000  H
  H2998    1.0000 0.19040  0.15250  0.80680  Biso   1.000  H
  N177     1.0000 0.16542  0.22615  0.89391  Biso   1.000  N
  C1058    1.0000 0.21160  0.17580  0.77300  Biso   1.000  C
  H2999    1.0000 0.19880  0.16390  0.76020  Biso   1.000  H
  H3000    1.0000 0.23220  0.17090  0.76830  Biso   1.000  H
  C1059    1.0000 0.11860  0.15530  0.85680  Biso   1.000  C
  H3001    1.0000 0.11100  0.17310  0.86660  Biso   1.000  H
  H3002    1.0000 0.12350  0.16060  0.83630  Biso   1.000  H
  H3003    1.0000 0.12900  0.15380  0.91340  Biso   1.000  H
  C1060    1.0000 0.14010  0.23540  0.87720  Biso   1.000  C
  H3004    1.0000 0.14580  0.23860  0.85650  Biso   1.000  H
  H3005    1.0000 0.12500  0.21990  0.87780  Biso   1.000  H
  C1061    1.0000 0.18760  0.25050  0.89380  Biso   1.000  C
  H3006    1.0000 0.20510  0.24450  0.90510  Biso   1.000  H
  H3007    1.0000 0.19380  0.25470  0.87340  Biso   1.000  H
  C1062    1.0000 0.15740  0.22200  0.92450  Biso   1.000  C
  H3008    1.0000 0.14320  0.20560  0.92600  Biso   1.000  H
  H3009    1.0000 0.17510  0.21660  0.93590  Biso   1.000  H
  H3010    1.0000 0.16110  0.62360  0.18600  Biso   1.000  H
  H3011    1.0000 0.21440  0.65240  0.18960  Biso   1.000  H
  H3012    1.0000 0.24540  0.72050  0.28300  Biso   1.000  H
  H3013    1.0000 0.21000  0.73490  0.32940  Biso   1.000  H
  C1063    1.0000 0.20520  0.66830  0.30570  Biso   1.000  C
  H3014    1.0000 0.22340  0.66110  0.31520  Biso   1.000  H
  H3015    1.0000 0.19040  0.65250  0.30680  Biso   1.000  H
  N178     1.0000 0.16542  0.72615  0.39391  Biso   1.000  N
  C1064    1.0000 0.21160  0.67580  0.27300  Biso   1.000  C
  H3016    1.0000 0.19880  0.66390  0.26020  Biso   1.000  H
  H3017    1.0000 0.23220  0.67090  0.26830  Biso   1.000  H
  C1065    1.0000 0.11860  0.65530  0.35680  Biso   1.000  C
  H3018    1.0000 0.11100  0.67310  0.36660  Biso   1.000  H
  H3019    1.0000 0.12350  0.66060  0.33630  Biso   1.000  H
  H3020    1.0000 0.12900  0.65380  0.41340  Biso   1.000  H
  C1066    1.0000 0.14010  0.73540  0.37720  Biso   1.000  C
  H3021    1.0000 0.14580  0.73860  0.35650  Biso   1.000  H
  H3022    1.0000 0.12500  0.71990  0.37780  Biso   1.000  H
  C1067    1.0000 0.18760  0.75050  0.39380  Biso   1.000  C
  H3023    1.0000 0.20510  0.74450  0.40510  Biso   1.000  H
  H3024    1.0000 0.19380  0.75470  0.37340  Biso   1.000  H
  C1068    1.0000 0.15740  0.72200  0.42450  Biso   1.000  C
  H3025    1.0000 0.14320  0.70560  0.42600  Biso   1.000  H
  H3026    1.0000 0.17510  0.71660  0.43590  Biso   1.000  H
  H3027    1.0000 0.66110  0.12360  0.18600  Biso   1.000  H
  H3028    1.0000 0.71440  0.15240  0.18960  Biso   1.000  H
  H3029    1.0000 0.74540  0.22050  0.28300  Biso   1.000  H
  H3030    1.0000 0.71000  0.23490  0.32940  Biso   1.000  H
  C1069    1.0000 0.70520  0.16830  0.30570  Biso   1.000  C
  H3031    1.0000 0.72340  0.16110  0.31520  Biso   1.000  H
  H3032    1.0000 0.69040  0.15250  0.30680  Biso   1.000  H
  N179     1.0000 0.66542  0.22615  0.39391  Biso   1.000  N
  C1070    1.0000 0.71160  0.17580  0.27300  Biso   1.000  C
  H3033    1.0000 0.69880  0.16390  0.26020  Biso   1.000  H
  H3034    1.0000 0.73220  0.17090  0.26830  Biso   1.000  H
  C1071    1.0000 0.61860  0.15530  0.35680  Biso   1.000  C
  H3035    1.0000 0.61100  0.17310  0.36660  Biso   1.000  H
  H3036    1.0000 0.62350  0.16060  0.33630  Biso   1.000  H
  H3037    1.0000 0.62900  0.15380  0.41340  Biso   1.000  H
  C1072    1.0000 0.64010  0.23540  0.37720  Biso   1.000  C
  H3038    1.0000 0.64580  0.23860  0.35650  Biso   1.000  H
  H3039    1.0000 0.62500  0.21990  0.37780  Biso   1.000  H
  C1073    1.0000 0.68760  0.25050  0.39380  Biso   1.000  C
  H3040    1.0000 0.70510  0.24450  0.40510  Biso   1.000  H
  H3041    1.0000 0.69380  0.25470  0.37340  Biso   1.000  H
  C1074    1.0000 0.65740  0.22200  0.42450  Biso   1.000  C
  H3042    1.0000 0.64320  0.20560  0.42600  Biso   1.000  H
  H3043    1.0000 0.67510  0.21660  0.43590  Biso   1.000  H
  H3044    1.0000 0.66110  0.62360  0.68600  Biso   1.000  H
  H3045    1.0000 0.71440  0.65240  0.68960  Biso   1.000  H
  H3046    1.0000 0.74540  0.72050  0.78300  Biso   1.000  H
  H3047    1.0000 0.71000  0.73490  0.82940  Biso   1.000  H
  C1075    1.0000 0.70520  0.66830  0.80570  Biso   1.000  C
  H3048    1.0000 0.72340  0.66110  0.81520  Biso   1.000  H
  H3049    1.0000 0.69040  0.65250  0.80680  Biso   1.000  H
  N180     1.0000 0.66542  0.72615  0.89391  Biso   1.000  N
  C1076    1.0000 0.71160  0.67580  0.77300  Biso   1.000  C
  H3050    1.0000 0.69880  0.66390  0.76020  Biso   1.000  H
  H3051    1.0000 0.73220  0.67090  0.76830  Biso   1.000  H
  C1077    1.0000 0.61860  0.65530  0.85680  Biso   1.000  C
  H3052    1.0000 0.61100  0.67310  0.86660  Biso   1.000  H
  H3053    1.0000 0.62350  0.66060  0.83630  Biso   1.000  H
  H3054    1.0000 0.62900  0.65380  0.91340  Biso   1.000  H
  C1078    1.0000 0.64010  0.73540  0.87720  Biso   1.000  C
  H3055    1.0000 0.64580  0.73860  0.85650  Biso   1.000  H
  H3056    1.0000 0.62500  0.71990  0.87780  Biso   1.000  H
  C1079    1.0000 0.68760  0.75050  0.89380  Biso   1.000  C
  H3057    1.0000 0.70510  0.74450  0.90510  Biso   1.000  H
  H3058    1.0000 0.69380  0.75470  0.87340  Biso   1.000  H
  C1080    1.0000 0.65740  0.72200  0.92450  Biso   1.000  C
  H3059    1.0000 0.64320  0.70560  0.92600  Biso   1.000  H
  H3060    1.0000 0.67510  0.71660  0.93590  Biso   1.000  H
  H3061    1.0000 0.66110  0.12640  0.06400  Biso   1.000  H
  H3062    1.0000 0.71440  0.09760  0.06040  Biso   1.000  H
  H3063    1.0000 0.74540  0.02950  0.96700  Biso   1.000  H
  H3064    1.0000 0.71000  0.01510  0.92060  Biso   1.000  H
  C1081    1.0000 0.70520  0.08170  0.94430  Biso   1.000  C
  H3065    1.0000 0.72340  0.08890  0.93480  Biso   1.000  H
  H3066    1.0000 0.69040  0.09750  0.94320  Biso   1.000  H
  N181     1.0000 0.66542  0.02385  0.85609  Biso   1.000  N
  C1082    1.0000 0.71160  0.07420  0.97700  Biso   1.000  C
  H3067    1.0000 0.69880  0.08610  0.98980  Biso   1.000  H
  H3068    1.0000 0.73220  0.07910  0.98170  Biso   1.000  H
  C1083    1.0000 0.61860  0.09470  0.89320  Biso   1.000  C
  H3069    1.0000 0.61100  0.07690  0.88340  Biso   1.000  H
  H3070    1.0000 0.62350  0.08940  0.91370  Biso   1.000  H
  H3071    1.0000 0.62900  0.09620  0.83660  Biso   1.000  H
  C1084    1.0000 0.64010  0.01460  0.87280  Biso   1.000  C
  H3072    1.0000 0.64580  0.01140  0.89350  Biso   1.000  H
  H3073    1.0000 0.62500  0.03010  0.87220  Biso   1.000  H
  C1085    1.0000 0.68760  0.99950  0.85620  Biso   1.000  C
  H3074    1.0000 0.70510  0.00550  0.84490  Biso   1.000  H
  H3075    1.0000 0.69380  0.99530  0.87660  Biso   1.000  H
  C1086    1.0000 0.65740  0.02800  0.82550  Biso   1.000  C
  H3076    1.0000 0.64320  0.04440  0.82400  Biso   1.000  H
  H3077    1.0000 0.67510  0.03340  0.81410  Biso   1.000  H
  H3078    1.0000 0.66110  0.62640  0.56400  Biso   1.000  H
  H3079    1.0000 0.71440  0.59760  0.56040  Biso   1.000  H
  H3080    1.0000 0.74540  0.52950  0.46700  Biso   1.000  H
  H3081    1.0000 0.71000  0.51510  0.42060  Biso   1.000  H
  C1087    1.0000 0.70520  0.58170  0.44430  Biso   1.000  C
  H3082    1.0000 0.72340  0.58890  0.43480  Biso   1.000  H
  H3083    1.0000 0.69040  0.59750  0.44320  Biso   1.000  H
  N182     1.0000 0.66542  0.52385  0.35609  Biso   1.000  N
  C1088    1.0000 0.71160  0.57420  0.47700  Biso   1.000  C
  H3084    1.0000 0.69880  0.58610  0.48980  Biso   1.000  H
  H3085    1.0000 0.73220  0.57910  0.48170  Biso   1.000  H
  C1089    1.0000 0.61860  0.59470  0.39320  Biso   1.000  C
  H3086    1.0000 0.61100  0.57690  0.38340  Biso   1.000  H
  H3087    1.0000 0.62350  0.58940  0.41370  Biso   1.000  H
  H3088    1.0000 0.62900  0.59620  0.33660  Biso   1.000  H
  C1090    1.0000 0.64010  0.51460  0.37280  Biso   1.000  C
  H3089    1.0000 0.64580  0.51140  0.39350  Biso   1.000  H
  H3090    1.0000 0.62500  0.53010  0.37220  Biso   1.000  H
  C1091    1.0000 0.68760  0.49950  0.35620  Biso   1.000  C
  H3091    1.0000 0.70510  0.50550  0.34490  Biso   1.000  H
  H3092    1.0000 0.69380  0.49530  0.37660  Biso   1.000  H
  C1092    1.0000 0.65740  0.52800  0.32550  Biso   1.000  C
  H3093    1.0000 0.64320  0.54440  0.32400  Biso   1.000  H
  H3094    1.0000 0.67510  0.53340  0.31410  Biso   1.000  H
  H3095    1.0000 0.16110  0.12640  0.56400  Biso   1.000  H
  H3096    1.0000 0.21440  0.09760  0.56040  Biso   1.000  H
  H3097    1.0000 0.24540  0.02950  0.46700  Biso   1.000  H
  H3098    1.0000 0.21000  0.01510  0.42060  Biso   1.000  H
  C1093    1.0000 0.20520  0.08170  0.44430  Biso   1.000  C
  H3099    1.0000 0.22340  0.08890  0.43480  Biso   1.000  H
  H3100    1.0000 0.19040  0.09750  0.44320  Biso   1.000  H
  N183     1.0000 0.16542  0.02385  0.35609  Biso   1.000  N
  C1094    1.0000 0.21160  0.07420  0.47700  Biso   1.000  C
  H3101    1.0000 0.19880  0.08610  0.48980  Biso   1.000  H
  H3102    1.0000 0.23220  0.07910  0.48170  Biso   1.000  H
  C1095    1.0000 0.11860  0.09470  0.39320  Biso   1.000  C
  H3103    1.0000 0.11100  0.07690  0.38340  Biso   1.000  H
  H3104    1.0000 0.12350  0.08940  0.41370  Biso   1.000  H
  H3105    1.0000 0.12900  0.09620  0.33660  Biso   1.000  H
  C1096    1.0000 0.14010  0.01460  0.37280  Biso   1.000  C
  H3106    1.0000 0.14580  0.01140  0.39350  Biso   1.000  H
  H3107    1.0000 0.12500  0.03010  0.37220  Biso   1.000  H
  C1097    1.0000 0.18760  0.99950  0.35620  Biso   1.000  C
  H3108    1.0000 0.20510  0.00550  0.34490  Biso   1.000  H
  H3109    1.0000 0.19380  0.99530  0.37660  Biso   1.000  H
  C1098    1.0000 0.15740  0.02800  0.32550  Biso   1.000  C
  H3110    1.0000 0.14320  0.04440  0.32400  Biso   1.000  H
  H3111    1.0000 0.17510  0.03340  0.31410  Biso   1.000  H
  H3112    1.0000 0.16110  0.62640  0.06400  Biso   1.000  H
  H3113    1.0000 0.21440  0.59760  0.06040  Biso   1.000  H
  H3114    1.0000 0.24540  0.52950  0.96700  Biso   1.000  H
  H3115    1.0000 0.21000  0.51510  0.92060  Biso   1.000  H
  C1099    1.0000 0.20520  0.58170  0.94430  Biso   1.000  C
  H3116    1.0000 0.22340  0.58890  0.93480  Biso   1.000  H
  H3117    1.0000 0.19040  0.59750  0.94320  Biso   1.000  H
  N184     1.0000 0.16542  0.52385  0.85609  Biso   1.000  N
  C1100    1.0000 0.21160  0.57420  0.97700  Biso   1.000  C
  H3118    1.0000 0.19880  0.58610  0.98980  Biso   1.000  H
  H3119    1.0000 0.23220  0.57910  0.98170  Biso   1.000  H
  C1101    1.0000 0.11860  0.59470  0.89320  Biso   1.000  C
  H3120    1.0000 0.11100  0.57690  0.88340  Biso   1.000  H
  H3121    1.0000 0.12350  0.58940  0.91370  Biso   1.000  H
  H3122    1.0000 0.12900  0.59620  0.83660  Biso   1.000  H
  C1102    1.0000 0.14010  0.51460  0.87280  Biso   1.000  C
  H3123    1.0000 0.14580  0.51140  0.89350  Biso   1.000  H
  H3124    1.0000 0.12500  0.53010  0.87220  Biso   1.000  H
  C1103    1.0000 0.18760  0.49950  0.85620  Biso   1.000  C
  H3125    1.0000 0.20510  0.50550  0.84490  Biso   1.000  H
  H3126    1.0000 0.19380  0.49530  0.87660  Biso   1.000  H
  C1104    1.0000 0.15740  0.52800  0.82550  Biso   1.000  C
  H3127    1.0000 0.14320  0.54440  0.82400  Biso   1.000  H
  H3128    1.0000 0.17510  0.53340  0.81410  Biso   1.000  H
  H3129    1.0000 0.58890  0.62360  0.56400  Biso   1.000  H
  H3130    1.0000 0.53560  0.65240  0.56040  Biso   1.000  H
  H3131    1.0000 0.50460  0.72050  0.46700  Biso   1.000  H
  H3132    1.0000 0.54000  0.73490  0.42060  Biso   1.000  H
  C1105    1.0000 0.54480  0.66830  0.44430  Biso   1.000  C
  H3133    1.0000 0.52660  0.66110  0.43480  Biso   1.000  H
  H3134    1.0000 0.55960  0.65250  0.44320  Biso   1.000  H
  N185     1.0000 0.58458  0.72615  0.35609  Biso   1.000  N
  C1106    1.0000 0.53840  0.67580  0.47700  Biso   1.000  C
  H3135    1.0000 0.55120  0.66390  0.48980  Biso   1.000  H
  H3136    1.0000 0.51780  0.67090  0.48170  Biso   1.000  H
  C1107    1.0000 0.63140  0.65530  0.39320  Biso   1.000  C
  H3137    1.0000 0.63900  0.67310  0.38340  Biso   1.000  H
  H3138    1.0000 0.62650  0.66060  0.41370  Biso   1.000  H
  H3139    1.0000 0.62100  0.65380  0.33660  Biso   1.000  H
  C1108    1.0000 0.60990  0.73540  0.37280  Biso   1.000  C
  H3140    1.0000 0.60420  0.73860  0.39350  Biso   1.000  H
  H3141    1.0000 0.62500  0.71990  0.37220  Biso   1.000  H
  C1109    1.0000 0.56240  0.75050  0.35620  Biso   1.000  C
  H3142    1.0000 0.54490  0.74450  0.34490  Biso   1.000  H
  H3143    1.0000 0.55620  0.75470  0.37660  Biso   1.000  H
  C1110    1.0000 0.59260  0.72200  0.32550  Biso   1.000  C
  H3144    1.0000 0.60680  0.70560  0.32400  Biso   1.000  H
  H3145    1.0000 0.57490  0.71660  0.31410  Biso   1.000  H
  H3146    1.0000 0.58890  0.12360  0.06400  Biso   1.000  H
  H3147    1.0000 0.53560  0.15240  0.06040  Biso   1.000  H
  H3148    1.0000 0.50460  0.22050  0.96700  Biso   1.000  H
  H3149    1.0000 0.54000  0.23490  0.92060  Biso   1.000  H
  C1111    1.0000 0.54480  0.16830  0.94430  Biso   1.000  C
  H3150    1.0000 0.52660  0.16110  0.93480  Biso   1.000  H
  H3151    1.0000 0.55960  0.15250  0.94320  Biso   1.000  H
  N186     1.0000 0.58458  0.22615  0.85609  Biso   1.000  N
  C1112    1.0000 0.53840  0.17580  0.97700  Biso   1.000  C
  H3152    1.0000 0.55120  0.16390  0.98980  Biso   1.000  H
  H3153    1.0000 0.51780  0.17090  0.98170  Biso   1.000  H
  C1113    1.0000 0.63140  0.15530  0.89320  Biso   1.000  C
  H3154    1.0000 0.63900  0.17310  0.88340  Biso   1.000  H
  H3155    1.0000 0.62650  0.16060  0.91370  Biso   1.000  H
  H3156    1.0000 0.62100  0.15380  0.83660  Biso   1.000  H
  C1114    1.0000 0.60990  0.23540  0.87280  Biso   1.000  C
  H3157    1.0000 0.60420  0.23860  0.89350  Biso   1.000  H
  H3158    1.0000 0.62500  0.21990  0.87220  Biso   1.000  H
  C1115    1.0000 0.56240  0.25050  0.85620  Biso   1.000  C
  H3159    1.0000 0.54490  0.24450  0.84490  Biso   1.000  H
  H3160    1.0000 0.55620  0.25470  0.87660  Biso   1.000  H
  C1116    1.0000 0.59260  0.22200  0.82550  Biso   1.000  C
  H3161    1.0000 0.60680  0.20560  0.82400  Biso   1.000  H
  H3162    1.0000 0.57490  0.21660  0.81410  Biso   1.000  H
  H3163    1.0000 0.08890  0.62360  0.06400  Biso   1.000  H
  H3164    1.0000 0.03560  0.65240  0.06040  Biso   1.000  H
  H3165    1.0000 0.00460  0.72050  0.96700  Biso   1.000  H
  H3166    1.0000 0.04000  0.73490  0.92060  Biso   1.000  H
  C1117    1.0000 0.04480  0.66830  0.94430  Biso   1.000  C
  H3167    1.0000 0.02660  0.66110  0.93480  Biso   1.000  H
  H3168    1.0000 0.05960  0.65250  0.94320  Biso   1.000  H
  N187     1.0000 0.08458  0.72615  0.85609  Biso   1.000  N
  C1118    1.0000 0.03840  0.67580  0.97700  Biso   1.000  C
  H3169    1.0000 0.05120  0.66390  0.98980  Biso   1.000  H
  H3170    1.0000 0.01780  0.67090  0.98170  Biso   1.000  H
  C1119    1.0000 0.13140  0.65530  0.89320  Biso   1.000  C
  H3171    1.0000 0.13900  0.67310  0.88340  Biso   1.000  H
  H3172    1.0000 0.12650  0.66060  0.91370  Biso   1.000  H
  H3173    1.0000 0.12100  0.65380  0.83660  Biso   1.000  H
  C1120    1.0000 0.10990  0.73540  0.87280  Biso   1.000  C
  H3174    1.0000 0.10420  0.73860  0.89350  Biso   1.000  H
  H3175    1.0000 0.12500  0.71990  0.87220  Biso   1.000  H
  C1121    1.0000 0.06240  0.75050  0.85620  Biso   1.000  C
  H3176    1.0000 0.04490  0.74450  0.84490  Biso   1.000  H
  H3177    1.0000 0.05620  0.75470  0.87660  Biso   1.000  H
  C1122    1.0000 0.09260  0.72200  0.82550  Biso   1.000  C
  H3178    1.0000 0.10680  0.70560  0.82400  Biso   1.000  H
  H3179    1.0000 0.07490  0.71660  0.81410  Biso   1.000  H
  H3180    1.0000 0.08890  0.12360  0.56400  Biso   1.000  H
  H3181    1.0000 0.03560  0.15240  0.56040  Biso   1.000  H
  H3182    1.0000 0.00460  0.22050  0.46700  Biso   1.000  H
  H3183    1.0000 0.04000  0.23490  0.42060  Biso   1.000  H
  C1123    1.0000 0.04480  0.16830  0.44430  Biso   1.000  C
  H3184    1.0000 0.02660  0.16110  0.43480  Biso   1.000  H
  H3185    1.0000 0.05960  0.15250  0.44320  Biso   1.000  H
  N188     1.0000 0.08458  0.22615  0.35609  Biso   1.000  N
  C1124    1.0000 0.03840  0.17580  0.47700  Biso   1.000  C
  H3186    1.0000 0.05120  0.16390  0.48980  Biso   1.000  H
  H3187    1.0000 0.01780  0.17090  0.48170  Biso   1.000  H
  C1125    1.0000 0.13140  0.15530  0.39320  Biso   1.000  C
  H3188    1.0000 0.13900  0.17310  0.38340  Biso   1.000  H
  H3189    1.0000 0.12650  0.16060  0.41370  Biso   1.000  H
  H3190    1.0000 0.12100  0.15380  0.33660  Biso   1.000  H
  C1126    1.0000 0.10990  0.23540  0.37280  Biso   1.000  C
  H3191    1.0000 0.10420  0.23860  0.39350  Biso   1.000  H
  H3192    1.0000 0.12500  0.21990  0.37220  Biso   1.000  H
  C1127    1.0000 0.06240  0.25050  0.35620  Biso   1.000  C
  H3193    1.0000 0.04490  0.24450  0.34490  Biso   1.000  H
  H3194    1.0000 0.05620  0.25470  0.37660  Biso   1.000  H
  C1128    1.0000 0.09260  0.22200  0.32550  Biso   1.000  C
  H3195    1.0000 0.10680  0.20560  0.32400  Biso   1.000  H
  H3196    1.0000 0.07490  0.21660  0.31410  Biso   1.000  H
  H3197    1.0000 0.08890  0.62640  0.18600  Biso   1.000  H
  H3198    1.0000 0.03560  0.59760  0.18960  Biso   1.000  H
  H3199    1.0000 0.00460  0.52950  0.28300  Biso   1.000  H
  H3200    1.0000 0.04000  0.51510  0.32940  Biso   1.000  H
  C1129    1.0000 0.04480  0.58170  0.30570  Biso   1.000  C
  H3201    1.0000 0.02660  0.58890  0.31520  Biso   1.000  H
  H3202    1.0000 0.05960  0.59750  0.30680  Biso   1.000  H
  N189     1.0000 0.08458  0.52385  0.39391  Biso   1.000  N
  C1130    1.0000 0.03840  0.57420  0.27300  Biso   1.000  C
  H3203    1.0000 0.05120  0.58610  0.26020  Biso   1.000  H
  H3204    1.0000 0.01780  0.57910  0.26830  Biso   1.000  H
  C1131    1.0000 0.13140  0.59470  0.35680  Biso   1.000  C
  H3205    1.0000 0.13900  0.57690  0.36660  Biso   1.000  H
  H3206    1.0000 0.12650  0.58940  0.33630  Biso   1.000  H
  H3207    1.0000 0.12100  0.59620  0.41340  Biso   1.000  H
  C1132    1.0000 0.10990  0.51460  0.37720  Biso   1.000  C
  H3208    1.0000 0.10420  0.51140  0.35650  Biso   1.000  H
  H3209    1.0000 0.12500  0.53010  0.37780  Biso   1.000  H
  C1133    1.0000 0.06240  0.49950  0.39380  Biso   1.000  C
  H3210    1.0000 0.04490  0.50550  0.40510  Biso   1.000  H
  H3211    1.0000 0.05620  0.49530  0.37340  Biso   1.000  H
  C1134    1.0000 0.09260  0.52800  0.42450  Biso   1.000  C
  H3212    1.0000 0.10680  0.54440  0.42600  Biso   1.000  H
  H3213    1.0000 0.07490  0.53340  0.43590  Biso   1.000  H
  H3214    1.0000 0.08890  0.12640  0.68600  Biso   1.000  H
  H3215    1.0000 0.03560  0.09760  0.68960  Biso   1.000  H
  H3216    1.0000 0.00460  0.02950  0.78300  Biso   1.000  H
  H3217    1.0000 0.04000  0.01510  0.82940  Biso   1.000  H
  C1135    1.0000 0.04480  0.08170  0.80570  Biso   1.000  C
  H3218    1.0000 0.02660  0.08890  0.81520  Biso   1.000  H
  H3219    1.0000 0.05960  0.09750  0.80680  Biso   1.000  H
  N190     1.0000 0.08458  0.02385  0.89391  Biso   1.000  N
  C1136    1.0000 0.03840  0.07420  0.77300  Biso   1.000  C
  H3220    1.0000 0.05120  0.08610  0.76020  Biso   1.000  H
  H3221    1.0000 0.01780  0.07910  0.76830  Biso   1.000  H
  C1137    1.0000 0.13140  0.09470  0.85680  Biso   1.000  C
  H3222    1.0000 0.13900  0.07690  0.86660  Biso   1.000  H
  H3223    1.0000 0.12650  0.08940  0.83630  Biso   1.000  H
  H3224    1.0000 0.12100  0.09620  0.91340  Biso   1.000  H
  C1138    1.0000 0.10990  0.01460  0.87720  Biso   1.000  C
  H3225    1.0000 0.10420  0.01140  0.85650  Biso   1.000  H
  H3226    1.0000 0.12500  0.03010  0.87780  Biso   1.000  H
  C1139    1.0000 0.06240  0.99950  0.89380  Biso   1.000  C
  H3227    1.0000 0.04490  0.00550  0.90510  Biso   1.000  H
  H3228    1.0000 0.05620  0.99530  0.87340  Biso   1.000  H
  C1140    1.0000 0.09260  0.02800  0.92450  Biso   1.000  C
  H3229    1.0000 0.10680  0.04440  0.92600  Biso   1.000  H
  H3230    1.0000 0.07490  0.03340  0.93590  Biso   1.000  H
  H3231    1.0000 0.58890  0.62640  0.68600  Biso   1.000  H
  H3232    1.0000 0.53560  0.59760  0.68960  Biso   1.000  H
  H3233    1.0000 0.50460  0.52950  0.78300  Biso   1.000  H
  H3234    1.0000 0.54000  0.51510  0.82940  Biso   1.000  H
  C1141    1.0000 0.54480  0.58170  0.80570  Biso   1.000  C
  H3235    1.0000 0.52660  0.58890  0.81520  Biso   1.000  H
  H3236    1.0000 0.55960  0.59750  0.80680  Biso   1.000  H
  N191     1.0000 0.58458  0.52385  0.89391  Biso   1.000  N
  C1142    1.0000 0.53840  0.57420  0.77300  Biso   1.000  C
  H3237    1.0000 0.55120  0.58610  0.76020  Biso   1.000  H
  H3238    1.0000 0.51780  0.57910  0.76830  Biso   1.000  H
  C1143    1.0000 0.63140  0.59470  0.85680  Biso   1.000  C
  H3239    1.0000 0.63900  0.57690  0.86660  Biso   1.000  H
  H3240    1.0000 0.62650  0.58940  0.83630  Biso   1.000  H
  H3241    1.0000 0.62100  0.59620  0.91340  Biso   1.000  H
  C1144    1.0000 0.60990  0.51460  0.87720  Biso   1.000  C
  H3242    1.0000 0.60420  0.51140  0.85650  Biso   1.000  H
  H3243    1.0000 0.62500  0.53010  0.87780  Biso   1.000  H
  C1145    1.0000 0.56240  0.49950  0.89380  Biso   1.000  C
  H3244    1.0000 0.54490  0.50550  0.90510  Biso   1.000  H
  H3245    1.0000 0.55620  0.49530  0.87340  Biso   1.000  H
  C1146    1.0000 0.59260  0.52800  0.92450  Biso   1.000  C
  H3246    1.0000 0.60680  0.54440  0.92600  Biso   1.000  H
  H3247    1.0000 0.57490  0.53340  0.93590  Biso   1.000  H
  H3248    1.0000 0.58890  0.12640  0.18600  Biso   1.000  H
  H3249    1.0000 0.53560  0.09760  0.18960  Biso   1.000  H
  H3250    1.0000 0.50460  0.02950  0.28300  Biso   1.000  H
  H3251    1.0000 0.54000  0.01510  0.32940  Biso   1.000  H
  C1147    1.0000 0.54480  0.08170  0.30570  Biso   1.000  C
  H3252    1.0000 0.52660  0.08890  0.31520  Biso   1.000  H
  H3253    1.0000 0.55960  0.09750  0.30680  Biso   1.000  H
  N192     1.0000 0.58458  0.02385  0.39391  Biso   1.000  N
  C1148    1.0000 0.53840  0.07420  0.27300  Biso   1.000  C
  H3254    1.0000 0.55120  0.08610  0.26020  Biso   1.000  H
  H3255    1.0000 0.51780  0.07910  0.26830  Biso   1.000  H
  C1149    1.0000 0.63140  0.09470  0.35680  Biso   1.000  C
  H3256    1.0000 0.63900  0.07690  0.36660  Biso   1.000  H
  H3257    1.0000 0.62650  0.08940  0.33630  Biso   1.000  H
  H3258    1.0000 0.62100  0.09620  0.41340  Biso   1.000  H
  C1150    1.0000 0.60990  0.01460  0.37720  Biso   1.000  C
  H3259    1.0000 0.60420  0.01140  0.35650  Biso   1.000  H
  H3260    1.0000 0.62500  0.03010  0.37780  Biso   1.000  H
  C1151    1.0000 0.56240  0.99950  0.39380  Biso   1.000  C
  H3261    1.0000 0.54490  0.00550  0.40510  Biso   1.000  H
  H3262    1.0000 0.55620  0.99530  0.37340  Biso   1.000  H
  C1152    1.0000 0.59260  0.02800  0.42450  Biso   1.000  C
  H3263    1.0000 0.60680  0.04440  0.42600  Biso   1.000  H
  H3264    1.0000 0.57490  0.03340  0.43590  Biso   1.000  H
  Ag1      1.0000 0.12500  0.62500  0.12500  Biso   1.000  Ag
  Ag2      1.0000 0.12500  0.12500  0.62500  Biso   1.000  Ag
  Ag3      1.0000 0.62500  0.62500  0.62500  Biso   1.000  Ag
  Ag4      1.0000 0.62500  0.12500  0.12500  Biso   1.000  Ag
  Ag5      1.0000 0.37500  0.37500  0.37500  Biso   1.000  Ag
  Ag6      1.0000 0.37500  0.87500  0.87500  Biso   1.000  Ag
  Ag7      1.0000 0.87500  0.37500  0.87500  Biso   1.000  Ag
  Ag8      1.0000 0.87500  0.87500  0.37500  Biso   1.000  Ag
  N193     1.0000 0.15480  0.59520  0.09520  Biso   1.000  N
  Ag9      1.0000 0.21760  0.53240  0.03240  Biso   1.000  Ag
  N194     1.0000 0.18750  0.56250  0.06250  Biso   1.000  N
  N195     1.0000 0.59520  0.65480  0.59520  Biso   1.000  N
  Ag10     1.0000 0.53240  0.71760  0.53240  Biso   1.000  Ag
  N196     1.0000 0.56250  0.68750  0.56250  Biso   1.000  N
  N197     1.0000 0.09520  0.09520  0.65480  Biso   1.000  N
  Ag11     1.0000 0.03240  0.03240  0.71760  Biso   1.000  Ag
  N198     1.0000 0.06250  0.06250  0.68750  Biso   1.000  N
  N199     1.0000 0.65480  0.15480  0.15480  Biso   1.000  N
  Ag12     1.0000 0.71760  0.21760  0.21760  Biso   1.000  Ag
  N200     1.0000 0.68750  0.18750  0.18750  Biso   1.000  N
  N201     1.0000 0.65480  0.65480  0.65480  Biso   1.000  N
  Ag13     1.0000 0.71760  0.71760  0.71760  Biso   1.000  Ag
  N202     1.0000 0.68750  0.68750  0.68750  Biso   1.000  N
  N203     1.0000 0.09520  0.15480  0.59520  Biso   1.000  N
  Ag14     1.0000 0.03240  0.21760  0.53240  Biso   1.000  Ag
  N204     1.0000 0.06250  0.18750  0.56250  Biso   1.000  N
  N205     1.0000 0.59520  0.59520  0.65480  Biso   1.000  N
  Ag15     1.0000 0.53240  0.53240  0.71760  Biso   1.000  Ag
  N206     1.0000 0.56250  0.56250  0.68750  Biso   1.000  N
  N207     1.0000 0.65480  0.09520  0.09520  Biso   1.000  N
  Ag16     1.0000 0.71760  0.03240  0.03240  Biso   1.000  Ag
  N208     1.0000 0.68750  0.06250  0.06250  Biso   1.000  N
  N209     1.0000 0.15480  0.65480  0.15480  Biso   1.000  N
  Ag17     1.0000 0.21760  0.71760  0.21760  Biso   1.000  Ag
  N210     1.0000 0.18750  0.68750  0.18750  Biso   1.000  N
  N211     1.0000 0.59520  0.09520  0.15480  Biso   1.000  N
  Ag18     1.0000 0.53240  0.03240  0.21760  Biso   1.000  Ag
  N212     1.0000 0.56250  0.06250  0.18750  Biso   1.000  N
  N213     1.0000 0.65480  0.59520  0.59520  Biso   1.000  N
  Ag19     1.0000 0.71760  0.53240  0.53240  Biso   1.000  Ag
  N214     1.0000 0.68750  0.56250  0.56250  Biso   1.000  N
  N215     1.0000 0.09520  0.65480  0.09520  Biso   1.000  N
  Ag20     1.0000 0.03240  0.71760  0.03240  Biso   1.000  Ag
  N216     1.0000 0.06250  0.68750  0.06250  Biso   1.000  N
  N217     1.0000 0.15480  0.15480  0.65480  Biso   1.000  N
  Ag21     1.0000 0.21760  0.21760  0.71760  Biso   1.000  Ag
  N218     1.0000 0.18750  0.18750  0.68750  Biso   1.000  N
  N219     1.0000 0.34520  0.40480  0.40480  Biso   1.000  N
  Ag22     1.0000 0.28240  0.46760  0.46760  Biso   1.000  Ag
  N220     1.0000 0.31250  0.43750  0.43750  Biso   1.000  N
  N221     1.0000 0.40480  0.84520  0.90480  Biso   1.000  N
  Ag23     1.0000 0.46760  0.78240  0.96760  Biso   1.000  Ag
  N222     1.0000 0.43750  0.81250  0.93750  Biso   1.000  N
  N223     1.0000 0.84520  0.34520  0.84520  Biso   1.000  N
  Ag24     1.0000 0.78240  0.28240  0.78240  Biso   1.000  Ag
  N224     1.0000 0.81250  0.31250  0.81250  Biso   1.000  N
  N225     1.0000 0.90480  0.90480  0.34520  Biso   1.000  N
  Ag25     1.0000 0.96760  0.96760  0.28240  Biso   1.000  Ag
  N226     1.0000 0.93750  0.93750  0.31250  Biso   1.000  N
  N227     1.0000 0.90480  0.34520  0.90480  Biso   1.000  N
  Ag26     1.0000 0.96760  0.28240  0.96760  Biso   1.000  Ag
  N228     1.0000 0.93750  0.31250  0.93750  Biso   1.000  N
  N229     1.0000 0.34520  0.84520  0.84520  Biso   1.000  N
  Ag27     1.0000 0.28240  0.78240  0.78240  Biso   1.000  Ag
  N230     1.0000 0.31250  0.81250  0.81250  Biso   1.000  N
  N231     1.0000 0.34520  0.34520  0.34520  Biso   1.000  N
  Ag28     1.0000 0.28240  0.28240  0.28240  Biso   1.000  Ag
  N232     1.0000 0.31250  0.31250  0.31250  Biso   1.000  N
  N233     1.0000 0.84520  0.90480  0.40480  Biso   1.000  N
  Ag29     1.0000 0.78240  0.96760  0.46760  Biso   1.000  Ag
  N234     1.0000 0.81250  0.93750  0.43750  Biso   1.000  N
  N235     1.0000 0.40480  0.40480  0.34520  Biso   1.000  N
  Ag30     1.0000 0.46760  0.46760  0.28240  Biso   1.000  Ag
  N236     1.0000 0.43750  0.43750  0.31250  Biso   1.000  N
  N237     1.0000 0.84520  0.84520  0.34520  Biso   1.000  N
  Ag31     1.0000 0.78240  0.78240  0.28240  Biso   1.000  Ag
  N238     1.0000 0.81250  0.81250  0.31250  Biso   1.000  N
  N239     1.0000 0.34520  0.90480  0.90480  Biso   1.000  N
  Ag32     1.0000 0.28240  0.96760  0.96760  Biso   1.000  Ag
  N240     1.0000 0.31250  0.93750  0.93750  Biso   1.000  N
  N241     1.0000 0.40480  0.34520  0.40480  Biso   1.000  N
  Ag33     1.0000 0.46760  0.28240  0.46760  Biso   1.000  Ag
  N242     1.0000 0.43750  0.31250  0.43750  Biso   1.000  N
  N243     1.0000 0.90480  0.40480  0.84520  Biso   1.000  N
  Ag34     1.0000 0.96760  0.46760  0.78240  Biso   1.000  Ag
  N244     1.0000 0.93750  0.43750  0.81250  Biso   1.000  N
  N245     1.0000 0.84520  0.40480  0.90480  Biso   1.000  N
  Ag35     1.0000 0.78240  0.46760  0.96760  Biso   1.000  Ag
  N246     1.0000 0.81250  0.43750  0.93750  Biso   1.000  N
  N247     1.0000 0.90480  0.84520  0.40480  Biso   1.000  N
  Ag36     1.0000 0.96760  0.78240  0.46760  Biso   1.000  Ag
  N248     1.0000 0.93750  0.81250  0.43750  Biso   1.000  N
  N249     1.0000 0.40480  0.90480  0.84520  Biso   1.000  N
  Ag37     1.0000 0.46760  0.96760  0.78240  Biso   1.000  Ag
  N250     1.0000 0.43750  0.93750  0.81250  Biso   1.000  N
  N251     1.0000 0.59520  0.15480  0.09520  Biso   1.000  N
  Ag38     1.0000 0.53240  0.21760  0.03240  Biso   1.000  Ag
  N252     1.0000 0.56250  0.18750  0.06250  Biso   1.000  N
  N253     1.0000 0.15480  0.09520  0.59520  Biso   1.000  N
  Ag39     1.0000 0.21760  0.03240  0.53240  Biso   1.000  Ag
  N254     1.0000 0.18750  0.06250  0.56250  Biso   1.000  N
  N255     1.0000 0.09520  0.59520  0.15480  Biso   1.000  N
  Ag40     1.0000 0.03240  0.53240  0.21760  Biso   1.000  Ag
  N256     1.0000 0.06250  0.56250  0.18750  Biso   1.000  N
  C1153    1.0000 0.17350  0.61370  0.07650  Biso   1.000  C
  C1154    1.0000 0.19350  0.59340  0.05650  Biso   1.000  C
  C1155    1.0000 0.17350  0.11370  0.57650  Biso   1.000  C
  C1156    1.0000 0.19350  0.09340  0.55650  Biso   1.000  C
  C1157    1.0000 0.67350  0.11370  0.07650  Biso   1.000  C
  C1158    1.0000 0.69350  0.09340  0.05650  Biso   1.000  C
  C1159    1.0000 0.57650  0.63630  0.57650  Biso   1.000  C
  C1160    1.0000 0.55650  0.65660  0.55650  Biso   1.000  C
  C1161    1.0000 0.57650  0.13630  0.07650  Biso   1.000  C
  C1162    1.0000 0.55650  0.15660  0.05650  Biso   1.000  C
  C1163    1.0000 0.07650  0.63630  0.07650  Biso   1.000  C
  C1164    1.0000 0.05650  0.65660  0.05650  Biso   1.000  C
  C1165    1.0000 0.07650  0.13630  0.57650  Biso   1.000  C
  C1166    1.0000 0.05650  0.15660  0.55650  Biso   1.000  C
  C1167    1.0000 0.07650  0.11370  0.67350  Biso   1.000  C
  C1168    1.0000 0.05650  0.09340  0.69350  Biso   1.000  C
  C1169    1.0000 0.57650  0.11370  0.17350  Biso   1.000  C
  C1170    1.0000 0.55650  0.09340  0.19350  Biso   1.000  C
  C1171    1.0000 0.67350  0.13630  0.17350  Biso   1.000  C
  C1172    1.0000 0.69350  0.15660  0.19350  Biso   1.000  C
  C1173    1.0000 0.67350  0.63630  0.67350  Biso   1.000  C
  C1174    1.0000 0.69350  0.65660  0.69350  Biso   1.000  C
  C1175    1.0000 0.07650  0.17350  0.61370  Biso   1.000  C
  C1176    1.0000 0.05650  0.19350  0.59340  Biso   1.000  C
  C1177    1.0000 0.07650  0.67350  0.11370  Biso   1.000  C
  C1178    1.0000 0.05650  0.69350  0.09340  Biso   1.000  C
  C1179    1.0000 0.57650  0.17350  0.11370  Biso   1.000  C
  C1180    1.0000 0.55650  0.19350  0.09340  Biso   1.000  C
  C1181    1.0000 0.57650  0.57650  0.63630  Biso   1.000  C
  C1182    1.0000 0.55650  0.55650  0.65660  Biso   1.000  C
  C1183    1.0000 0.57650  0.07650  0.13630  Biso   1.000  C
  C1184    1.0000 0.55650  0.05650  0.15660  Biso   1.000  C
  C1185    1.0000 0.07650  0.57650  0.13630  Biso   1.000  C
  C1186    1.0000 0.05650  0.55650  0.15660  Biso   1.000  C
  C1187    1.0000 0.07650  0.07650  0.63630  Biso   1.000  C
  C1188    1.0000 0.05650  0.05650  0.65660  Biso   1.000  C
  C1189    1.0000 0.67350  0.07650  0.11370  Biso   1.000  C
  C1190    1.0000 0.69350  0.05650  0.09340  Biso   1.000  C
  C1191    1.0000 0.67350  0.57650  0.61370  Biso   1.000  C
  C1192    1.0000 0.69350  0.55650  0.59340  Biso   1.000  C
  C1193    1.0000 0.17350  0.67350  0.13630  Biso   1.000  C
  C1194    1.0000 0.19350  0.69350  0.15660  Biso   1.000  C
  C1195    1.0000 0.17350  0.17350  0.63630  Biso   1.000  C
  C1196    1.0000 0.19350  0.19350  0.65660  Biso   1.000  C
  C1197    1.0000 0.67350  0.67350  0.63630  Biso   1.000  C
  C1198    1.0000 0.69350  0.69350  0.65660  Biso   1.000  C
  C1199    1.0000 0.61370  0.07650  0.17350  Biso   1.000  C
  C1200    1.0000 0.59340  0.05650  0.19350  Biso   1.000  C
  C1201    1.0000 0.61370  0.57650  0.67350  Biso   1.000  C
  C1202    1.0000 0.59340  0.55650  0.69350  Biso   1.000  C
  C1203    1.0000 0.11370  0.07650  0.67350  Biso   1.000  C
  C1204    1.0000 0.09340  0.05650  0.69350  Biso   1.000  C
  C1205    1.0000 0.63630  0.57650  0.57650  Biso   1.000  C
  C1206    1.0000 0.65660  0.55650  0.55650  Biso   1.000  C
  C1207    1.0000 0.63630  0.07650  0.07650  Biso   1.000  C
  C1208    1.0000 0.65660  0.05650  0.05650  Biso   1.000  C
  C1209    1.0000 0.13630  0.57650  0.07650  Biso   1.000  C
  C1210    1.0000 0.15660  0.55650  0.05650  Biso   1.000  C
  C1211    1.0000 0.13630  0.07650  0.57650  Biso   1.000  C
  C1212    1.0000 0.15660  0.05650  0.55650  Biso   1.000  C
  C1213    1.0000 0.11370  0.67350  0.07650  Biso   1.000  C
  C1214    1.0000 0.09340  0.69350  0.05650  Biso   1.000  C
  C1215    1.0000 0.11370  0.17350  0.57650  Biso   1.000  C
  C1216    1.0000 0.09340  0.19350  0.55650  Biso   1.000  C
  C1217    1.0000 0.13630  0.17350  0.67350  Biso   1.000  C
  C1218    1.0000 0.15660  0.19350  0.69350  Biso   1.000  C
  C1219    1.0000 0.63630  0.17350  0.17350  Biso   1.000  C
  C1220    1.0000 0.65660  0.19350  0.19350  Biso   1.000  C
  C1221    1.0000 0.63630  0.67350  0.67350  Biso   1.000  C
  C1222    1.0000 0.65660  0.69350  0.69350  Biso   1.000  C
  C1223    1.0000 0.36370  0.42350  0.42350  Biso   1.000  C
  C1224    1.0000 0.34340  0.44350  0.44350  Biso   1.000  C
  C1225    1.0000 0.36370  0.92350  0.92350  Biso   1.000  C
  C1226    1.0000 0.34340  0.94350  0.94350  Biso   1.000  C
  C1227    1.0000 0.86370  0.42350  0.92350  Biso   1.000  C
  C1228    1.0000 0.84340  0.44350  0.94350  Biso   1.000  C
  C1229    1.0000 0.86370  0.92350  0.42350  Biso   1.000  C
  C1230    1.0000 0.84340  0.94350  0.44350  Biso   1.000  C
  C1231    1.0000 0.38630  0.82650  0.92350  Biso   1.000  C
  C1232    1.0000 0.40660  0.80650  0.94350  Biso   1.000  C
  C1233    1.0000 0.38630  0.32650  0.42350  Biso   1.000  C
  C1234    1.0000 0.40660  0.30650  0.44350  Biso   1.000  C
  C1235    1.0000 0.86370  0.32650  0.82650  Biso   1.000  C
  C1236    1.0000 0.84340  0.30650  0.80650  Biso   1.000  C
  C1237    1.0000 0.36370  0.32650  0.32650  Biso   1.000  C
  C1238    1.0000 0.34340  0.30650  0.30650  Biso   1.000  C
  C1239    1.0000 0.36370  0.82650  0.82650  Biso   1.000  C
  C1240    1.0000 0.34340  0.80650  0.80650  Biso   1.000  C
  C1241    1.0000 0.88630  0.92350  0.32650  Biso   1.000  C
  C1242    1.0000 0.90660  0.94350  0.30650  Biso   1.000  C
  C1243    1.0000 0.88630  0.42350  0.82650  Biso   1.000  C
  C1244    1.0000 0.90660  0.44350  0.80650  Biso   1.000  C
  C1245    1.0000 0.92350  0.32650  0.88630  Biso   1.000  C
  C1246    1.0000 0.94350  0.30650  0.90660  Biso   1.000  C
  C1247    1.0000 0.42350  0.32650  0.38630  Biso   1.000  C
  C1248    1.0000 0.44350  0.30650  0.40660  Biso   1.000  C
  C1249    1.0000 0.32650  0.82650  0.86370  Biso   1.000  C
  C1250    1.0000 0.30650  0.80650  0.84340  Biso   1.000  C
  C1251    1.0000 0.32650  0.32650  0.36370  Biso   1.000  C
  C1252    1.0000 0.30650  0.30650  0.34340  Biso   1.000  C
  C1253    1.0000 0.82650  0.82650  0.36370  Biso   1.000  C
  C1254    1.0000 0.80650  0.80650  0.34340  Biso   1.000  C
  C1255    1.0000 0.82650  0.92350  0.38630  Biso   1.000  C
  C1256    1.0000 0.80650  0.94350  0.40660  Biso   1.000  C
  C1257    1.0000 0.82650  0.42350  0.88630  Biso   1.000  C
  C1258    1.0000 0.80650  0.44350  0.90660  Biso   1.000  C
  C1259    1.0000 0.42350  0.42350  0.36370  Biso   1.000  C
  C1260    1.0000 0.44350  0.44350  0.34340  Biso   1.000  C
  C1261    1.0000 0.42350  0.92350  0.86370  Biso   1.000  C
  C1262    1.0000 0.44350  0.94350  0.84340  Biso   1.000  C
  C1263    1.0000 0.92350  0.42350  0.86370  Biso   1.000  C
  C1264    1.0000 0.94350  0.44350  0.84340  Biso   1.000  C
  C1265    1.0000 0.92350  0.92350  0.36370  Biso   1.000  C
  C1266    1.0000 0.94350  0.94350  0.34340  Biso   1.000  C
  C1267    1.0000 0.82650  0.86370  0.32650  Biso   1.000  C
  C1268    1.0000 0.80650  0.84340  0.30650  Biso   1.000  C
  C1269    1.0000 0.82650  0.36370  0.82650  Biso   1.000  C
  C1270    1.0000 0.80650  0.34340  0.80650  Biso   1.000  C
  C1271    1.0000 0.32650  0.88630  0.92350  Biso   1.000  C
  C1272    1.0000 0.30650  0.90660  0.94350  Biso   1.000  C
  C1273    1.0000 0.32650  0.38630  0.42350  Biso   1.000  C
  C1274    1.0000 0.30650  0.40660  0.44350  Biso   1.000  C
  C1275    1.0000 0.42350  0.36370  0.42350  Biso   1.000  C
  C1276    1.0000 0.44350  0.34340  0.44350  Biso   1.000  C
  C1277    1.0000 0.42350  0.86370  0.92350  Biso   1.000  C
  C1278    1.0000 0.44350  0.84340  0.94350  Biso   1.000  C
  C1279    1.0000 0.92350  0.36370  0.92350  Biso   1.000  C
  C1280    1.0000 0.94350  0.34340  0.94350  Biso   1.000  C
  C1281    1.0000 0.92350  0.86370  0.42350  Biso   1.000  C
  C1282    1.0000 0.94350  0.84340  0.44350  Biso   1.000  C
  C1283    1.0000 0.92350  0.38630  0.82650  Biso   1.000  C
  C1284    1.0000 0.94350  0.40660  0.80650  Biso   1.000  C
  C1285    1.0000 0.42350  0.38630  0.32650  Biso   1.000  C
  C1286    1.0000 0.44350  0.40660  0.30650  Biso   1.000  C
  C1287    1.0000 0.82650  0.38630  0.92350  Biso   1.000  C
  C1288    1.0000 0.80650  0.40660  0.94350  Biso   1.000  C
  C1289    1.0000 0.82650  0.88630  0.42350  Biso   1.000  C
  C1290    1.0000 0.80650  0.90660  0.44350  Biso   1.000  C
  C1291    1.0000 0.92350  0.88630  0.32650  Biso   1.000  C
  C1292    1.0000 0.94350  0.90660  0.30650  Biso   1.000  C
  C1293    1.0000 0.42350  0.88630  0.82650  Biso   1.000  C
  C1294    1.0000 0.44350  0.90660  0.80650  Biso   1.000  C
  C1295    1.0000 0.32650  0.86370  0.82650  Biso   1.000  C
  C1296    1.0000 0.30650  0.84340  0.80650  Biso   1.000  C
  C1297    1.0000 0.32650  0.36370  0.32650  Biso   1.000  C
  C1298    1.0000 0.30650  0.34340  0.30650  Biso   1.000  C
  C1299    1.0000 0.92350  0.82650  0.38630  Biso   1.000  C
  C1300    1.0000 0.94350  0.80650  0.40660  Biso   1.000  C
  C1301    1.0000 0.42350  0.82650  0.88630  Biso   1.000  C
  C1302    1.0000 0.44350  0.80650  0.90660  Biso   1.000  C
  C1303    1.0000 0.32650  0.92350  0.88630  Biso   1.000  C
  C1304    1.0000 0.30650  0.94350  0.90660  Biso   1.000  C
  C1305    1.0000 0.32650  0.42350  0.38630  Biso   1.000  C
  C1306    1.0000 0.30650  0.44350  0.40660  Biso   1.000  C
  C1307    1.0000 0.82650  0.32650  0.86370  Biso   1.000  C
  C1308    1.0000 0.80650  0.30650  0.84340  Biso   1.000  C
  C1309    1.0000 0.38630  0.92350  0.82650  Biso   1.000  C
  C1310    1.0000 0.40660  0.94350  0.80650  Biso   1.000  C
  C1311    1.0000 0.38630  0.42350  0.32650  Biso   1.000  C
  C1312    1.0000 0.40660  0.44350  0.30650  Biso   1.000  C
  C1313    1.0000 0.88630  0.32650  0.92350  Biso   1.000  C
  C1314    1.0000 0.90660  0.30650  0.94350  Biso   1.000  C
  C1315    1.0000 0.88630  0.82650  0.42350  Biso   1.000  C
  C1316    1.0000 0.90660  0.80650  0.44350  Biso   1.000  C
  C1317    1.0000 0.86370  0.82650  0.32650  Biso   1.000  C
  C1318    1.0000 0.84340  0.80650  0.30650  Biso   1.000  C
  C1319    1.0000 0.61370  0.17350  0.07650  Biso   1.000  C
  C1320    1.0000 0.59340  0.19350  0.05650  Biso   1.000  C
  C1321    1.0000 0.61370  0.67350  0.57650  Biso   1.000  C
  C1322    1.0000 0.59340  0.69350  0.55650  Biso   1.000  C
  C1323    1.0000 0.13630  0.67350  0.17350  Biso   1.000  C
  C1324    1.0000 0.15660  0.69350  0.19350  Biso   1.000  C
  C1325    1.0000 0.11370  0.57650  0.17350  Biso   1.000  C
  C1326    1.0000 0.09340  0.55650  0.19350  Biso   1.000  C
  C1327    1.0000 0.57650  0.67350  0.61370  Biso   1.000  C
  C1328    1.0000 0.55650  0.69350  0.59340  Biso   1.000  C
  C1329    1.0000 0.67350  0.17350  0.13630  Biso   1.000  C
  C1330    1.0000 0.69350  0.19350  0.15660  Biso   1.000  C
  C1331    1.0000 0.17350  0.07650  0.61370  Biso   1.000  C
  C1332    1.0000 0.19350  0.05650  0.59340  Biso   1.000  C
  C1333    1.0000 0.17350  0.57650  0.11370  Biso   1.000  C
  C1334    1.0000 0.19350  0.55650  0.09340  Biso   1.000  C
  C1335    1.0000 0.17350  0.13630  0.67350  Biso   1.000  C
  C1336    1.0000 0.19350  0.15660  0.69350  Biso   1.000  C
  C1337    1.0000 0.17350  0.63630  0.17350  Biso   1.000  C
  C1338    1.0000 0.19350  0.65660  0.19350  Biso   1.000  C
  C1339    1.0000 0.67350  0.61370  0.57650  Biso   1.000  C
  C1340    1.0000 0.69350  0.59340  0.55650  Biso   1.000  C
  C1341    1.0000 0.07650  0.61370  0.17350  Biso   1.000  C
  C1342    1.0000 0.05650  0.59340  0.19350  Biso   1.000  C
  C1343    1.0000 0.57650  0.61370  0.67350  Biso   1.000  C
  C1344    1.0000 0.55650  0.59340  0.69350  Biso   1.000  C
  Ag41     1.0000 0.37134  0.56760  0.06760  Biso   1.000  Ag
  N257     1.0000 0.26720  0.54341  0.04341  Biso   1.000  N
  C1345    1.0000 0.28680  0.52560  0.02560  Biso   1.000  C
  N258     1.0000 0.32140  0.55554  0.05554  Biso   1.000  N
  C1346    1.0000 0.31930  0.53310  0.03310  Biso   1.000  C
  N259     1.0000 0.37210  0.60474  0.10474  Biso   1.000  N
  C1347    1.0000 0.40270  0.61360  0.11360  Biso   1.000  C
  Ag42     1.0000 0.87134  0.56760  0.56760  Biso   1.000  Ag
  N260     1.0000 0.76720  0.54341  0.54341  Biso   1.000  N
  C1348    1.0000 0.78680  0.52560  0.52560  Biso   1.000  C
  N261     1.0000 0.82140  0.55554  0.55554  Biso   1.000  N
  C1349    1.0000 0.81930  0.53310  0.53310  Biso   1.000  C
  N262     1.0000 0.87210  0.60474  0.60474  Biso   1.000  N
  C1350    1.0000 0.90270  0.61360  0.61360  Biso   1.000  C
  Ag43     1.0000 0.37866  0.68240  0.56760  Biso   1.000  Ag
  N263     1.0000 0.48280  0.70659  0.54341  Biso   1.000  N
  C1351    1.0000 0.46320  0.72440  0.52560  Biso   1.000  C
  N264     1.0000 0.42860  0.69446  0.55554  Biso   1.000  N
  C1352    1.0000 0.43070  0.71690  0.53310  Biso   1.000  C
  N265     1.0000 0.37790  0.64526  0.60474  Biso   1.000  N
  C1353    1.0000 0.34730  0.63640  0.61360  Biso   1.000  C
  Ag44     1.0000 0.37866  0.18240  0.06760  Biso   1.000  Ag
  N266     1.0000 0.48280  0.20659  0.04341  Biso   1.000  N
  C1354    1.0000 0.46320  0.22440  0.02560  Biso   1.000  C
  N267     1.0000 0.42860  0.19446  0.05554  Biso   1.000  N
  C1355    1.0000 0.43070  0.21690  0.03310  Biso   1.000  C
  N268     1.0000 0.37790  0.14526  0.10474  Biso   1.000  N
  C1356    1.0000 0.34730  0.13640  0.11360  Biso   1.000  C
  Ag45     1.0000 0.87866  0.06760  0.68240  Biso   1.000  Ag
  N269     1.0000 0.98280  0.04341  0.70659  Biso   1.000  N
  C1357    1.0000 0.96320  0.02560  0.72440  Biso   1.000  C
  N270     1.0000 0.92860  0.05554  0.69446  Biso   1.000  N
  C1358    1.0000 0.93070  0.03310  0.71690  Biso   1.000  C
  N271     1.0000 0.87790  0.10474  0.64526  Biso   1.000  N
  C1359    1.0000 0.84730  0.11360  0.63640  Biso   1.000  C
  Ag46     1.0000 0.87866  0.56760  0.18240  Biso   1.000  Ag
  N272     1.0000 0.98280  0.54341  0.20659  Biso   1.000  N
  C1360    1.0000 0.96320  0.52560  0.22440  Biso   1.000  C
  N273     1.0000 0.92860  0.55554  0.19446  Biso   1.000  N
  C1361    1.0000 0.93070  0.53310  0.21690  Biso   1.000  C
  N274     1.0000 0.87790  0.60474  0.14526  Biso   1.000  N
  C1362    1.0000 0.84730  0.61360  0.13640  Biso   1.000  C
  Ag47     1.0000 0.87134  0.18240  0.18240  Biso   1.000  Ag
  N275     1.0000 0.76720  0.20659  0.20659  Biso   1.000  N
  C1363    1.0000 0.78680  0.22440  0.22440  Biso   1.000  C
  N276     1.0000 0.82140  0.19446  0.19446  Biso   1.000  N
  C1364    1.0000 0.81930  0.21690  0.21690  Biso   1.000  C
  N277     1.0000 0.87210  0.14526  0.14526  Biso   1.000  N
  C1365    1.0000 0.90270  0.13640  0.13640  Biso   1.000  C
  Ag48     1.0000 0.87134  0.68240  0.68240  Biso   1.000  Ag
  N278     1.0000 0.76720  0.70659  0.70659  Biso   1.000  N
  C1366    1.0000 0.78680  0.72440  0.72440  Biso   1.000  C
  N279     1.0000 0.82140  0.69446  0.69446  Biso   1.000  N
  C1367    1.0000 0.81930  0.71690  0.71690  Biso   1.000  C
  N280     1.0000 0.87210  0.64526  0.64526  Biso   1.000  N
  C1368    1.0000 0.90270  0.63640  0.63640  Biso   1.000  C
  Ag49     1.0000 0.37134  0.18240  0.68240  Biso   1.000  Ag
  N281     1.0000 0.26720  0.20659  0.70659  Biso   1.000  N
  C1369    1.0000 0.28680  0.22440  0.72440  Biso   1.000  C
  N282     1.0000 0.32140  0.19446  0.69446  Biso   1.000  N
  C1370    1.0000 0.31930  0.21690  0.71690  Biso   1.000  C
  N283     1.0000 0.37210  0.14526  0.64526  Biso   1.000  N
  C1371    1.0000 0.40270  0.13640  0.63640  Biso   1.000  C
  Ag50     1.0000 0.37134  0.68240  0.18240  Biso   1.000  Ag
  N284     1.0000 0.26720  0.70659  0.20659  Biso   1.000  N
  C1372    1.0000 0.28680  0.72440  0.22440  Biso   1.000  C
  N285     1.0000 0.32140  0.69446  0.19446  Biso   1.000  N
  C1373    1.0000 0.31930  0.71690  0.21690  Biso   1.000  C
  N286     1.0000 0.37210  0.64526  0.14526  Biso   1.000  N
  C1374    1.0000 0.40270  0.63640  0.13640  Biso   1.000  C
  Ag51     1.0000 0.06760  0.37134  0.56760  Biso   1.000  Ag
  N287     1.0000 0.04341  0.26720  0.54341  Biso   1.000  N
  C1375    1.0000 0.02560  0.28680  0.52560  Biso   1.000  C
  N288     1.0000 0.05554  0.32140  0.55554  Biso   1.000  N
  C1376    1.0000 0.03310  0.31930  0.53310  Biso   1.000  C
  N289     1.0000 0.10474  0.37210  0.60474  Biso   1.000  N
  C1377    1.0000 0.11360  0.40270  0.61360  Biso   1.000  C
  Ag52     1.0000 0.06760  0.87134  0.06760  Biso   1.000  Ag
  N290     1.0000 0.04341  0.76720  0.04341  Biso   1.000  N
  C1378    1.0000 0.02560  0.78680  0.02560  Biso   1.000  C
  N291     1.0000 0.05554  0.82140  0.05554  Biso   1.000  N
  C1379    1.0000 0.03310  0.81930  0.03310  Biso   1.000  C
  N292     1.0000 0.10474  0.87210  0.10474  Biso   1.000  N
  C1380    1.0000 0.11360  0.90270  0.11360  Biso   1.000  C
  Ag53     1.0000 0.56760  0.87134  0.56760  Biso   1.000  Ag
  N293     1.0000 0.54341  0.76720  0.54341  Biso   1.000  N
  C1381    1.0000 0.52560  0.78680  0.52560  Biso   1.000  C
  N294     1.0000 0.55554  0.82140  0.55554  Biso   1.000  N
  C1382    1.0000 0.53310  0.81930  0.53310  Biso   1.000  C
  N295     1.0000 0.60474  0.87210  0.60474  Biso   1.000  N
  C1383    1.0000 0.61360  0.90270  0.61360  Biso   1.000  C
  Ag54     1.0000 0.56760  0.37866  0.68240  Biso   1.000  Ag
  N296     1.0000 0.54341  0.48280  0.70659  Biso   1.000  N
  C1384    1.0000 0.52560  0.46320  0.72440  Biso   1.000  C
  N297     1.0000 0.55554  0.42860  0.69446  Biso   1.000  N
  C1385    1.0000 0.53310  0.43070  0.71690  Biso   1.000  C
  N298     1.0000 0.60474  0.37790  0.64526  Biso   1.000  N
  C1386    1.0000 0.61360  0.34730  0.63640  Biso   1.000  C
  Ag55     1.0000 0.56760  0.87866  0.18240  Biso   1.000  Ag
  N299     1.0000 0.54341  0.98280  0.20659  Biso   1.000  N
  C1387    1.0000 0.52560  0.96320  0.22440  Biso   1.000  C
  N300     1.0000 0.55554  0.92860  0.19446  Biso   1.000  N
  C1388    1.0000 0.53310  0.93070  0.21690  Biso   1.000  C
  N301     1.0000 0.60474  0.87790  0.14526  Biso   1.000  N
  C1389    1.0000 0.61360  0.84730  0.13640  Biso   1.000  C
  Ag56     1.0000 0.68240  0.87866  0.06760  Biso   1.000  Ag
  N302     1.0000 0.70659  0.98280  0.04341  Biso   1.000  N
  C1390    1.0000 0.72440  0.96320  0.02560  Biso   1.000  C
  N303     1.0000 0.69446  0.92860  0.05554  Biso   1.000  N
  C1391    1.0000 0.71690  0.93070  0.03310  Biso   1.000  C
  N304     1.0000 0.64526  0.87790  0.10474  Biso   1.000  N
  C1392    1.0000 0.63640  0.84730  0.11360  Biso   1.000  C
  Ag57     1.0000 0.18240  0.87866  0.56760  Biso   1.000  Ag
  N305     1.0000 0.20659  0.98280  0.54341  Biso   1.000  N
  C1393    1.0000 0.22440  0.96320  0.52560  Biso   1.000  C
  N306     1.0000 0.19446  0.92860  0.55554  Biso   1.000  N
  C1394    1.0000 0.21690  0.93070  0.53310  Biso   1.000  C
  N307     1.0000 0.14526  0.87790  0.60474  Biso   1.000  N
  C1395    1.0000 0.13640  0.84730  0.61360  Biso   1.000  C
  Ag58     1.0000 0.18240  0.87134  0.18240  Biso   1.000  Ag
  N308     1.0000 0.20659  0.76720  0.20659  Biso   1.000  N
  C1396    1.0000 0.22440  0.78680  0.22440  Biso   1.000  C
  N309     1.0000 0.19446  0.82140  0.19446  Biso   1.000  N
  C1397    1.0000 0.21690  0.81930  0.21690  Biso   1.000  C
  N310     1.0000 0.14526  0.87210  0.14526  Biso   1.000  N
  C1398    1.0000 0.13640  0.90270  0.13640  Biso   1.000  C
  Ag59     1.0000 0.18240  0.37134  0.68240  Biso   1.000  Ag
  N311     1.0000 0.20659  0.26720  0.70659  Biso   1.000  N
  C1399    1.0000 0.22440  0.28680  0.72440  Biso   1.000  C
  N312     1.0000 0.19446  0.32140  0.69446  Biso   1.000  N
  C1400    1.0000 0.21690  0.31930  0.71690  Biso   1.000  C
  N313     1.0000 0.14526  0.37210  0.64526  Biso   1.000  N
  C1401    1.0000 0.13640  0.40270  0.63640  Biso   1.000  C
  Ag60     1.0000 0.68240  0.87134  0.68240  Biso   1.000  Ag
  N314     1.0000 0.70659  0.76720  0.70659  Biso   1.000  N
  C1402    1.0000 0.72440  0.78680  0.72440  Biso   1.000  C
  N315     1.0000 0.69446  0.82140  0.69446  Biso   1.000  N
  C1403    1.0000 0.71690  0.81930  0.71690  Biso   1.000  C
  N316     1.0000 0.64526  0.87210  0.64526  Biso   1.000  N
  C1404    1.0000 0.63640  0.90270  0.63640  Biso   1.000  C
  Ag61     1.0000 0.68240  0.37134  0.18240  Biso   1.000  Ag
  N317     1.0000 0.70659  0.26720  0.20659  Biso   1.000  N
  C1405    1.0000 0.72440  0.28680  0.22440  Biso   1.000  C
  N318     1.0000 0.69446  0.32140  0.19446  Biso   1.000  N
  C1406    1.0000 0.71690  0.31930  0.21690  Biso   1.000  C
  N319     1.0000 0.64526  0.37210  0.14526  Biso   1.000  N
  C1407    1.0000 0.63640  0.40270  0.13640  Biso   1.000  C
  Ag62     1.0000 0.56760  0.06760  0.37134  Biso   1.000  Ag
  N320     1.0000 0.54341  0.04341  0.26720  Biso   1.000  N
  C1408    1.0000 0.52560  0.02560  0.28680  Biso   1.000  C
  N321     1.0000 0.55554  0.05554  0.32140  Biso   1.000  N
  C1409    1.0000 0.53310  0.03310  0.31930  Biso   1.000  C
  N322     1.0000 0.60474  0.10474  0.37210  Biso   1.000  N
  C1410    1.0000 0.61360  0.11360  0.40270  Biso   1.000  C
  Ag63     1.0000 0.56760  0.56760  0.87134  Biso   1.000  Ag
  N323     1.0000 0.54341  0.54341  0.76720  Biso   1.000  N
  C1411    1.0000 0.52560  0.52560  0.78680  Biso   1.000  C
  N324     1.0000 0.55554  0.55554  0.82140  Biso   1.000  N
  C1412    1.0000 0.53310  0.53310  0.81930  Biso   1.000  C
  N325     1.0000 0.60474  0.60474  0.87210  Biso   1.000  N
  C1413    1.0000 0.61360  0.61360  0.90270  Biso   1.000  C
  Ag64     1.0000 0.68240  0.56760  0.37866  Biso   1.000  Ag
  N326     1.0000 0.70659  0.54341  0.48280  Biso   1.000  N
  C1414    1.0000 0.72440  0.52560  0.46320  Biso   1.000  C
  N327     1.0000 0.69446  0.55554  0.42860  Biso   1.000  N
  C1415    1.0000 0.71690  0.53310  0.43070  Biso   1.000  C
  N328     1.0000 0.64526  0.60474  0.37790  Biso   1.000  N
  C1416    1.0000 0.63640  0.61360  0.34730  Biso   1.000  C
  Ag65     1.0000 0.18240  0.56760  0.87866  Biso   1.000  Ag
  N329     1.0000 0.20659  0.54341  0.98280  Biso   1.000  N
  C1417    1.0000 0.22440  0.52560  0.96320  Biso   1.000  C
  N330     1.0000 0.19446  0.55554  0.92860  Biso   1.000  N
  C1418    1.0000 0.21690  0.53310  0.93070  Biso   1.000  C
  N331     1.0000 0.14526  0.60474  0.87790  Biso   1.000  N
  C1419    1.0000 0.13640  0.61360  0.84730  Biso   1.000  C
  Ag66     1.0000 0.06760  0.68240  0.87866  Biso   1.000  Ag
  N332     1.0000 0.04341  0.70659  0.98280  Biso   1.000  N
  C1420    1.0000 0.02560  0.72440  0.96320  Biso   1.000  C
  N333     1.0000 0.05554  0.69446  0.92860  Biso   1.000  N
  C1421    1.0000 0.03310  0.71690  0.93070  Biso   1.000  C
  N334     1.0000 0.10474  0.64526  0.87790  Biso   1.000  N
  C1422    1.0000 0.11360  0.63640  0.84730  Biso   1.000  C
  Ag67     1.0000 0.06760  0.18240  0.37866  Biso   1.000  Ag
  N335     1.0000 0.04341  0.20659  0.48280  Biso   1.000  N
  C1423    1.0000 0.02560  0.22440  0.46320  Biso   1.000  C
  N336     1.0000 0.05554  0.19446  0.42860  Biso   1.000  N
  C1424    1.0000 0.03310  0.21690  0.43070  Biso   1.000  C
  N337     1.0000 0.10474  0.14526  0.37790  Biso   1.000  N
  C1425    1.0000 0.11360  0.13640  0.34730  Biso   1.000  C
  Ag68     1.0000 0.18240  0.18240  0.87134  Biso   1.000  Ag
  N338     1.0000 0.20659  0.20659  0.76720  Biso   1.000  N
  C1426    1.0000 0.22440  0.22440  0.78680  Biso   1.000  C
  N339     1.0000 0.19446  0.19446  0.82140  Biso   1.000  N
  C1427    1.0000 0.21690  0.21690  0.81930  Biso   1.000  C
  N340     1.0000 0.14526  0.14526  0.87210  Biso   1.000  N
  C1428    1.0000 0.13640  0.13640  0.90270  Biso   1.000  C
  Ag69     1.0000 0.18240  0.68240  0.37134  Biso   1.000  Ag
  N341     1.0000 0.20659  0.70659  0.26720  Biso   1.000  N
  C1429    1.0000 0.22440  0.72440  0.28680  Biso   1.000  C
  N342     1.0000 0.19446  0.69446  0.32140  Biso   1.000  N
  C1430    1.0000 0.21690  0.71690  0.31930  Biso   1.000  C
  N343     1.0000 0.14526  0.64526  0.37210  Biso   1.000  N
  C1431    1.0000 0.13640  0.63640  0.40270  Biso   1.000  C
  Ag70     1.0000 0.68240  0.18240  0.37134  Biso   1.000  Ag
  N344     1.0000 0.70659  0.20659  0.26720  Biso   1.000  N
  C1432    1.0000 0.72440  0.22440  0.28680  Biso   1.000  C
  N345     1.0000 0.69446  0.19446  0.32140  Biso   1.000  N
  C1433    1.0000 0.71690  0.21690  0.31930  Biso   1.000  C
  N346     1.0000 0.64526  0.14526  0.37210  Biso   1.000  N
  C1434    1.0000 0.63640  0.13640  0.40270  Biso   1.000  C
  Ag71     1.0000 0.68240  0.68240  0.87134  Biso   1.000  Ag
  N347     1.0000 0.70659  0.70659  0.76720  Biso   1.000  N
  C1435    1.0000 0.72440  0.72440  0.78680  Biso   1.000  C
  N348     1.0000 0.69446  0.69446  0.82140  Biso   1.000  N
  C1436    1.0000 0.71690  0.71690  0.81930  Biso   1.000  C
  N349     1.0000 0.64526  0.64526  0.87210  Biso   1.000  N
  C1437    1.0000 0.63640  0.63640  0.90270  Biso   1.000  C
  Ag72     1.0000 0.31760  0.62134  0.43240  Biso   1.000  Ag
  N350     1.0000 0.29341  0.51720  0.45659  Biso   1.000  N
  C1438    1.0000 0.27560  0.53680  0.47440  Biso   1.000  C
  N351     1.0000 0.30554  0.57140  0.44446  Biso   1.000  N
  C1439    1.0000 0.28310  0.56930  0.46690  Biso   1.000  C
  N352     1.0000 0.35474  0.62210  0.39526  Biso   1.000  N
  C1440    1.0000 0.36360  0.65270  0.38640  Biso   1.000  C
  Ag73     1.0000 0.81760  0.62134  0.93240  Biso   1.000  Ag
  N353     1.0000 0.79341  0.51720  0.95659  Biso   1.000  N
  C1441    1.0000 0.77560  0.53680  0.97440  Biso   1.000  C
  N354     1.0000 0.80554  0.57140  0.94446  Biso   1.000  N
  C1442    1.0000 0.78310  0.56930  0.96690  Biso   1.000  C
  N355     1.0000 0.85474  0.62210  0.89526  Biso   1.000  N
  C1443    1.0000 0.86360  0.65270  0.88640  Biso   1.000  C
  Ag74     1.0000 0.43240  0.62866  0.93240  Biso   1.000  Ag
  N356     1.0000 0.45659  0.73280  0.95659  Biso   1.000  N
  C1444    1.0000 0.47440  0.71320  0.97440  Biso   1.000  C
  N357     1.0000 0.44446  0.67860  0.94446  Biso   1.000  N
  C1445    1.0000 0.46690  0.68070  0.96690  Biso   1.000  C
  N358     1.0000 0.39526  0.62790  0.89526  Biso   1.000  N
  C1446    1.0000 0.38640  0.59730  0.88640  Biso   1.000  C
  Ag75     1.0000 0.43240  0.12866  0.43240  Biso   1.000  Ag
  N359     1.0000 0.45659  0.23280  0.45659  Biso   1.000  N
  C1447    1.0000 0.47440  0.21320  0.47440  Biso   1.000  C
  N360     1.0000 0.44446  0.17860  0.44446  Biso   1.000  N
  C1448    1.0000 0.46690  0.18070  0.46690  Biso   1.000  C
  N361     1.0000 0.39526  0.12790  0.39526  Biso   1.000  N
  C1449    1.0000 0.38640  0.09730  0.38640  Biso   1.000  C
  Ag76     1.0000 0.93240  0.12866  0.93240  Biso   1.000  Ag
  N362     1.0000 0.95659  0.23280  0.95659  Biso   1.000  N
  C1450    1.0000 0.97440  0.21320  0.97440  Biso   1.000  C
  N363     1.0000 0.94446  0.17860  0.94446  Biso   1.000  N
  C1451    1.0000 0.96690  0.18070  0.96690  Biso   1.000  C
  N364     1.0000 0.89526  0.12790  0.89526  Biso   1.000  N
  C1452    1.0000 0.88640  0.09730  0.88640  Biso   1.000  C
  Ag77     1.0000 0.81760  0.12866  0.81760  Biso   1.000  Ag
  N365     1.0000 0.79341  0.23280  0.79341  Biso   1.000  N
  C1453    1.0000 0.77560  0.21320  0.77560  Biso   1.000  C
  N366     1.0000 0.80554  0.17860  0.80554  Biso   1.000  N
  C1454    1.0000 0.78310  0.18070  0.78310  Biso   1.000  C
  N367     1.0000 0.85474  0.12790  0.85474  Biso   1.000  N
  C1455    1.0000 0.86360  0.09730  0.86360  Biso   1.000  C
  Ag78     1.0000 0.81760  0.62866  0.31760  Biso   1.000  Ag
  N368     1.0000 0.79341  0.73280  0.29341  Biso   1.000  N
  C1456    1.0000 0.77560  0.71320  0.27560  Biso   1.000  C
  N369     1.0000 0.80554  0.67860  0.30554  Biso   1.000  N
  C1457    1.0000 0.78310  0.68070  0.28310  Biso   1.000  C
  N370     1.0000 0.85474  0.62790  0.35474  Biso   1.000  N
  C1458    1.0000 0.86360  0.59730  0.36360  Biso   1.000  C
  Ag79     1.0000 0.31760  0.12866  0.31760  Biso   1.000  Ag
  N371     1.0000 0.29341  0.23280  0.29341  Biso   1.000  N
  C1459    1.0000 0.27560  0.21320  0.27560  Biso   1.000  C
  N372     1.0000 0.30554  0.17860  0.30554  Biso   1.000  N
  C1460    1.0000 0.28310  0.18070  0.28310  Biso   1.000  C
  N373     1.0000 0.35474  0.12790  0.35474  Biso   1.000  N
  C1461    1.0000 0.36360  0.09730  0.36360  Biso   1.000  C
  Ag80     1.0000 0.31760  0.62866  0.81760  Biso   1.000  Ag
  N374     1.0000 0.29341  0.73280  0.79341  Biso   1.000  N
  C1462    1.0000 0.27560  0.71320  0.77560  Biso   1.000  C
  N375     1.0000 0.30554  0.67860  0.80554  Biso   1.000  N
  C1463    1.0000 0.28310  0.68070  0.78310  Biso   1.000  C
  N376     1.0000 0.35474  0.62790  0.85474  Biso   1.000  N
  C1464    1.0000 0.36360  0.59730  0.86360  Biso   1.000  C
  Ag81     1.0000 0.93240  0.12134  0.31760  Biso   1.000  Ag
  N377     1.0000 0.95659  0.01720  0.29341  Biso   1.000  N
  C1465    1.0000 0.97440  0.03680  0.27560  Biso   1.000  C
  N378     1.0000 0.94446  0.07140  0.30554  Biso   1.000  N
  C1466    1.0000 0.96690  0.06930  0.28310  Biso   1.000  C
  N379     1.0000 0.89526  0.12210  0.35474  Biso   1.000  N
  C1467    1.0000 0.88640  0.15270  0.36360  Biso   1.000  C
  Ag82     1.0000 0.93240  0.62134  0.81760  Biso   1.000  Ag
  N380     1.0000 0.95659  0.51720  0.79341  Biso   1.000  N
  C1468    1.0000 0.97440  0.53680  0.77560  Biso   1.000  C
  N381     1.0000 0.94446  0.57140  0.80554  Biso   1.000  N
  C1469    1.0000 0.96690  0.56930  0.78310  Biso   1.000  C
  N382     1.0000 0.89526  0.62210  0.85474  Biso   1.000  N
  C1470    1.0000 0.88640  0.65270  0.86360  Biso   1.000  C
  Ag83     1.0000 0.12134  0.31760  0.93240  Biso   1.000  Ag
  N383     1.0000 0.01720  0.29341  0.95659  Biso   1.000  N
  C1471    1.0000 0.03680  0.27560  0.97440  Biso   1.000  C
  N384     1.0000 0.07140  0.30554  0.94446  Biso   1.000  N
  C1472    1.0000 0.06930  0.28310  0.96690  Biso   1.000  C
  N385     1.0000 0.12210  0.35474  0.89526  Biso   1.000  N
  C1473    1.0000 0.15270  0.36360  0.88640  Biso   1.000  C
  Ag84     1.0000 0.12134  0.81760  0.43240  Biso   1.000  Ag
  N386     1.0000 0.01720  0.79341  0.45659  Biso   1.000  N
  C1474    1.0000 0.03680  0.77560  0.47440  Biso   1.000  C
  N387     1.0000 0.07140  0.80554  0.44446  Biso   1.000  N
  C1475    1.0000 0.06930  0.78310  0.46690  Biso   1.000  C
  N388     1.0000 0.12210  0.85474  0.39526  Biso   1.000  N
  C1476    1.0000 0.15270  0.86360  0.38640  Biso   1.000  C
  Ag85     1.0000 0.12866  0.81760  0.81760  Biso   1.000  Ag
  N389     1.0000 0.23280  0.79341  0.79341  Biso   1.000  N
  C1477    1.0000 0.21320  0.77560  0.77560  Biso   1.000  C
  N390     1.0000 0.17860  0.80554  0.80554  Biso   1.000  N
  C1478    1.0000 0.18070  0.78310  0.78310  Biso   1.000  C
  N391     1.0000 0.12790  0.85474  0.85474  Biso   1.000  N
  C1479    1.0000 0.09730  0.86360  0.86360  Biso   1.000  C
  Ag86     1.0000 0.12866  0.31760  0.31760  Biso   1.000  Ag
  N392     1.0000 0.23280  0.29341  0.29341  Biso   1.000  N
  C1480    1.0000 0.21320  0.27560  0.27560  Biso   1.000  C
  N393     1.0000 0.17860  0.30554  0.30554  Biso   1.000  N
  C1481    1.0000 0.18070  0.28310  0.28310  Biso   1.000  C
  N394     1.0000 0.12790  0.35474  0.35474  Biso   1.000  N
  C1482    1.0000 0.09730  0.36360  0.36360  Biso   1.000  C
  Ag87     1.0000 0.62866  0.81760  0.31760  Biso   1.000  Ag
  N395     1.0000 0.73280  0.79341  0.29341  Biso   1.000  N
  C1483    1.0000 0.71320  0.77560  0.27560  Biso   1.000  C
  N396     1.0000 0.67860  0.80554  0.30554  Biso   1.000  N
  C1484    1.0000 0.68070  0.78310  0.28310  Biso   1.000  C
  N397     1.0000 0.62790  0.85474  0.35474  Biso   1.000  N
  C1485    1.0000 0.59730  0.86360  0.36360  Biso   1.000  C
  Ag88     1.0000 0.62866  0.31760  0.81760  Biso   1.000  Ag
  N398     1.0000 0.73280  0.29341  0.79341  Biso   1.000  N
  C1486    1.0000 0.71320  0.27560  0.77560  Biso   1.000  C
  N399     1.0000 0.67860  0.30554  0.80554  Biso   1.000  N
  C1487    1.0000 0.68070  0.28310  0.78310  Biso   1.000  C
  N400     1.0000 0.62790  0.35474  0.85474  Biso   1.000  N
  C1488    1.0000 0.59730  0.36360  0.86360  Biso   1.000  C
  Ag89     1.0000 0.62866  0.93240  0.43240  Biso   1.000  Ag
  N401     1.0000 0.73280  0.95659  0.45659  Biso   1.000  N
  C1489    1.0000 0.71320  0.97440  0.47440  Biso   1.000  C
  N402     1.0000 0.67860  0.94446  0.44446  Biso   1.000  N
  C1490    1.0000 0.68070  0.96690  0.46690  Biso   1.000  C
  N403     1.0000 0.62790  0.89526  0.39526  Biso   1.000  N
  C1491    1.0000 0.59730  0.88640  0.38640  Biso   1.000  C
  Ag90     1.0000 0.12866  0.93240  0.93240  Biso   1.000  Ag
  N404     1.0000 0.23280  0.95659  0.95659  Biso   1.000  N
  C1492    1.0000 0.21320  0.97440  0.97440  Biso   1.000  C
  N405     1.0000 0.17860  0.94446  0.94446  Biso   1.000  N
  C1493    1.0000 0.18070  0.96690  0.96690  Biso   1.000  C
  N406     1.0000 0.12790  0.89526  0.89526  Biso   1.000  N
  C1494    1.0000 0.09730  0.88640  0.88640  Biso   1.000  C
  Ag91     1.0000 0.62134  0.43240  0.31760  Biso   1.000  Ag
  N407     1.0000 0.51720  0.45659  0.29341  Biso   1.000  N
  C1495    1.0000 0.53680  0.47440  0.27560  Biso   1.000  C
  N408     1.0000 0.57140  0.44446  0.30554  Biso   1.000  N
  C1496    1.0000 0.56930  0.46690  0.28310  Biso   1.000  C
  N409     1.0000 0.62210  0.39526  0.35474  Biso   1.000  N
  C1497    1.0000 0.65270  0.38640  0.36360  Biso   1.000  C
  Ag92     1.0000 0.62134  0.93240  0.81760  Biso   1.000  Ag
  N410     1.0000 0.51720  0.95659  0.79341  Biso   1.000  N
  C1498    1.0000 0.53680  0.97440  0.77560  Biso   1.000  C
  N411     1.0000 0.57140  0.94446  0.80554  Biso   1.000  N
  C1499    1.0000 0.56930  0.96690  0.78310  Biso   1.000  C
  N412     1.0000 0.62210  0.89526  0.85474  Biso   1.000  N
  C1500    1.0000 0.65270  0.88640  0.86360  Biso   1.000  C
  Ag93     1.0000 0.81760  0.81760  0.12866  Biso   1.000  Ag
  N413     1.0000 0.79341  0.79341  0.23280  Biso   1.000  N
  C1501    1.0000 0.77560  0.77560  0.21320  Biso   1.000  C
  N414     1.0000 0.80554  0.80554  0.17860  Biso   1.000  N
  C1502    1.0000 0.78310  0.78310  0.18070  Biso   1.000  C
  N415     1.0000 0.85474  0.85474  0.12790  Biso   1.000  N
  C1503    1.0000 0.86360  0.86360  0.09730  Biso   1.000  C
  Ag94     1.0000 0.81760  0.31760  0.62866  Biso   1.000  Ag
  N416     1.0000 0.79341  0.29341  0.73280  Biso   1.000  N
  C1504    1.0000 0.77560  0.27560  0.71320  Biso   1.000  C
  N417     1.0000 0.80554  0.30554  0.67860  Biso   1.000  N
  C1505    1.0000 0.78310  0.28310  0.68070  Biso   1.000  C
  N418     1.0000 0.85474  0.35474  0.62790  Biso   1.000  N
  C1506    1.0000 0.86360  0.36360  0.59730  Biso   1.000  C
  Ag95     1.0000 0.31760  0.81760  0.62866  Biso   1.000  Ag
  N419     1.0000 0.29341  0.79341  0.73280  Biso   1.000  N
  C1507    1.0000 0.27560  0.77560  0.71320  Biso   1.000  C
  N420     1.0000 0.30554  0.80554  0.67860  Biso   1.000  N
  C1508    1.0000 0.28310  0.78310  0.68070  Biso   1.000  C
  N421     1.0000 0.35474  0.85474  0.62790  Biso   1.000  N
  C1509    1.0000 0.36360  0.86360  0.59730  Biso   1.000  C
  Ag96     1.0000 0.31760  0.31760  0.12866  Biso   1.000  Ag
  N422     1.0000 0.29341  0.29341  0.23280  Biso   1.000  N
  C1510    1.0000 0.27560  0.27560  0.21320  Biso   1.000  C
  N423     1.0000 0.30554  0.30554  0.17860  Biso   1.000  N
  C1511    1.0000 0.28310  0.28310  0.18070  Biso   1.000  C
  N424     1.0000 0.35474  0.35474  0.12790  Biso   1.000  N
  C1512    1.0000 0.36360  0.36360  0.09730  Biso   1.000  C
  Ag97     1.0000 0.31760  0.93240  0.12134  Biso   1.000  Ag
  N425     1.0000 0.29341  0.95659  0.01720  Biso   1.000  N
  C1513    1.0000 0.27560  0.97440  0.03680  Biso   1.000  C
  N426     1.0000 0.30554  0.94446  0.07140  Biso   1.000  N
  C1514    1.0000 0.28310  0.96690  0.06930  Biso   1.000  C
  N427     1.0000 0.35474  0.89526  0.12210  Biso   1.000  N
  C1515    1.0000 0.36360  0.88640  0.15270  Biso   1.000  C
  Ag98     1.0000 0.81760  0.93240  0.62134  Biso   1.000  Ag
  N428     1.0000 0.79341  0.95659  0.51720  Biso   1.000  N
  C1516    1.0000 0.77560  0.97440  0.53680  Biso   1.000  C
  N429     1.0000 0.80554  0.94446  0.57140  Biso   1.000  N
  C1517    1.0000 0.78310  0.96690  0.56930  Biso   1.000  C
  N430     1.0000 0.85474  0.89526  0.62210  Biso   1.000  N
  C1518    1.0000 0.86360  0.88640  0.65270  Biso   1.000  C
  Ag99     1.0000 0.43240  0.31760  0.62134  Biso   1.000  Ag
  N431     1.0000 0.45659  0.29341  0.51720  Biso   1.000  N
  C1519    1.0000 0.47440  0.27560  0.53680  Biso   1.000  C
  N432     1.0000 0.44446  0.30554  0.57140  Biso   1.000  N
  C1520    1.0000 0.46690  0.28310  0.56930  Biso   1.000  C
  N433     1.0000 0.39526  0.35474  0.62210  Biso   1.000  N
  C1521    1.0000 0.38640  0.36360  0.65270  Biso   1.000  C
  Ag100    1.0000 0.43240  0.81760  0.12134  Biso   1.000  Ag
  N434     1.0000 0.45659  0.79341  0.01720  Biso   1.000  N
  C1522    1.0000 0.47440  0.77560  0.03680  Biso   1.000  C
  N435     1.0000 0.44446  0.80554  0.07140  Biso   1.000  N
  C1523    1.0000 0.46690  0.78310  0.06930  Biso   1.000  C
  N436     1.0000 0.39526  0.85474  0.12210  Biso   1.000  N
  C1524    1.0000 0.38640  0.86360  0.15270  Biso   1.000  C
  Ag101    1.0000 0.93240  0.43240  0.62866  Biso   1.000  Ag
  N437     1.0000 0.95659  0.45659  0.73280  Biso   1.000  N
  C1525    1.0000 0.97440  0.47440  0.71320  Biso   1.000  C
  N438     1.0000 0.94446  0.44446  0.67860  Biso   1.000  N
  C1526    1.0000 0.96690  0.46690  0.68070  Biso   1.000  C
  N439     1.0000 0.89526  0.39526  0.62790  Biso   1.000  N
  C1527    1.0000 0.88640  0.38640  0.59730  Biso   1.000  C
  Ag102    1.0000 0.93240  0.93240  0.12866  Biso   1.000  Ag
  N440     1.0000 0.95659  0.95659  0.23280  Biso   1.000  N
  C1528    1.0000 0.97440  0.97440  0.21320  Biso   1.000  C
  N441     1.0000 0.94446  0.94446  0.17860  Biso   1.000  N
  C1529    1.0000 0.96690  0.96690  0.18070  Biso   1.000  C
  N442     1.0000 0.89526  0.89526  0.12790  Biso   1.000  N
  C1530    1.0000 0.88640  0.88640  0.09730  Biso   1.000  C
  Ag103    1.0000 0.62866  0.43240  0.93240  Biso   1.000  Ag
  N443     1.0000 0.73280  0.45659  0.95659  Biso   1.000  N
  C1531    1.0000 0.71320  0.47440  0.97440  Biso   1.000  C
  N444     1.0000 0.67860  0.44446  0.94446  Biso   1.000  N
  C1532    1.0000 0.68070  0.46690  0.96690  Biso   1.000  C
  N445     1.0000 0.62790  0.39526  0.89526  Biso   1.000  N
  C1533    1.0000 0.59730  0.38640  0.88640  Biso   1.000  C
  Ag104    1.0000 0.12866  0.43240  0.43240  Biso   1.000  Ag
  N446     1.0000 0.23280  0.45659  0.45659  Biso   1.000  N
  C1534    1.0000 0.21320  0.47440  0.47440  Biso   1.000  C
  N447     1.0000 0.17860  0.44446  0.44446  Biso   1.000  N
  C1535    1.0000 0.18070  0.46690  0.46690  Biso   1.000  C
  N448     1.0000 0.12790  0.39526  0.39526  Biso   1.000  N
  C1536    1.0000 0.09730  0.38640  0.38640  Biso   1.000  C
  Ag105    1.0000 0.62134  0.31760  0.43240  Biso   1.000  Ag
  N449     1.0000 0.51720  0.29341  0.45659  Biso   1.000  N
  C1537    1.0000 0.53680  0.27560  0.47440  Biso   1.000  C
  N450     1.0000 0.57140  0.30554  0.44446  Biso   1.000  N
  C1538    1.0000 0.56930  0.28310  0.46690  Biso   1.000  C
  N451     1.0000 0.62210  0.35474  0.39526  Biso   1.000  N
  C1539    1.0000 0.65270  0.36360  0.38640  Biso   1.000  C
  Ag106    1.0000 0.62134  0.81760  0.93240  Biso   1.000  Ag
  N452     1.0000 0.51720  0.79341  0.95659  Biso   1.000  N
  C1540    1.0000 0.53680  0.77560  0.97440  Biso   1.000  C
  N453     1.0000 0.57140  0.80554  0.94446  Biso   1.000  N
  C1541    1.0000 0.56930  0.78310  0.96690  Biso   1.000  C
  N454     1.0000 0.62210  0.85474  0.89526  Biso   1.000  N
  C1542    1.0000 0.65270  0.86360  0.88640  Biso   1.000  C
  Ag107    1.0000 0.12134  0.93240  0.31760  Biso   1.000  Ag
  N455     1.0000 0.01720  0.95659  0.29341  Biso   1.000  N
  C1543    1.0000 0.03680  0.97440  0.27560  Biso   1.000  C
  N456     1.0000 0.07140  0.94446  0.30554  Biso   1.000  N
  C1544    1.0000 0.06930  0.96690  0.28310  Biso   1.000  C
  N457     1.0000 0.12210  0.89526  0.35474  Biso   1.000  N
  C1545    1.0000 0.15270  0.88640  0.36360  Biso   1.000  C
  Ag108    1.0000 0.12134  0.43240  0.81760  Biso   1.000  Ag
  N458     1.0000 0.01720  0.45659  0.79341  Biso   1.000  N
  C1546    1.0000 0.03680  0.47440  0.77560  Biso   1.000  C
  N459     1.0000 0.07140  0.44446  0.80554  Biso   1.000  N
  C1547    1.0000 0.06930  0.46690  0.78310  Biso   1.000  C
  N460     1.0000 0.12210  0.39526  0.85474  Biso   1.000  N
  C1548    1.0000 0.15270  0.38640  0.86360  Biso   1.000  C
  Ag109    1.0000 0.93240  0.62866  0.43240  Biso   1.000  Ag
  N461     1.0000 0.95659  0.73280  0.45659  Biso   1.000  N
  C1549    1.0000 0.97440  0.71320  0.47440  Biso   1.000  C
  N462     1.0000 0.94446  0.67860  0.44446  Biso   1.000  N
  C1550    1.0000 0.96690  0.68070  0.46690  Biso   1.000  C
  N463     1.0000 0.89526  0.62790  0.39526  Biso   1.000  N
  C1551    1.0000 0.88640  0.59730  0.38640  Biso   1.000  C
  Ag110    1.0000 0.43240  0.62134  0.31760  Biso   1.000  Ag
  N464     1.0000 0.45659  0.51720  0.29341  Biso   1.000  N
  C1552    1.0000 0.47440  0.53680  0.27560  Biso   1.000  C
  N465     1.0000 0.44446  0.57140  0.30554  Biso   1.000  N
  C1553    1.0000 0.46690  0.56930  0.28310  Biso   1.000  C
  N466     1.0000 0.39526  0.62210  0.35474  Biso   1.000  N
  C1554    1.0000 0.38640  0.65270  0.36360  Biso   1.000  C
  Ag111    1.0000 0.43240  0.12134  0.81760  Biso   1.000  Ag
  N467     1.0000 0.45659  0.01720  0.79341  Biso   1.000  N
  C1555    1.0000 0.47440  0.03680  0.77560  Biso   1.000  C
  N468     1.0000 0.44446  0.07140  0.80554  Biso   1.000  N
  C1556    1.0000 0.46690  0.06930  0.78310  Biso   1.000  C
  N469     1.0000 0.39526  0.12210  0.85474  Biso   1.000  N
  C1557    1.0000 0.38640  0.15270  0.86360  Biso   1.000  C
  Ag112    1.0000 0.31760  0.12134  0.93240  Biso   1.000  Ag
  N470     1.0000 0.29341  0.01720  0.95659  Biso   1.000  N
  C1558    1.0000 0.27560  0.03680  0.97440  Biso   1.000  C
  N471     1.0000 0.30554  0.07140  0.94446  Biso   1.000  N
  C1559    1.0000 0.28310  0.06930  0.96690  Biso   1.000  C
  N472     1.0000 0.35474  0.12210  0.89526  Biso   1.000  N
  C1560    1.0000 0.36360  0.15270  0.88640  Biso   1.000  C
  Ag113    1.0000 0.81760  0.12134  0.43240  Biso   1.000  Ag
  N473     1.0000 0.79341  0.01720  0.45659  Biso   1.000  N
  C1561    1.0000 0.77560  0.03680  0.47440  Biso   1.000  C
  N474     1.0000 0.80554  0.07140  0.44446  Biso   1.000  N
  C1562    1.0000 0.78310  0.06930  0.46690  Biso   1.000  C
  N475     1.0000 0.85474  0.12210  0.39526  Biso   1.000  N
  C1563    1.0000 0.86360  0.15270  0.38640  Biso   1.000  C
  Ag114    1.0000 0.43240  0.93240  0.62866  Biso   1.000  Ag
  N476     1.0000 0.45659  0.95659  0.73280  Biso   1.000  N
  C1564    1.0000 0.47440  0.97440  0.71320  Biso   1.000  C
  N477     1.0000 0.44446  0.94446  0.67860  Biso   1.000  N
  C1565    1.0000 0.46690  0.96690  0.68070  Biso   1.000  C
  N478     1.0000 0.39526  0.89526  0.62790  Biso   1.000  N
  C1566    1.0000 0.38640  0.88640  0.59730  Biso   1.000  C
  Ag115    1.0000 0.43240  0.43240  0.12866  Biso   1.000  Ag
  N479     1.0000 0.45659  0.45659  0.23280  Biso   1.000  N
  C1567    1.0000 0.47440  0.47440  0.21320  Biso   1.000  C
  N480     1.0000 0.44446  0.44446  0.17860  Biso   1.000  N
  C1568    1.0000 0.46690  0.46690  0.18070  Biso   1.000  C
  N481     1.0000 0.39526  0.39526  0.12790  Biso   1.000  N
  C1569    1.0000 0.38640  0.38640  0.09730  Biso   1.000  C
  Ag116    1.0000 0.31760  0.43240  0.62134  Biso   1.000  Ag
  N482     1.0000 0.29341  0.45659  0.51720  Biso   1.000  N
  C1570    1.0000 0.27560  0.47440  0.53680  Biso   1.000  C
  N483     1.0000 0.30554  0.44446  0.57140  Biso   1.000  N
  C1571    1.0000 0.28310  0.46690  0.56930  Biso   1.000  C
  N484     1.0000 0.35474  0.39526  0.62210  Biso   1.000  N
  C1572    1.0000 0.36360  0.38640  0.65270  Biso   1.000  C
  Ag117    1.0000 0.81760  0.43240  0.12134  Biso   1.000  Ag
  N485     1.0000 0.79341  0.45659  0.01720  Biso   1.000  N
  C1573    1.0000 0.77560  0.47440  0.03680  Biso   1.000  C
  N486     1.0000 0.80554  0.44446  0.07140  Biso   1.000  N
  C1574    1.0000 0.78310  0.46690  0.06930  Biso   1.000  C
  N487     1.0000 0.85474  0.39526  0.12210  Biso   1.000  N
  C1575    1.0000 0.86360  0.38640  0.15270  Biso   1.000  C
  Ag118    1.0000 0.93240  0.31760  0.12134  Biso   1.000  Ag
  N488     1.0000 0.95659  0.29341  0.01720  Biso   1.000  N
  C1576    1.0000 0.97440  0.27560  0.03680  Biso   1.000  C
  N489     1.0000 0.94446  0.30554  0.07140  Biso   1.000  N
  C1577    1.0000 0.96690  0.28310  0.06930  Biso   1.000  C
  N490     1.0000 0.89526  0.35474  0.12210  Biso   1.000  N
  C1578    1.0000 0.88640  0.36360  0.15270  Biso   1.000  C
  Ag119    1.0000 0.93240  0.81760  0.62134  Biso   1.000  Ag
  N491     1.0000 0.95659  0.79341  0.51720  Biso   1.000  N
  C1579    1.0000 0.97440  0.77560  0.53680  Biso   1.000  C
  N492     1.0000 0.94446  0.80554  0.57140  Biso   1.000  N
  C1580    1.0000 0.96690  0.78310  0.56930  Biso   1.000  C
  N493     1.0000 0.89526  0.85474  0.62210  Biso   1.000  N
  C1581    1.0000 0.88640  0.86360  0.65270  Biso   1.000  C
  Ag120    1.0000 0.68240  0.37866  0.56760  Biso   1.000  Ag
  N494     1.0000 0.70659  0.48280  0.54341  Biso   1.000  N
  C1582    1.0000 0.72440  0.46320  0.52560  Biso   1.000  C
  N495     1.0000 0.69446  0.42860  0.55554  Biso   1.000  N
  C1583    1.0000 0.71690  0.43070  0.53310  Biso   1.000  C
  N496     1.0000 0.64526  0.37790  0.60474  Biso   1.000  N
  C1584    1.0000 0.63640  0.34730  0.61360  Biso   1.000  C
  Ag121    1.0000 0.18240  0.37866  0.06760  Biso   1.000  Ag
  N497     1.0000 0.20659  0.48280  0.04341  Biso   1.000  N
  C1585    1.0000 0.22440  0.46320  0.02560  Biso   1.000  C
  N498     1.0000 0.19446  0.42860  0.05554  Biso   1.000  N
  C1586    1.0000 0.21690  0.43070  0.03310  Biso   1.000  C
  N499     1.0000 0.14526  0.37790  0.10474  Biso   1.000  N
  C1587    1.0000 0.13640  0.34730  0.11360  Biso   1.000  C
  Ag122    1.0000 0.56760  0.37134  0.06760  Biso   1.000  Ag
  N500     1.0000 0.54341  0.26720  0.04341  Biso   1.000  N
  C1588    1.0000 0.52560  0.28680  0.02560  Biso   1.000  C
  N501     1.0000 0.55554  0.32140  0.05554  Biso   1.000  N
  C1589    1.0000 0.53310  0.31930  0.03310  Biso   1.000  C
  N502     1.0000 0.60474  0.37210  0.10474  Biso   1.000  N
  C1590    1.0000 0.61360  0.40270  0.11360  Biso   1.000  C
  Ag123    1.0000 0.06760  0.87866  0.68240  Biso   1.000  Ag
  N503     1.0000 0.04341  0.98280  0.70659  Biso   1.000  N
  C1591    1.0000 0.02560  0.96320  0.72440  Biso   1.000  C
  N504     1.0000 0.05554  0.92860  0.69446  Biso   1.000  N
  C1592    1.0000 0.03310  0.93070  0.71690  Biso   1.000  C
  N505     1.0000 0.10474  0.87790  0.64526  Biso   1.000  N
  C1593    1.0000 0.11360  0.84730  0.63640  Biso   1.000  C
  Ag124    1.0000 0.06760  0.37866  0.18240  Biso   1.000  Ag
  N506     1.0000 0.04341  0.48280  0.20659  Biso   1.000  N
  C1594    1.0000 0.02560  0.46320  0.22440  Biso   1.000  C
  N507     1.0000 0.05554  0.42860  0.19446  Biso   1.000  N
  C1595    1.0000 0.03310  0.43070  0.21690  Biso   1.000  C
  N508     1.0000 0.10474  0.37790  0.14526  Biso   1.000  N
  C1596    1.0000 0.11360  0.34730  0.13640  Biso   1.000  C
  Ag125    1.0000 0.87866  0.68240  0.06760  Biso   1.000  Ag
  N509     1.0000 0.98280  0.70659  0.04341  Biso   1.000  N
  C1597    1.0000 0.96320  0.72440  0.02560  Biso   1.000  C
  N510     1.0000 0.92860  0.69446  0.05554  Biso   1.000  N
  C1598    1.0000 0.93070  0.71690  0.03310  Biso   1.000  C
  N511     1.0000 0.87790  0.64526  0.10474  Biso   1.000  N
  C1599    1.0000 0.84730  0.63640  0.11360  Biso   1.000  C
  Ag126    1.0000 0.87866  0.18240  0.56760  Biso   1.000  Ag
  N512     1.0000 0.98280  0.20659  0.54341  Biso   1.000  N
  C1600    1.0000 0.96320  0.22440  0.52560  Biso   1.000  C
  N513     1.0000 0.92860  0.19446  0.55554  Biso   1.000  N
  C1601    1.0000 0.93070  0.21690  0.53310  Biso   1.000  C
  N514     1.0000 0.87790  0.14526  0.60474  Biso   1.000  N
  C1602    1.0000 0.84730  0.13640  0.61360  Biso   1.000  C
  Ag127    1.0000 0.37134  0.06760  0.56760  Biso   1.000  Ag
  N515     1.0000 0.26720  0.04341  0.54341  Biso   1.000  N
  C1603    1.0000 0.28680  0.02560  0.52560  Biso   1.000  C
  N516     1.0000 0.32140  0.05554  0.55554  Biso   1.000  N
  C1604    1.0000 0.31930  0.03310  0.53310  Biso   1.000  C
  N517     1.0000 0.37210  0.10474  0.60474  Biso   1.000  N
  C1605    1.0000 0.40270  0.11360  0.61360  Biso   1.000  C
  Ag128    1.0000 0.87134  0.06760  0.06760  Biso   1.000  Ag
  N518     1.0000 0.76720  0.04341  0.04341  Biso   1.000  N
  C1606    1.0000 0.78680  0.02560  0.02560  Biso   1.000  C
  N519     1.0000 0.82140  0.05554  0.05554  Biso   1.000  N
  C1607    1.0000 0.81930  0.03310  0.03310  Biso   1.000  C
  N520     1.0000 0.87210  0.10474  0.10474  Biso   1.000  N
  C1608    1.0000 0.90270  0.11360  0.11360  Biso   1.000  C
  Ag129    1.0000 0.37866  0.56760  0.68240  Biso   1.000  Ag
  N521     1.0000 0.48280  0.54341  0.70659  Biso   1.000  N
  C1609    1.0000 0.46320  0.52560  0.72440  Biso   1.000  C
  N522     1.0000 0.42860  0.55554  0.69446  Biso   1.000  N
  C1610    1.0000 0.43070  0.53310  0.71690  Biso   1.000  C
  N523     1.0000 0.37790  0.60474  0.64526  Biso   1.000  N
  C1611    1.0000 0.34730  0.61360  0.63640  Biso   1.000  C
  Ag130    1.0000 0.37866  0.06760  0.18240  Biso   1.000  Ag
  N524     1.0000 0.48280  0.04341  0.20659  Biso   1.000  N
  C1612    1.0000 0.46320  0.02560  0.22440  Biso   1.000  C
  N525     1.0000 0.42860  0.05554  0.19446  Biso   1.000  N
  C1613    1.0000 0.43070  0.03310  0.21690  Biso   1.000  C
  N526     1.0000 0.37790  0.10474  0.14526  Biso   1.000  N
  C1614    1.0000 0.34730  0.11360  0.13640  Biso   1.000  C
  Ag131    1.0000 0.68240  0.06760  0.87866  Biso   1.000  Ag
  N527     1.0000 0.70659  0.04341  0.98280  Biso   1.000  N
  C1615    1.0000 0.72440  0.02560  0.96320  Biso   1.000  C
  N528     1.0000 0.69446  0.05554  0.92860  Biso   1.000  N
  C1616    1.0000 0.71690  0.03310  0.93070  Biso   1.000  C
  N529     1.0000 0.64526  0.10474  0.87790  Biso   1.000  N
  C1617    1.0000 0.63640  0.11360  0.84730  Biso   1.000  C
  Ag132    1.0000 0.18240  0.06760  0.37866  Biso   1.000  Ag
  N530     1.0000 0.20659  0.04341  0.48280  Biso   1.000  N
  C1618    1.0000 0.22440  0.02560  0.46320  Biso   1.000  C
  N531     1.0000 0.19446  0.05554  0.42860  Biso   1.000  N
  C1619    1.0000 0.21690  0.03310  0.43070  Biso   1.000  C
  N532     1.0000 0.14526  0.10474  0.37790  Biso   1.000  N
  C1620    1.0000 0.13640  0.11360  0.34730  Biso   1.000  C
  Ag133    1.0000 0.56760  0.68240  0.37866  Biso   1.000  Ag
  N533     1.0000 0.54341  0.70659  0.48280  Biso   1.000  N
  C1621    1.0000 0.52560  0.72440  0.46320  Biso   1.000  C
  N534     1.0000 0.55554  0.69446  0.42860  Biso   1.000  N
  C1622    1.0000 0.53310  0.71690  0.43070  Biso   1.000  C
  N535     1.0000 0.60474  0.64526  0.37790  Biso   1.000  N
  C1623    1.0000 0.61360  0.63640  0.34730  Biso   1.000  C
  Ag134    1.0000 0.56760  0.18240  0.87866  Biso   1.000  Ag
  N536     1.0000 0.54341  0.20659  0.98280  Biso   1.000  N
  C1624    1.0000 0.52560  0.22440  0.96320  Biso   1.000  C
  N537     1.0000 0.55554  0.19446  0.92860  Biso   1.000  N
  C1625    1.0000 0.53310  0.21690  0.93070  Biso   1.000  C
  N538     1.0000 0.60474  0.14526  0.87790  Biso   1.000  N
  C1626    1.0000 0.61360  0.13640  0.84730  Biso   1.000  C
  Ag135    1.0000 0.06760  0.56760  0.37134  Biso   1.000  Ag
  N539     1.0000 0.04341  0.54341  0.26720  Biso   1.000  N
  C1627    1.0000 0.02560  0.52560  0.28680  Biso   1.000  C
  N540     1.0000 0.05554  0.55554  0.32140  Biso   1.000  N
  C1628    1.0000 0.03310  0.53310  0.31930  Biso   1.000  C
  N541     1.0000 0.10474  0.60474  0.37210  Biso   1.000  N
  C1629    1.0000 0.11360  0.61360  0.40270  Biso   1.000  C
  Ag136    1.0000 0.06760  0.06760  0.87134  Biso   1.000  Ag
  N542     1.0000 0.04341  0.04341  0.76720  Biso   1.000  N
  C1630    1.0000 0.02560  0.02560  0.78680  Biso   1.000  C
  N543     1.0000 0.05554  0.05554  0.82140  Biso   1.000  N
  C1631    1.0000 0.03310  0.03310  0.81930  Biso   1.000  C
  N544     1.0000 0.10474  0.10474  0.87210  Biso   1.000  N
  C1632    1.0000 0.11360  0.11360  0.90270  Biso   1.000  C
