data_image0
_cell_length_a       22.4562
_cell_length_b       22.4562
_cell_length_c       72.1481
_cell_angle_alpha    90
_cell_angle_beta     90
_cell_angle_gamma    120

_symmetry_space_group_name_H-M    "P 1"
_symmetry_int_tables_number       1

loop_
  _symmetry_equiv_pos_as_xyz
  'x, y, z'

loop_
  _atom_site_label
  _atom_site_occupancy
  _atom_site_fract_x
  _atom_site_fract_y
  _atom_site_fract_z
  _atom_site_thermal_displace_type
  _atom_site_B_iso_or_equiv
  _atom_site_type_symbol
  Ag1      1.0000 0.36355  0.18762  0.98171  Biso   1.000  Ag
  O1       1.0000 0.59043  0.29874  0.90561  Biso   1.000  O
  C1       1.0000 0.54360  0.23740  0.90761  Biso   1.000  C
  O2       1.0000 0.74545  0.36618  0.87498  Biso   1.000  O
  C2       1.0000 0.81630  0.34590  0.89580  Biso   1.000  C
  H1       1.0000 0.86170  0.35610  0.89880  Biso   1.000  H
  C3       1.0000 0.80320  0.37110  0.87933  Biso   1.000  C
  C4       1.0000 0.50110  0.21990  0.92541  Biso   1.000  C
  C5       1.0000 0.52680  0.26530  0.93955  Biso   1.000  C
  H2       1.0000 0.73760  0.43070  0.93830  Biso   1.000  H
  C6       1.0000 0.48910  0.24930  0.95617  Biso   1.000  C
  H3       1.0000 0.76240  0.48920  0.96730  Biso   1.000  H
  N1       1.0000 0.42190  0.19970  0.95645  Biso   1.000  N
  C7       1.0000 0.75510  0.59850  0.94372  Biso   1.000  C
  H4       1.0000 0.75580  0.64080  0.94550  Biso   1.000  H
  C8       1.0000 0.72900  0.56380  0.92703  Biso   1.000  C
  H5       1.0000 0.71870  0.58480  0.91710  Biso   1.000  H
  C9       1.0000 0.55010  0.14270  0.86505  Biso   1.000  C
  C10      1.0000 0.50170  0.07330  0.86869  Biso   1.000  C
  H6       1.0000 0.48070  0.05920  0.88060  Biso   1.000  H
  C11      1.0000 0.48590  0.02710  0.85459  Biso   1.000  C
  H7       1.0000 0.45600  0.97990  0.85740  Biso   1.000  H
  N2       1.0000 0.50900  0.04260  0.83712  Biso   1.000  N
  C12      1.0000 0.55350  0.10670  0.83383  Biso   1.000  C
  H8       1.0000 0.57430  0.11920  0.82200  Biso   1.000  H
  C13      1.0000 0.57190  0.15790  0.84720  Biso   1.000  C
  H9       1.0000 0.60030  0.20470  0.84380  Biso   1.000  H
  Ag2      1.0000 0.03022  0.52095  0.31504  Biso   1.000  Ag
  O3       1.0000 0.25710  0.63207  0.23894  Biso   1.000  O
  C14      1.0000 0.21027  0.57073  0.24094  Biso   1.000  C
  O4       1.0000 0.41212  0.69951  0.20831  Biso   1.000  O
  C15      1.0000 0.48297  0.67923  0.22913  Biso   1.000  C
  H10      1.0000 0.52837  0.68943  0.23213  Biso   1.000  H
  C16      1.0000 0.46987  0.70443  0.21266  Biso   1.000  C
  C17      1.0000 0.16777  0.55323  0.25874  Biso   1.000  C
  C18      1.0000 0.19347  0.59863  0.27288  Biso   1.000  C
  H11      1.0000 0.40427  0.76403  0.27163  Biso   1.000  H
  C19      1.0000 0.15577  0.58263  0.28950  Biso   1.000  C
  H12      1.0000 0.42907  0.82253  0.30063  Biso   1.000  H
  N3       1.0000 0.08857  0.53303  0.28978  Biso   1.000  N
  C20      1.0000 0.42177  0.93183  0.27705  Biso   1.000  C
  H13      1.0000 0.42247  0.97413  0.27883  Biso   1.000  H
  C21      1.0000 0.39567  0.89713  0.26036  Biso   1.000  C
  H14      1.0000 0.38537  0.91813  0.25043  Biso   1.000  H
  C22      1.0000 0.21677  0.47603  0.19838  Biso   1.000  C
  C23      1.0000 0.16837  0.40663  0.20202  Biso   1.000  C
  H15      1.0000 0.14737  0.39253  0.21393  Biso   1.000  H
  C24      1.0000 0.15257  0.36043  0.18792  Biso   1.000  C
  H16      1.0000 0.12267  0.31323  0.19073  Biso   1.000  H
  N4       1.0000 0.17567  0.37593  0.17045  Biso   1.000  N
  C25      1.0000 0.22017  0.44003  0.16716  Biso   1.000  C
  H17      1.0000 0.24097  0.45253  0.15533  Biso   1.000  H
  C26      1.0000 0.23857  0.49123  0.18053  Biso   1.000  C
  H18      1.0000 0.26697  0.53803  0.17713  Biso   1.000  H
  Ag3      1.0000 0.69688  0.85429  0.64838  Biso   1.000  Ag
  O5       1.0000 0.92376  0.96541  0.57228  Biso   1.000  O
  C27      1.0000 0.87693  0.90407  0.57428  Biso   1.000  C
  O6       1.0000 0.07878  0.03285  0.54165  Biso   1.000  O
  C28      1.0000 0.14963  0.01257  0.56247  Biso   1.000  C
  H19      1.0000 0.19503  0.02277  0.56547  Biso   1.000  H
  C29      1.0000 0.13653  0.03777  0.54600  Biso   1.000  C
  C30      1.0000 0.83443  0.88657  0.59208  Biso   1.000  C
  C31      1.0000 0.86013  0.93197  0.60622  Biso   1.000  C
  H20      1.0000 0.07093  0.09737  0.60497  Biso   1.000  H
  C32      1.0000 0.82243  0.91597  0.62284  Biso   1.000  C
  H21      1.0000 0.09573  0.15587  0.63397  Biso   1.000  H
  N5       1.0000 0.75523  0.86637  0.62312  Biso   1.000  N
  C33      1.0000 0.08843  0.26517  0.61039  Biso   1.000  C
  H22      1.0000 0.08913  0.30747  0.61217  Biso   1.000  H
  C34      1.0000 0.06233  0.23047  0.59370  Biso   1.000  C
  H23      1.0000 0.05203  0.25147  0.58377  Biso   1.000  H
  C35      1.0000 0.88343  0.80937  0.53172  Biso   1.000  C
  C36      1.0000 0.83503  0.73997  0.53536  Biso   1.000  C
  H24      1.0000 0.81403  0.72587  0.54727  Biso   1.000  H
  C37      1.0000 0.81923  0.69377  0.52126  Biso   1.000  C
  H25      1.0000 0.78933  0.64657  0.52407  Biso   1.000  H
  N6       1.0000 0.84233  0.70927  0.50379  Biso   1.000  N
  C38      1.0000 0.88683  0.77337  0.50050  Biso   1.000  C
  H26      1.0000 0.90763  0.78587  0.48867  Biso   1.000  H
  C39      1.0000 0.90523  0.82457  0.51387  Biso   1.000  C
  H27      1.0000 0.93363  0.87137  0.51047  Biso   1.000  H
  Ag4      1.0000 0.81238  0.17593  0.98171  Biso   1.000  Ag
  O7       1.0000 0.70126  0.29169  0.90561  Biso   1.000  O
  C40      1.0000 0.76260  0.30620  0.90761  Biso   1.000  C
  O8       1.0000 0.63382  0.37927  0.87498  Biso   1.000  O
  C41      1.0000 0.65410  0.47040  0.89580  Biso   1.000  C
  H28      1.0000 0.64390  0.50560  0.89880  Biso   1.000  H
  C42      1.0000 0.62890  0.43210  0.87933  Biso   1.000  C
  C43      1.0000 0.78010  0.28120  0.92541  Biso   1.000  C
  C44      1.0000 0.73470  0.26150  0.93955  Biso   1.000  C
  H29      1.0000 0.56930  0.30690  0.93830  Biso   1.000  H
  C45      1.0000 0.75070  0.23980  0.95617  Biso   1.000  C
  H30      1.0000 0.51080  0.27320  0.96730  Biso   1.000  H
  N7       1.0000 0.80030  0.22220  0.95645  Biso   1.000  N
  C46      1.0000 0.40150  0.15660  0.94372  Biso   1.000  C
  H31      1.0000 0.35920  0.11500  0.94550  Biso   1.000  H
  C47      1.0000 0.43620  0.16520  0.92703  Biso   1.000  C
  H32      1.0000 0.41520  0.13390  0.91710  Biso   1.000  H
  C48      1.0000 0.85730  0.40740  0.86505  Biso   1.000  C
  C49      1.0000 0.92670  0.42840  0.86869  Biso   1.000  C
  H33      1.0000 0.94080  0.42150  0.88060  Biso   1.000  H
  C50      1.0000 0.97290  0.45880  0.85459  Biso   1.000  C
  H34      1.0000 0.02010  0.47610  0.85740  Biso   1.000  H
  N8       1.0000 0.95740  0.46640  0.83712  Biso   1.000  N
  C51      1.0000 0.89330  0.44680  0.83383  Biso   1.000  C
  H35      1.0000 0.88080  0.45510  0.82200  Biso   1.000  H
  C52      1.0000 0.84210  0.41400  0.84720  Biso   1.000  C
  H36      1.0000 0.79530  0.39560  0.84380  Biso   1.000  H
  Ag5      1.0000 0.47905  0.50926  0.31504  Biso   1.000  Ag
  O9       1.0000 0.36793  0.62502  0.23894  Biso   1.000  O
  C53      1.0000 0.42927  0.63953  0.24094  Biso   1.000  C
  O10      1.0000 0.30049  0.71260  0.20831  Biso   1.000  O
  C54      1.0000 0.32077  0.80373  0.22913  Biso   1.000  C
  H37      1.0000 0.31057  0.83893  0.23213  Biso   1.000  H
  C55      1.0000 0.29557  0.76543  0.21266  Biso   1.000  C
  C56      1.0000 0.44677  0.61453  0.25874  Biso   1.000  C
  C57      1.0000 0.40137  0.59483  0.27288  Biso   1.000  C
  H38      1.0000 0.23597  0.64023  0.27163  Biso   1.000  H
  C58      1.0000 0.41737  0.57313  0.28950  Biso   1.000  C
  H39      1.0000 0.17747  0.60653  0.30063  Biso   1.000  H
  N9       1.0000 0.46697  0.55553  0.28978  Biso   1.000  N
  C59      1.0000 0.06817  0.48993  0.27705  Biso   1.000  C
  H40      1.0000 0.02587  0.44833  0.27883  Biso   1.000  H
  C60      1.0000 0.10287  0.49853  0.26036  Biso   1.000  C
  H41      1.0000 0.08187  0.46723  0.25043  Biso   1.000  H
  C61      1.0000 0.52397  0.74073  0.19838  Biso   1.000  C
  C62      1.0000 0.59337  0.76173  0.20202  Biso   1.000  C
  H42      1.0000 0.60747  0.75483  0.21393  Biso   1.000  H
  C63      1.0000 0.63957  0.79213  0.18792  Biso   1.000  C
  H43      1.0000 0.68677  0.80943  0.19073  Biso   1.000  H
  N10      1.0000 0.62407  0.79973  0.17045  Biso   1.000  N
  C64      1.0000 0.55997  0.78013  0.16716  Biso   1.000  C
  H44      1.0000 0.54747  0.78843  0.15533  Biso   1.000  H
  C65      1.0000 0.50877  0.74733  0.18053  Biso   1.000  C
  H45      1.0000 0.46197  0.72893  0.17713  Biso   1.000  H
  Ag6      1.0000 0.14571  0.84260  0.64838  Biso   1.000  Ag
  O11      1.0000 0.03459  0.95836  0.57228  Biso   1.000  O
  C66      1.0000 0.09593  0.97287  0.57428  Biso   1.000  C
  O12      1.0000 0.96715  0.04594  0.54165  Biso   1.000  O
  C67      1.0000 0.98743  0.13707  0.56247  Biso   1.000  C
  H46      1.0000 0.97723  0.17227  0.56547  Biso   1.000  H
  C68      1.0000 0.96223  0.09877  0.54600  Biso   1.000  C
  C69      1.0000 0.11343  0.94787  0.59208  Biso   1.000  C
  C70      1.0000 0.06803  0.92817  0.60622  Biso   1.000  C
  H47      1.0000 0.90263  0.97357  0.60497  Biso   1.000  H
  C71      1.0000 0.08403  0.90647  0.62284  Biso   1.000  C
  H48      1.0000 0.84413  0.93987  0.63397  Biso   1.000  H
  N11      1.0000 0.13363  0.88887  0.62312  Biso   1.000  N
  C72      1.0000 0.73483  0.82327  0.61039  Biso   1.000  C
  H49      1.0000 0.69253  0.78167  0.61217  Biso   1.000  H
  C73      1.0000 0.76953  0.83187  0.59370  Biso   1.000  C
  H50      1.0000 0.74853  0.80057  0.58377  Biso   1.000  H
  C74      1.0000 0.19063  0.07407  0.53172  Biso   1.000  C
  C75      1.0000 0.26003  0.09507  0.53536  Biso   1.000  C
  H51      1.0000 0.27413  0.08817  0.54727  Biso   1.000  H
  C76      1.0000 0.30623  0.12547  0.52126  Biso   1.000  C
  H52      1.0000 0.35343  0.14277  0.52407  Biso   1.000  H
  N12      1.0000 0.29073  0.13307  0.50379  Biso   1.000  N
  C77      1.0000 0.22663  0.11347  0.50050  Biso   1.000  C
  H53      1.0000 0.21413  0.12177  0.48867  Biso   1.000  H
  C78      1.0000 0.17543  0.08067  0.51387  Biso   1.000  C
  H54      1.0000 0.12863  0.06227  0.51047  Biso   1.000  H
  Ag7      1.0000 0.82407  0.63645  0.98171  Biso   1.000  Ag
  O13      1.0000 0.70831  0.40957  0.90561  Biso   1.000  O
  C79      1.0000 0.69380  0.45640  0.90761  Biso   1.000  C
  O14      1.0000 0.62073  0.25455  0.87498  Biso   1.000  O
  C80      1.0000 0.52960  0.18370  0.89580  Biso   1.000  C
  H55      1.0000 0.49440  0.13830  0.89880  Biso   1.000  H
  C81      1.0000 0.56790  0.19680  0.87933  Biso   1.000  C
  C82      1.0000 0.71880  0.49890  0.92541  Biso   1.000  C
  C83      1.0000 0.73850  0.47320  0.93955  Biso   1.000  C
  H56      1.0000 0.69310  0.26240  0.93830  Biso   1.000  H
  C84      1.0000 0.76020  0.51090  0.95617  Biso   1.000  C
  H57      1.0000 0.72680  0.23760  0.96730  Biso   1.000  H
  N13      1.0000 0.77780  0.57810  0.95645  Biso   1.000  N
  C85      1.0000 0.84340  0.24490  0.94372  Biso   1.000  C
  H58      1.0000 0.88500  0.24420  0.94550  Biso   1.000  H
  C86      1.0000 0.83480  0.27100  0.92703  Biso   1.000  C
  H59      1.0000 0.86610  0.28130  0.91710  Biso   1.000  H
  C87      1.0000 0.59260  0.44990  0.86505  Biso   1.000  C
  C88      1.0000 0.57160  0.49830  0.86869  Biso   1.000  C
  H60      1.0000 0.57850  0.51930  0.88060  Biso   1.000  H
  C89      1.0000 0.54120  0.51410  0.85459  Biso   1.000  C
  H61      1.0000 0.52390  0.54400  0.85740  Biso   1.000  H
  N14      1.0000 0.53360  0.49100  0.83712  Biso   1.000  N
  C90      1.0000 0.55320  0.44650  0.83383  Biso   1.000  C
  H62      1.0000 0.54490  0.42570  0.82200  Biso   1.000  H
  C91      1.0000 0.58600  0.42810  0.84720  Biso   1.000  C
  H63      1.0000 0.60440  0.39970  0.84380  Biso   1.000  H
  Ag8      1.0000 0.49074  0.96978  0.31504  Biso   1.000  Ag
  O15      1.0000 0.37498  0.74290  0.23894  Biso   1.000  O
  C92      1.0000 0.36047  0.78973  0.24094  Biso   1.000  C
  O16      1.0000 0.28740  0.58788  0.20831  Biso   1.000  O
  C93      1.0000 0.19627  0.51703  0.22913  Biso   1.000  C
  H64      1.0000 0.16107  0.47163  0.23213  Biso   1.000  H
  C94      1.0000 0.23457  0.53013  0.21266  Biso   1.000  C
  C95      1.0000 0.38547  0.83223  0.25874  Biso   1.000  C
  C96      1.0000 0.40517  0.80653  0.27288  Biso   1.000  C
  H65      1.0000 0.35977  0.59573  0.27163  Biso   1.000  H
  C97      1.0000 0.42687  0.84423  0.28950  Biso   1.000  C
  H66      1.0000 0.39347  0.57093  0.30063  Biso   1.000  H
  N15      1.0000 0.44447  0.91143  0.28978  Biso   1.000  N
  C98      1.0000 0.51007  0.57823  0.27705  Biso   1.000  C
  H67      1.0000 0.55167  0.57753  0.27883  Biso   1.000  H
  C99      1.0000 0.50147  0.60433  0.26036  Biso   1.000  C
  H68      1.0000 0.53277  0.61463  0.25043  Biso   1.000  H
  C100     1.0000 0.25927  0.78323  0.19838  Biso   1.000  C
  C101     1.0000 0.23827  0.83163  0.20202  Biso   1.000  C
  H69      1.0000 0.24517  0.85263  0.21393  Biso   1.000  H
  C102     1.0000 0.20787  0.84743  0.18792  Biso   1.000  C
  H70      1.0000 0.19057  0.87733  0.19073  Biso   1.000  H
  N16      1.0000 0.20027  0.82433  0.17045  Biso   1.000  N
  C103     1.0000 0.21987  0.77983  0.16716  Biso   1.000  C
  H71      1.0000 0.21157  0.75903  0.15533  Biso   1.000  H
  C104     1.0000 0.25267  0.76143  0.18053  Biso   1.000  C
  H72      1.0000 0.27107  0.73303  0.17713  Biso   1.000  H
  Ag9      1.0000 0.15740  0.30312  0.64838  Biso   1.000  Ag
  O17      1.0000 0.04164  0.07624  0.57228  Biso   1.000  O
  C105     1.0000 0.02713  0.12307  0.57428  Biso   1.000  C
  O18      1.0000 0.95406  0.92122  0.54165  Biso   1.000  O
  C106     1.0000 0.86293  0.85037  0.56247  Biso   1.000  C
  H73      1.0000 0.82773  0.80497  0.56547  Biso   1.000  H
  C107     1.0000 0.90123  0.86347  0.54600  Biso   1.000  C
  C108     1.0000 0.05213  0.16557  0.59208  Biso   1.000  C
  C109     1.0000 0.07183  0.13987  0.60622  Biso   1.000  C
  H74      1.0000 0.02643  0.92907  0.60497  Biso   1.000  H
  C110     1.0000 0.09353  0.17757  0.62284  Biso   1.000  C
  H75      1.0000 0.06013  0.90427  0.63397  Biso   1.000  H
  N17      1.0000 0.11113  0.24477  0.62312  Biso   1.000  N
  C111     1.0000 0.17673  0.91157  0.61039  Biso   1.000  C
  H76      1.0000 0.21833  0.91087  0.61217  Biso   1.000  H
  C112     1.0000 0.16813  0.93767  0.59370  Biso   1.000  C
  H77      1.0000 0.19943  0.94797  0.58377  Biso   1.000  H
  C113     1.0000 0.92593  0.11657  0.53172  Biso   1.000  C
  C114     1.0000 0.90493  0.16497  0.53536  Biso   1.000  C
  H78      1.0000 0.91183  0.18597  0.54727  Biso   1.000  H
  C115     1.0000 0.87453  0.18077  0.52126  Biso   1.000  C
  H79      1.0000 0.85723  0.21067  0.52407  Biso   1.000  H
  N18      1.0000 0.86693  0.15767  0.50379  Biso   1.000  N
  C116     1.0000 0.88653  0.11317  0.50050  Biso   1.000  C
  H80      1.0000 0.87823  0.09237  0.48867  Biso   1.000  H
  C117     1.0000 0.91933  0.09477  0.51387  Biso   1.000  C
  H81      1.0000 0.93773  0.06637  0.51047  Biso   1.000  H
  Ag10     1.0000 0.81238  0.63645  0.48171  Biso   1.000  Ag
  O19      1.0000 0.70126  0.40957  0.40561  Biso   1.000  O
  C118     1.0000 0.76260  0.45640  0.40761  Biso   1.000  C
  O20      1.0000 0.63382  0.25455  0.37498  Biso   1.000  O
  C119     1.0000 0.65410  0.18370  0.39580  Biso   1.000  C
  H82      1.0000 0.64390  0.13830  0.39880  Biso   1.000  H
  C120     1.0000 0.62890  0.19680  0.37933  Biso   1.000  C
  C121     1.0000 0.78010  0.49890  0.42541  Biso   1.000  C
  C122     1.0000 0.73470  0.47320  0.43955  Biso   1.000  C
  H83      1.0000 0.56930  0.26240  0.43830  Biso   1.000  H
  C123     1.0000 0.75070  0.51090  0.45617  Biso   1.000  C
  H84      1.0000 0.51080  0.23760  0.46730  Biso   1.000  H
  N19      1.0000 0.80030  0.57810  0.45645  Biso   1.000  N
  C124     1.0000 0.40150  0.24490  0.44372  Biso   1.000  C
  H85      1.0000 0.35920  0.24420  0.44550  Biso   1.000  H
  C125     1.0000 0.43620  0.27100  0.42703  Biso   1.000  C
  H86      1.0000 0.41520  0.28130  0.41710  Biso   1.000  H
  C126     1.0000 0.85730  0.44990  0.36505  Biso   1.000  C
  C127     1.0000 0.92670  0.49830  0.36869  Biso   1.000  C
  H87      1.0000 0.94080  0.51930  0.38060  Biso   1.000  H
  C128     1.0000 0.97290  0.51410  0.35459  Biso   1.000  C
  H88      1.0000 0.02010  0.54400  0.35740  Biso   1.000  H
  N20      1.0000 0.95740  0.49100  0.33712  Biso   1.000  N
  C129     1.0000 0.89330  0.44650  0.33383  Biso   1.000  C
  H89      1.0000 0.88080  0.42570  0.32200  Biso   1.000  H
  C130     1.0000 0.84210  0.42810  0.34720  Biso   1.000  C
  H90      1.0000 0.79530  0.39970  0.34380  Biso   1.000  H
  Ag11     1.0000 0.47905  0.96978  0.81504  Biso   1.000  Ag
  O21      1.0000 0.36793  0.74290  0.73894  Biso   1.000  O
  C131     1.0000 0.42927  0.78973  0.74094  Biso   1.000  C
  O22      1.0000 0.30049  0.58788  0.70831  Biso   1.000  O
  C132     1.0000 0.32077  0.51703  0.72913  Biso   1.000  C
  H91      1.0000 0.31057  0.47163  0.73213  Biso   1.000  H
  C133     1.0000 0.29557  0.53013  0.71266  Biso   1.000  C
  C134     1.0000 0.44677  0.83223  0.75874  Biso   1.000  C
  C135     1.0000 0.40137  0.80653  0.77288  Biso   1.000  C
  H92      1.0000 0.23597  0.59573  0.77163  Biso   1.000  H
  C136     1.0000 0.41737  0.84423  0.78950  Biso   1.000  C
  H93      1.0000 0.17747  0.57093  0.80063  Biso   1.000  H
  N21      1.0000 0.46697  0.91143  0.78978  Biso   1.000  N
  C137     1.0000 0.06817  0.57823  0.77705  Biso   1.000  C
  H94      1.0000 0.02587  0.57753  0.77883  Biso   1.000  H
  C138     1.0000 0.10287  0.60433  0.76036  Biso   1.000  C
  H95      1.0000 0.08187  0.61463  0.75043  Biso   1.000  H
  C139     1.0000 0.52397  0.78323  0.69838  Biso   1.000  C
  C140     1.0000 0.59337  0.83163  0.70202  Biso   1.000  C
  H96      1.0000 0.60747  0.85263  0.71393  Biso   1.000  H
  C141     1.0000 0.63957  0.84743  0.68792  Biso   1.000  C
  H97      1.0000 0.68677  0.87733  0.69073  Biso   1.000  H
  N22      1.0000 0.62407  0.82433  0.67045  Biso   1.000  N
  C142     1.0000 0.55997  0.77983  0.66716  Biso   1.000  C
  H98      1.0000 0.54747  0.75903  0.65533  Biso   1.000  H
  C143     1.0000 0.50877  0.76143  0.68053  Biso   1.000  C
  H99      1.0000 0.46197  0.73303  0.67713  Biso   1.000  H
  Ag12     1.0000 0.14571  0.30312  0.14838  Biso   1.000  Ag
  O23      1.0000 0.03459  0.07624  0.07228  Biso   1.000  O
  C144     1.0000 0.09593  0.12307  0.07428  Biso   1.000  C
  O24      1.0000 0.96715  0.92122  0.04165  Biso   1.000  O
  C145     1.0000 0.98743  0.85037  0.06247  Biso   1.000  C
  H100     1.0000 0.97723  0.80497  0.06547  Biso   1.000  H
  C146     1.0000 0.96223  0.86347  0.04600  Biso   1.000  C
  C147     1.0000 0.11343  0.16557  0.09208  Biso   1.000  C
  C148     1.0000 0.06803  0.13987  0.10622  Biso   1.000  C
  H101     1.0000 0.90263  0.92907  0.10497  Biso   1.000  H
  C149     1.0000 0.08403  0.17757  0.12284  Biso   1.000  C
  H102     1.0000 0.84413  0.90427  0.13397  Biso   1.000  H
  N23      1.0000 0.13363  0.24477  0.12312  Biso   1.000  N
  C150     1.0000 0.73483  0.91157  0.11039  Biso   1.000  C
  H103     1.0000 0.69253  0.91087  0.11217  Biso   1.000  H
  C151     1.0000 0.76953  0.93767  0.09370  Biso   1.000  C
  H104     1.0000 0.74853  0.94797  0.08377  Biso   1.000  H
  C152     1.0000 0.19063  0.11657  0.03172  Biso   1.000  C
  C153     1.0000 0.26003  0.16497  0.03536  Biso   1.000  C
  H105     1.0000 0.27413  0.18597  0.04727  Biso   1.000  H
  C154     1.0000 0.30623  0.18077  0.02126  Biso   1.000  C
  H106     1.0000 0.35343  0.21067  0.02407  Biso   1.000  H
  N24      1.0000 0.29073  0.15767  0.00379  Biso   1.000  N
  C155     1.0000 0.22663  0.11317  0.00050  Biso   1.000  C
  H107     1.0000 0.21413  0.09237  0.98867  Biso   1.000  H
  C156     1.0000 0.17543  0.09477  0.01387  Biso   1.000  C
  H108     1.0000 0.12863  0.06637  0.01047  Biso   1.000  H
  Ag13     1.0000 0.82407  0.18762  0.48171  Biso   1.000  Ag
  O25      1.0000 0.70831  0.29874  0.40561  Biso   1.000  O
  C157     1.0000 0.69380  0.23740  0.40761  Biso   1.000  C
  O26      1.0000 0.62073  0.36618  0.37498  Biso   1.000  O
  C158     1.0000 0.52960  0.34590  0.39580  Biso   1.000  C
  H109     1.0000 0.49440  0.35610  0.39880  Biso   1.000  H
  C159     1.0000 0.56790  0.37110  0.37933  Biso   1.000  C
  C160     1.0000 0.71880  0.21990  0.42541  Biso   1.000  C
  C161     1.0000 0.73850  0.26530  0.43955  Biso   1.000  C
  H110     1.0000 0.69310  0.43070  0.43830  Biso   1.000  H
  C162     1.0000 0.76020  0.24930  0.45617  Biso   1.000  C
  H111     1.0000 0.72680  0.48920  0.46730  Biso   1.000  H
  N25      1.0000 0.77780  0.19970  0.45645  Biso   1.000  N
  C163     1.0000 0.84340  0.59850  0.44372  Biso   1.000  C
  H112     1.0000 0.88500  0.64080  0.44550  Biso   1.000  H
  C164     1.0000 0.83480  0.56380  0.42703  Biso   1.000  C
  H113     1.0000 0.86610  0.58480  0.41710  Biso   1.000  H
  C165     1.0000 0.59260  0.14270  0.36505  Biso   1.000  C
  C166     1.0000 0.57160  0.07330  0.36869  Biso   1.000  C
  H114     1.0000 0.57850  0.05920  0.38060  Biso   1.000  H
  C167     1.0000 0.54120  0.02710  0.35459  Biso   1.000  C
  H115     1.0000 0.52390  0.97990  0.35740  Biso   1.000  H
  N26      1.0000 0.53360  0.04260  0.33712  Biso   1.000  N
  C168     1.0000 0.55320  0.10670  0.33383  Biso   1.000  C
  H116     1.0000 0.54490  0.11920  0.32200  Biso   1.000  H
  C169     1.0000 0.58600  0.15790  0.34720  Biso   1.000  C
  H117     1.0000 0.60440  0.20470  0.34380  Biso   1.000  H
  Ag14     1.0000 0.49074  0.52095  0.81504  Biso   1.000  Ag
  O27      1.0000 0.37498  0.63207  0.73894  Biso   1.000  O
  C170     1.0000 0.36047  0.57073  0.74094  Biso   1.000  C
  O28      1.0000 0.28740  0.69951  0.70831  Biso   1.000  O
  C171     1.0000 0.19627  0.67923  0.72913  Biso   1.000  C
  H118     1.0000 0.16107  0.68943  0.73213  Biso   1.000  H
  C172     1.0000 0.23457  0.70443  0.71266  Biso   1.000  C
  C173     1.0000 0.38547  0.55323  0.75874  Biso   1.000  C
  C174     1.0000 0.40517  0.59863  0.77288  Biso   1.000  C
  H119     1.0000 0.35977  0.76403  0.77163  Biso   1.000  H
  C175     1.0000 0.42687  0.58263  0.78950  Biso   1.000  C
  H120     1.0000 0.39347  0.82253  0.80063  Biso   1.000  H
  N27      1.0000 0.44447  0.53303  0.78978  Biso   1.000  N
  C176     1.0000 0.51007  0.93183  0.77705  Biso   1.000  C
  H121     1.0000 0.55167  0.97413  0.77883  Biso   1.000  H
  C177     1.0000 0.50147  0.89713  0.76036  Biso   1.000  C
  H122     1.0000 0.53277  0.91813  0.75043  Biso   1.000  H
  C178     1.0000 0.25927  0.47603  0.69838  Biso   1.000  C
  C179     1.0000 0.23827  0.40663  0.70202  Biso   1.000  C
  H123     1.0000 0.24517  0.39253  0.71393  Biso   1.000  H
  C180     1.0000 0.20787  0.36043  0.68792  Biso   1.000  C
  H124     1.0000 0.19057  0.31323  0.69073  Biso   1.000  H
  N28      1.0000 0.20027  0.37593  0.67045  Biso   1.000  N
  C181     1.0000 0.21987  0.44003  0.66716  Biso   1.000  C
  H125     1.0000 0.21157  0.45253  0.65533  Biso   1.000  H
  C182     1.0000 0.25267  0.49123  0.68053  Biso   1.000  C
  H126     1.0000 0.27107  0.53803  0.67713  Biso   1.000  H
  Ag15     1.0000 0.15740  0.85429  0.14838  Biso   1.000  Ag
  O29      1.0000 0.04164  0.96541  0.07228  Biso   1.000  O
  C183     1.0000 0.02713  0.90407  0.07428  Biso   1.000  C
  O30      1.0000 0.95406  0.03285  0.04165  Biso   1.000  O
  C184     1.0000 0.86293  0.01257  0.06247  Biso   1.000  C
  H127     1.0000 0.82773  0.02277  0.06547  Biso   1.000  H
  C185     1.0000 0.90123  0.03777  0.04600  Biso   1.000  C
  C186     1.0000 0.05213  0.88657  0.09208  Biso   1.000  C
  C187     1.0000 0.07183  0.93197  0.10622  Biso   1.000  C
  H128     1.0000 0.02643  0.09737  0.10497  Biso   1.000  H
  C188     1.0000 0.09353  0.91597  0.12284  Biso   1.000  C
  H129     1.0000 0.06013  0.15587  0.13397  Biso   1.000  H
  N29      1.0000 0.11113  0.86637  0.12312  Biso   1.000  N
  C189     1.0000 0.17673  0.26517  0.11039  Biso   1.000  C
  H130     1.0000 0.21833  0.30747  0.11217  Biso   1.000  H
  C190     1.0000 0.16813  0.23047  0.09370  Biso   1.000  C
  H131     1.0000 0.19943  0.25147  0.08377  Biso   1.000  H
  C191     1.0000 0.92593  0.80937  0.03172  Biso   1.000  C
  C192     1.0000 0.90493  0.73997  0.03536  Biso   1.000  C
  H132     1.0000 0.91183  0.72587  0.04727  Biso   1.000  H
  C193     1.0000 0.87453  0.69377  0.02126  Biso   1.000  C
  H133     1.0000 0.85723  0.64657  0.02407  Biso   1.000  H
  N30      1.0000 0.86693  0.70927  0.00379  Biso   1.000  N
  C194     1.0000 0.88653  0.77337  0.00050  Biso   1.000  C
  H134     1.0000 0.87823  0.78587  0.98867  Biso   1.000  H
  C195     1.0000 0.91933  0.82457  0.01387  Biso   1.000  C
  H135     1.0000 0.93773  0.87137  0.01047  Biso   1.000  H
  Ag16     1.0000 0.36355  0.17593  0.48171  Biso   1.000  Ag
  O31      1.0000 0.59043  0.29169  0.40561  Biso   1.000  O
  C196     1.0000 0.54360  0.30620  0.40761  Biso   1.000  C
  O32      1.0000 0.74545  0.37927  0.37498  Biso   1.000  O
  C197     1.0000 0.81630  0.47040  0.39580  Biso   1.000  C
  H136     1.0000 0.86170  0.50560  0.39880  Biso   1.000  H
  C198     1.0000 0.80320  0.43210  0.37933  Biso   1.000  C
  C199     1.0000 0.50110  0.28120  0.42541  Biso   1.000  C
  C200     1.0000 0.52680  0.26150  0.43955  Biso   1.000  C
  H137     1.0000 0.73760  0.30690  0.43830  Biso   1.000  H
  C201     1.0000 0.48910  0.23980  0.45617  Biso   1.000  C
  H138     1.0000 0.76240  0.27320  0.46730  Biso   1.000  H
  N31      1.0000 0.42190  0.22220  0.45645  Biso   1.000  N
  C202     1.0000 0.75510  0.15660  0.44372  Biso   1.000  C
  H139     1.0000 0.75580  0.11500  0.44550  Biso   1.000  H
  C203     1.0000 0.72900  0.16520  0.42703  Biso   1.000  C
  H140     1.0000 0.71870  0.13390  0.41710  Biso   1.000  H
  C204     1.0000 0.55010  0.40740  0.36505  Biso   1.000  C
  C205     1.0000 0.50170  0.42840  0.36869  Biso   1.000  C
  H141     1.0000 0.48070  0.42150  0.38060  Biso   1.000  H
  C206     1.0000 0.48590  0.45880  0.35459  Biso   1.000  C
  H142     1.0000 0.45600  0.47610  0.35740  Biso   1.000  H
  N32      1.0000 0.50900  0.46640  0.33712  Biso   1.000  N
  C207     1.0000 0.55350  0.44680  0.33383  Biso   1.000  C
  H143     1.0000 0.57430  0.45510  0.32200  Biso   1.000  H
  C208     1.0000 0.57190  0.41400  0.34720  Biso   1.000  C
  H144     1.0000 0.60030  0.39560  0.34380  Biso   1.000  H
  Ag17     1.0000 0.03022  0.50926  0.81504  Biso   1.000  Ag
  O33      1.0000 0.25710  0.62502  0.73894  Biso   1.000  O
  C209     1.0000 0.21027  0.63953  0.74094  Biso   1.000  C
  O34      1.0000 0.41212  0.71260  0.70831  Biso   1.000  O
  C210     1.0000 0.48297  0.80373  0.72913  Biso   1.000  C
  H145     1.0000 0.52837  0.83893  0.73213  Biso   1.000  H
  C211     1.0000 0.46987  0.76543  0.71266  Biso   1.000  C
  C212     1.0000 0.16777  0.61453  0.75874  Biso   1.000  C
  C213     1.0000 0.19347  0.59483  0.77288  Biso   1.000  C
  H146     1.0000 0.40427  0.64023  0.77163  Biso   1.000  H
  C214     1.0000 0.15577  0.57313  0.78950  Biso   1.000  C
  H147     1.0000 0.42907  0.60653  0.80063  Biso   1.000  H
  N33      1.0000 0.08857  0.55553  0.78978  Biso   1.000  N
  C215     1.0000 0.42177  0.48993  0.77705  Biso   1.000  C
  H148     1.0000 0.42247  0.44833  0.77883  Biso   1.000  H
  C216     1.0000 0.39567  0.49853  0.76036  Biso   1.000  C
  H149     1.0000 0.38537  0.46723  0.75043  Biso   1.000  H
  C217     1.0000 0.21677  0.74073  0.69838  Biso   1.000  C
  C218     1.0000 0.16837  0.76173  0.70202  Biso   1.000  C
  H150     1.0000 0.14737  0.75483  0.71393  Biso   1.000  H
  C219     1.0000 0.15257  0.79213  0.68792  Biso   1.000  C
  H151     1.0000 0.12267  0.80943  0.69073  Biso   1.000  H
  N34      1.0000 0.17567  0.79973  0.67045  Biso   1.000  N
  C220     1.0000 0.22017  0.78013  0.66716  Biso   1.000  C
  H152     1.0000 0.24097  0.78843  0.65533  Biso   1.000  H
  C221     1.0000 0.23857  0.74733  0.68053  Biso   1.000  C
  H153     1.0000 0.26697  0.72893  0.67713  Biso   1.000  H
  Ag18     1.0000 0.69688  0.84260  0.14838  Biso   1.000  Ag
  O35      1.0000 0.92376  0.95836  0.07228  Biso   1.000  O
  C222     1.0000 0.87693  0.97287  0.07428  Biso   1.000  C
  O36      1.0000 0.07878  0.04594  0.04165  Biso   1.000  O
  C223     1.0000 0.14963  0.13707  0.06247  Biso   1.000  C
  H154     1.0000 0.19503  0.17227  0.06547  Biso   1.000  H
  C224     1.0000 0.13653  0.09877  0.04600  Biso   1.000  C
  C225     1.0000 0.83443  0.94787  0.09208  Biso   1.000  C
  C226     1.0000 0.86013  0.92817  0.10622  Biso   1.000  C
  H155     1.0000 0.07093  0.97357  0.10497  Biso   1.000  H
  C227     1.0000 0.82243  0.90647  0.12284  Biso   1.000  C
  H156     1.0000 0.09573  0.93987  0.13397  Biso   1.000  H
  N35      1.0000 0.75523  0.88887  0.12312  Biso   1.000  N
  C228     1.0000 0.08843  0.82327  0.11039  Biso   1.000  C
  H157     1.0000 0.08913  0.78167  0.11217  Biso   1.000  H
  C229     1.0000 0.06233  0.83187  0.09370  Biso   1.000  C
  H158     1.0000 0.05203  0.80057  0.08377  Biso   1.000  H
  C230     1.0000 0.88343  0.07407  0.03172  Biso   1.000  C
  C231     1.0000 0.83503  0.09507  0.03536  Biso   1.000  C
  H159     1.0000 0.81403  0.08817  0.04727  Biso   1.000  H
  C232     1.0000 0.81923  0.12547  0.02126  Biso   1.000  C
  H160     1.0000 0.78933  0.14277  0.02407  Biso   1.000  H
  N36      1.0000 0.84233  0.13307  0.00379  Biso   1.000  N
  C233     1.0000 0.88683  0.11347  0.00050  Biso   1.000  C
  H161     1.0000 0.90763  0.12177  0.98867  Biso   1.000  H
  C234     1.0000 0.90523  0.08067  0.01387  Biso   1.000  C
  H162     1.0000 0.93363  0.06227  0.01047  Biso   1.000  H
  Al1      1.0000 0.66667  0.33333  0.89006  Biso   1.000  Al
  Al2      1.0000 0.33333  0.66667  0.22339  Biso   1.000  Al
  Al3      1.0000 0.00000  0.00000  0.55673  Biso   1.000  Al
  Al4      1.0000 0.66667  0.33333  0.39006  Biso   1.000  Al
  Al5      1.0000 0.33333  0.66667  0.72339  Biso   1.000  Al
  Al6      1.0000 0.00000  0.00000  0.05673  Biso   1.000  Al
  Ag19     1.0000 0.32817  0.19064  0.88518  Biso   1.000  Ag
  O37      1.0000 0.58990  0.29730  0.81825  Biso   1.000  O
  C235     1.0000 0.53040  0.24320  0.81631  Biso   1.000  C
  O38      1.0000 0.74340  0.36760  0.78707  Biso   1.000  O
  C236     1.0000 0.80390  0.31750  0.80161  Biso   1.000  C
  H163     1.0000 0.84190  0.31010  0.80060  Biso   1.000  H
  C237     1.0000 0.79530  0.35760  0.78874  Biso   1.000  C
  C238     1.0000 0.48080  0.22790  0.83173  Biso   1.000  C
  C239     1.0000 0.50530  0.26030  0.84844  Biso   1.000  C
  H164     1.0000 0.73710  0.44680  0.85030  Biso   1.000  H
  C240     1.0000 0.45900  0.24810  0.86258  Biso   1.000  C
  H165     1.0000 0.79700  0.52430  0.87390  Biso   1.000  H
  N37      1.0000 0.39370  0.20440  0.86111  Biso   1.000  N
  C241     1.0000 0.80240  0.63010  0.84469  Biso   1.000  C
  H166     1.0000 0.82210  0.67840  0.84330  Biso   1.000  H
  C242     1.0000 0.76870  0.59070  0.83039  Biso   1.000  C
  H167     1.0000 0.75940  0.60920  0.81970  Biso   1.000  H
  C243     1.0000 0.54410  0.15580  0.77323  Biso   1.000  C
  C244     1.0000 0.48730  0.09070  0.77312  Biso   1.000  C
  H168     1.0000 0.46090  0.07310  0.78410  Biso   1.000  H
  C245     1.0000 0.46790  0.05000  0.75712  Biso   1.000  C
  H169     1.0000 0.42400  0.00950  0.75660  Biso   1.000  H
  N38      1.0000 0.51070  0.06760  0.74241  Biso   1.000  N
  C246     1.0000 0.56310  0.12790  0.74166  Biso   1.000  C
  H170     1.0000 0.58990  0.14120  0.73070  Biso   1.000  H
  C247     1.0000 0.58400  0.17750  0.75667  Biso   1.000  C
  H171     1.0000 0.62260  0.22240  0.75550  Biso   1.000  H
  Ag20     1.0000 0.99484  0.52397  0.21851  Biso   1.000  Ag
  O39      1.0000 0.25657  0.63063  0.15158  Biso   1.000  O
  C248     1.0000 0.19707  0.57653  0.14964  Biso   1.000  C
  O40      1.0000 0.41007  0.70093  0.12040  Biso   1.000  O
  C249     1.0000 0.47057  0.65083  0.13494  Biso   1.000  C
  H172     1.0000 0.50857  0.64343  0.13393  Biso   1.000  H
  C250     1.0000 0.46197  0.69093  0.12207  Biso   1.000  C
  C251     1.0000 0.14747  0.56123  0.16506  Biso   1.000  C
  C252     1.0000 0.17197  0.59363  0.18177  Biso   1.000  C
  H173     1.0000 0.40377  0.78013  0.18363  Biso   1.000  H
  C253     1.0000 0.12567  0.58143  0.19591  Biso   1.000  C
  H174     1.0000 0.46367  0.85763  0.20723  Biso   1.000  H
  N39      1.0000 0.06037  0.53773  0.19444  Biso   1.000  N
  C254     1.0000 0.46907  0.96343  0.17802  Biso   1.000  C
  H175     1.0000 0.48877  0.01173  0.17663  Biso   1.000  H
  C255     1.0000 0.43537  0.92403  0.16372  Biso   1.000  C
  H176     1.0000 0.42607  0.94253  0.15303  Biso   1.000  H
  C256     1.0000 0.21077  0.48913  0.10656  Biso   1.000  C
  C257     1.0000 0.15397  0.42403  0.10645  Biso   1.000  C
  H177     1.0000 0.12757  0.40643  0.11743  Biso   1.000  H
  C258     1.0000 0.13457  0.38333  0.09045  Biso   1.000  C
  H178     1.0000 0.09067  0.34283  0.08993  Biso   1.000  H
  N40      1.0000 0.17737  0.40093  0.07574  Biso   1.000  N
  C259     1.0000 0.22977  0.46123  0.07499  Biso   1.000  C
  H179     1.0000 0.25657  0.47453  0.06403  Biso   1.000  H
  C260     1.0000 0.25067  0.51083  0.09000  Biso   1.000  C
  H180     1.0000 0.28927  0.55573  0.08883  Biso   1.000  H
  Ag21     1.0000 0.66150  0.85731  0.55185  Biso   1.000  Ag
  O41      1.0000 0.92323  0.96397  0.48492  Biso   1.000  O
  C261     1.0000 0.86373  0.90987  0.48298  Biso   1.000  C
  O42      1.0000 0.07673  0.03427  0.45374  Biso   1.000  O
  C262     1.0000 0.13723  0.98417  0.46828  Biso   1.000  C
  H181     1.0000 0.17523  0.97677  0.46727  Biso   1.000  H
  C263     1.0000 0.12863  0.02427  0.45541  Biso   1.000  C
  C264     1.0000 0.81413  0.89457  0.49840  Biso   1.000  C
  C265     1.0000 0.83863  0.92697  0.51511  Biso   1.000  C
  H182     1.0000 0.07043  0.11347  0.51697  Biso   1.000  H
  C266     1.0000 0.79233  0.91477  0.52925  Biso   1.000  C
  H183     1.0000 0.13033  0.19097  0.54057  Biso   1.000  H
  N41      1.0000 0.72703  0.87107  0.52778  Biso   1.000  N
  C267     1.0000 0.13573  0.29677  0.51136  Biso   1.000  C
  H184     1.0000 0.15543  0.34507  0.50997  Biso   1.000  H
  C268     1.0000 0.10203  0.25737  0.49706  Biso   1.000  C
  H185     1.0000 0.09273  0.27587  0.48637  Biso   1.000  H
  C269     1.0000 0.87743  0.82247  0.43990  Biso   1.000  C
  C270     1.0000 0.82063  0.75737  0.43979  Biso   1.000  C
  H186     1.0000 0.79423  0.73977  0.45077  Biso   1.000  H
  C271     1.0000 0.80123  0.71667  0.42379  Biso   1.000  C
  H187     1.0000 0.75733  0.67617  0.42327  Biso   1.000  H
  N42      1.0000 0.84403  0.73427  0.40908  Biso   1.000  N
  C272     1.0000 0.89643  0.79457  0.40833  Biso   1.000  C
  H188     1.0000 0.92323  0.80787  0.39737  Biso   1.000  H
  C273     1.0000 0.91733  0.84417  0.42334  Biso   1.000  C
  H189     1.0000 0.95593  0.88907  0.42217  Biso   1.000  H
  Ag22     1.0000 0.80936  0.13753  0.88518  Biso   1.000  Ag
  O43      1.0000 0.70270  0.29260  0.81825  Biso   1.000  O
  C274     1.0000 0.75680  0.28720  0.81631  Biso   1.000  C
  O44      1.0000 0.63240  0.37580  0.78707  Biso   1.000  O
  C275     1.0000 0.68250  0.48640  0.80161  Biso   1.000  C
  H190     1.0000 0.68990  0.53180  0.80060  Biso   1.000  H
  C276     1.0000 0.64240  0.43770  0.78874  Biso   1.000  C
  C277     1.0000 0.77210  0.25290  0.83173  Biso   1.000  C
  C278     1.0000 0.73970  0.24500  0.84844  Biso   1.000  C
  H191     1.0000 0.55320  0.29030  0.85030  Biso   1.000  H
  C279     1.0000 0.75190  0.21090  0.86258  Biso   1.000  C
  H192     1.0000 0.47570  0.27270  0.87390  Biso   1.000  H
  N43      1.0000 0.79560  0.18930  0.86111  Biso   1.000  N
  C280     1.0000 0.36990  0.17230  0.84469  Biso   1.000  C
  H193     1.0000 0.32160  0.14370  0.84330  Biso   1.000  H
  C281     1.0000 0.40930  0.17800  0.83039  Biso   1.000  C
  H194     1.0000 0.39080  0.15020  0.81970  Biso   1.000  H
  C282     1.0000 0.84420  0.38830  0.77323  Biso   1.000  C
  C283     1.0000 0.90930  0.39660  0.77312  Biso   1.000  C
  H195     1.0000 0.92690  0.38780  0.78410  Biso   1.000  H
  C284     1.0000 0.95000  0.41790  0.75712  Biso   1.000  C
  H196     1.0000 0.99050  0.41450  0.75660  Biso   1.000  H
  N44      1.0000 0.93240  0.44310  0.74241  Biso   1.000  N
  C285     1.0000 0.87210  0.43520  0.74166  Biso   1.000  C
  H197     1.0000 0.85880  0.44870  0.73070  Biso   1.000  H
  C286     1.0000 0.82250  0.40650  0.75667  Biso   1.000  C
  H198     1.0000 0.77760  0.40020  0.75550  Biso   1.000  H
  Ag23     1.0000 0.47603  0.47086  0.21851  Biso   1.000  Ag
  O45      1.0000 0.36937  0.62593  0.15158  Biso   1.000  O
  C287     1.0000 0.42347  0.62053  0.14964  Biso   1.000  C
  O46      1.0000 0.29907  0.70913  0.12040  Biso   1.000  O
  C288     1.0000 0.34917  0.81973  0.13494  Biso   1.000  C
  H199     1.0000 0.35657  0.86513  0.13393  Biso   1.000  H
  C289     1.0000 0.30907  0.77103  0.12207  Biso   1.000  C
  C290     1.0000 0.43877  0.58623  0.16506  Biso   1.000  C
  C291     1.0000 0.40637  0.57833  0.18177  Biso   1.000  C
  H200     1.0000 0.21987  0.62363  0.18363  Biso   1.000  H
  C292     1.0000 0.41857  0.54423  0.19591  Biso   1.000  C
  H201     1.0000 0.14237  0.60603  0.20723  Biso   1.000  H
  N45      1.0000 0.46227  0.52263  0.19444  Biso   1.000  N
  C293     1.0000 0.03657  0.50563  0.17802  Biso   1.000  C
  H202     1.0000 0.98827  0.47703  0.17663  Biso   1.000  H
  C294     1.0000 0.07597  0.51133  0.16372  Biso   1.000  C
  H203     1.0000 0.05747  0.48353  0.15303  Biso   1.000  H
  C295     1.0000 0.51087  0.72163  0.10656  Biso   1.000  C
  C296     1.0000 0.57597  0.72993  0.10645  Biso   1.000  C
  H204     1.0000 0.59357  0.72113  0.11743  Biso   1.000  H
  C297     1.0000 0.61667  0.75123  0.09045  Biso   1.000  C
  H205     1.0000 0.65717  0.74783  0.08993  Biso   1.000  H
  N46      1.0000 0.59907  0.77643  0.07574  Biso   1.000  N
  C298     1.0000 0.53877  0.76853  0.07499  Biso   1.000  C
  H206     1.0000 0.52547  0.78203  0.06403  Biso   1.000  H
  C299     1.0000 0.48917  0.73983  0.09000  Biso   1.000  C
  H207     1.0000 0.44427  0.73353  0.08883  Biso   1.000  H
  Ag24     1.0000 0.14269  0.80420  0.55185  Biso   1.000  Ag
  O47      1.0000 0.03603  0.95927  0.48492  Biso   1.000  O
  C300     1.0000 0.09013  0.95387  0.48298  Biso   1.000  C
  O48      1.0000 0.96573  0.04247  0.45374  Biso   1.000  O
  C301     1.0000 0.01583  0.15307  0.46828  Biso   1.000  C
  H208     1.0000 0.02323  0.19847  0.46727  Biso   1.000  H
  C302     1.0000 0.97573  0.10437  0.45541  Biso   1.000  C
  C303     1.0000 0.10543  0.91957  0.49840  Biso   1.000  C
  C304     1.0000 0.07303  0.91167  0.51511  Biso   1.000  C
  H209     1.0000 0.88653  0.95697  0.51697  Biso   1.000  H
  C305     1.0000 0.08523  0.87757  0.52925  Biso   1.000  C
  H210     1.0000 0.80903  0.93937  0.54057  Biso   1.000  H
  N47      1.0000 0.12893  0.85597  0.52778  Biso   1.000  N
  C306     1.0000 0.70323  0.83897  0.51136  Biso   1.000  C
  H211     1.0000 0.65493  0.81037  0.50997  Biso   1.000  H
  C307     1.0000 0.74263  0.84467  0.49706  Biso   1.000  C
  H212     1.0000 0.72413  0.81687  0.48637  Biso   1.000  H
  C308     1.0000 0.17753  0.05497  0.43990  Biso   1.000  C
  C309     1.0000 0.24263  0.06327  0.43979  Biso   1.000  C
  H213     1.0000 0.26023  0.05447  0.45077  Biso   1.000  H
  C310     1.0000 0.28333  0.08457  0.42379  Biso   1.000  C
  H214     1.0000 0.32383  0.08117  0.42327  Biso   1.000  H
  N48      1.0000 0.26573  0.10977  0.40908  Biso   1.000  N
  C311     1.0000 0.20543  0.10187  0.40833  Biso   1.000  C
  H215     1.0000 0.19213  0.11537  0.39737  Biso   1.000  H
  C312     1.0000 0.15583  0.07317  0.42334  Biso   1.000  C
  H216     1.0000 0.11093  0.06687  0.42217  Biso   1.000  H
  Ag25     1.0000 0.86247  0.67183  0.88518  Biso   1.000  Ag
  O49      1.0000 0.70740  0.41010  0.81825  Biso   1.000  O
  C313     1.0000 0.71280  0.46960  0.81631  Biso   1.000  C
  O50      1.0000 0.62420  0.25660  0.78707  Biso   1.000  O
  C314     1.0000 0.51360  0.19610  0.80161  Biso   1.000  C
  H217     1.0000 0.46820  0.15810  0.80060  Biso   1.000  H
  C315     1.0000 0.56230  0.20470  0.78874  Biso   1.000  C
  C316     1.0000 0.74710  0.51920  0.83173  Biso   1.000  C
  C317     1.0000 0.75500  0.49470  0.84844  Biso   1.000  C
  H218     1.0000 0.70970  0.26290  0.85030  Biso   1.000  H
  C318     1.0000 0.78910  0.54100  0.86258  Biso   1.000  C
  H219     1.0000 0.72730  0.20300  0.87390  Biso   1.000  H
  N49      1.0000 0.81070  0.60630  0.86111  Biso   1.000  N
  C319     1.0000 0.82770  0.19760  0.84469  Biso   1.000  C
  H220     1.0000 0.85630  0.17790  0.84330  Biso   1.000  H
  C320     1.0000 0.82200  0.23130  0.83039  Biso   1.000  C
  H221     1.0000 0.84980  0.24060  0.81970  Biso   1.000  H
  C321     1.0000 0.61170  0.45590  0.77323  Biso   1.000  C
  C322     1.0000 0.60340  0.51270  0.77312  Biso   1.000  C
  H222     1.0000 0.61220  0.53910  0.78410  Biso   1.000  H
  C323     1.0000 0.58210  0.53210  0.75712  Biso   1.000  C
  H223     1.0000 0.58550  0.57600  0.75660  Biso   1.000  H
  N50      1.0000 0.55690  0.48930  0.74241  Biso   1.000  N
  C324     1.0000 0.56480  0.43690  0.74166  Biso   1.000  C
  H224     1.0000 0.55130  0.41010  0.73070  Biso   1.000  H
  C325     1.0000 0.59350  0.41600  0.75667  Biso   1.000  C
  H225     1.0000 0.59980  0.37740  0.75550  Biso   1.000  H
  Ag26     1.0000 0.52914  0.00516  0.21851  Biso   1.000  Ag
  O51      1.0000 0.37407  0.74343  0.15158  Biso   1.000  O
  C326     1.0000 0.37947  0.80293  0.14964  Biso   1.000  C
  O52      1.0000 0.29087  0.58993  0.12040  Biso   1.000  O
  C327     1.0000 0.18027  0.52943  0.13494  Biso   1.000  C
  H226     1.0000 0.13487  0.49143  0.13393  Biso   1.000  H
  C328     1.0000 0.22897  0.53803  0.12207  Biso   1.000  C
  C329     1.0000 0.41377  0.85253  0.16506  Biso   1.000  C
  C330     1.0000 0.42167  0.82803  0.18177  Biso   1.000  C
  H227     1.0000 0.37637  0.59623  0.18363  Biso   1.000  H
  C331     1.0000 0.45577  0.87433  0.19591  Biso   1.000  C
  H228     1.0000 0.39397  0.53633  0.20723  Biso   1.000  H
  N51      1.0000 0.47737  0.93963  0.19444  Biso   1.000  N
  C332     1.0000 0.49437  0.53093  0.17802  Biso   1.000  C
  H229     1.0000 0.52297  0.51123  0.17663  Biso   1.000  H
  C333     1.0000 0.48867  0.56463  0.16372  Biso   1.000  C
  H230     1.0000 0.51647  0.57393  0.15303  Biso   1.000  H
  C334     1.0000 0.27837  0.78923  0.10656  Biso   1.000  C
  C335     1.0000 0.27007  0.84603  0.10645  Biso   1.000  C
  H231     1.0000 0.27887  0.87243  0.11743  Biso   1.000  H
  C336     1.0000 0.24877  0.86543  0.09045  Biso   1.000  C
  H232     1.0000 0.25217  0.90933  0.08993  Biso   1.000  H
  N52      1.0000 0.22357  0.82263  0.07574  Biso   1.000  N
  C337     1.0000 0.23147  0.77023  0.07499  Biso   1.000  C
  H233     1.0000 0.21797  0.74343  0.06403  Biso   1.000  H
  C338     1.0000 0.26017  0.74933  0.09000  Biso   1.000  C
  H234     1.0000 0.26647  0.71073  0.08883  Biso   1.000  H
  Ag27     1.0000 0.19580  0.33850  0.55185  Biso   1.000  Ag
  O53      1.0000 0.04073  0.07677  0.48492  Biso   1.000  O
  C339     1.0000 0.04613  0.13627  0.48298  Biso   1.000  C
  O54      1.0000 0.95753  0.92327  0.45374  Biso   1.000  O
  C340     1.0000 0.84693  0.86277  0.46828  Biso   1.000  C
  H235     1.0000 0.80153  0.82477  0.46727  Biso   1.000  H
  C341     1.0000 0.89563  0.87137  0.45541  Biso   1.000  C
  C342     1.0000 0.08043  0.18587  0.49840  Biso   1.000  C
  C343     1.0000 0.08833  0.16137  0.51511  Biso   1.000  C
  H236     1.0000 0.04303  0.92957  0.51697  Biso   1.000  H
  C344     1.0000 0.12243  0.20767  0.52925  Biso   1.000  C
  H237     1.0000 0.06063  0.86967  0.54057  Biso   1.000  H
  N53      1.0000 0.14403  0.27297  0.52778  Biso   1.000  N
  C345     1.0000 0.16103  0.86427  0.51136  Biso   1.000  C
  H238     1.0000 0.18963  0.84457  0.50997  Biso   1.000  H
  C346     1.0000 0.15533  0.89797  0.49706  Biso   1.000  C
  H239     1.0000 0.18313  0.90727  0.48637  Biso   1.000  H
  C347     1.0000 0.94503  0.12257  0.43990  Biso   1.000  C
  C348     1.0000 0.93673  0.17937  0.43979  Biso   1.000  C
  H240     1.0000 0.94553  0.20577  0.45077  Biso   1.000  H
  C349     1.0000 0.91543  0.19877  0.42379  Biso   1.000  C
  H241     1.0000 0.91883  0.24267  0.42327  Biso   1.000  H
  N54      1.0000 0.89023  0.15597  0.40908  Biso   1.000  N
  C350     1.0000 0.89813  0.10357  0.40833  Biso   1.000  C
  H242     1.0000 0.88463  0.07677  0.39737  Biso   1.000  H
  C351     1.0000 0.92683  0.08267  0.42334  Biso   1.000  C
  H243     1.0000 0.93313  0.04407  0.42217  Biso   1.000  H
  Ag28     1.0000 0.80936  0.67183  0.38518  Biso   1.000  Ag
  O55      1.0000 0.70270  0.41010  0.31825  Biso   1.000  O
  C352     1.0000 0.75680  0.46960  0.31631  Biso   1.000  C
  O56      1.0000 0.63240  0.25660  0.28707  Biso   1.000  O
  C353     1.0000 0.68250  0.19610  0.30161  Biso   1.000  C
  H244     1.0000 0.68990  0.15810  0.30060  Biso   1.000  H
  C354     1.0000 0.64240  0.20470  0.28874  Biso   1.000  C
  C355     1.0000 0.77210  0.51920  0.33173  Biso   1.000  C
  C356     1.0000 0.73970  0.49470  0.34844  Biso   1.000  C
  H245     1.0000 0.55320  0.26290  0.35030  Biso   1.000  H
  C357     1.0000 0.75190  0.54100  0.36258  Biso   1.000  C
  H246     1.0000 0.47570  0.20300  0.37390  Biso   1.000  H
  N55      1.0000 0.79560  0.60630  0.36111  Biso   1.000  N
  C358     1.0000 0.36990  0.19760  0.34469  Biso   1.000  C
  H247     1.0000 0.32160  0.17790  0.34330  Biso   1.000  H
  C359     1.0000 0.40930  0.23130  0.33039  Biso   1.000  C
  H248     1.0000 0.39080  0.24060  0.31970  Biso   1.000  H
  C360     1.0000 0.84420  0.45590  0.27323  Biso   1.000  C
  C361     1.0000 0.90930  0.51270  0.27312  Biso   1.000  C
  H249     1.0000 0.92690  0.53910  0.28410  Biso   1.000  H
  C362     1.0000 0.95000  0.53210  0.25712  Biso   1.000  C
  H250     1.0000 0.99050  0.57600  0.25660  Biso   1.000  H
  N56      1.0000 0.93240  0.48930  0.24241  Biso   1.000  N
  C363     1.0000 0.87210  0.43690  0.24166  Biso   1.000  C
  H251     1.0000 0.85880  0.41010  0.23070  Biso   1.000  H
  C364     1.0000 0.82250  0.41600  0.25667  Biso   1.000  C
  H252     1.0000 0.77760  0.37740  0.25550  Biso   1.000  H
  Ag29     1.0000 0.47603  0.00516  0.71851  Biso   1.000  Ag
  O57      1.0000 0.36937  0.74343  0.65158  Biso   1.000  O
  C365     1.0000 0.42347  0.80293  0.64964  Biso   1.000  C
  O58      1.0000 0.29907  0.58993  0.62040  Biso   1.000  O
  C366     1.0000 0.34917  0.52943  0.63494  Biso   1.000  C
  H253     1.0000 0.35657  0.49143  0.63393  Biso   1.000  H
  C367     1.0000 0.30907  0.53803  0.62207  Biso   1.000  C
  C368     1.0000 0.43877  0.85253  0.66506  Biso   1.000  C
  C369     1.0000 0.40637  0.82803  0.68177  Biso   1.000  C
  H254     1.0000 0.21987  0.59623  0.68363  Biso   1.000  H
  C370     1.0000 0.41857  0.87433  0.69591  Biso   1.000  C
  H255     1.0000 0.14237  0.53633  0.70723  Biso   1.000  H
  N57      1.0000 0.46227  0.93963  0.69444  Biso   1.000  N
  C371     1.0000 0.03657  0.53093  0.67802  Biso   1.000  C
  H256     1.0000 0.98827  0.51123  0.67663  Biso   1.000  H
  C372     1.0000 0.07597  0.56463  0.66372  Biso   1.000  C
  H257     1.0000 0.05747  0.57393  0.65303  Biso   1.000  H
  C373     1.0000 0.51087  0.78923  0.60656  Biso   1.000  C
  C374     1.0000 0.57597  0.84603  0.60645  Biso   1.000  C
  H258     1.0000 0.59357  0.87243  0.61743  Biso   1.000  H
  C375     1.0000 0.61667  0.86543  0.59045  Biso   1.000  C
  H259     1.0000 0.65717  0.90933  0.58993  Biso   1.000  H
  N58      1.0000 0.59907  0.82263  0.57574  Biso   1.000  N
  C376     1.0000 0.53877  0.77023  0.57499  Biso   1.000  C
  H260     1.0000 0.52547  0.74343  0.56403  Biso   1.000  H
  C377     1.0000 0.48917  0.74933  0.59000  Biso   1.000  C
  H261     1.0000 0.44427  0.71073  0.58883  Biso   1.000  H
  Ag30     1.0000 0.14269  0.33850  0.05185  Biso   1.000  Ag
  O59      1.0000 0.03603  0.07677  0.98492  Biso   1.000  O
  C378     1.0000 0.09013  0.13627  0.98298  Biso   1.000  C
  O60      1.0000 0.96573  0.92327  0.95374  Biso   1.000  O
  C379     1.0000 0.01583  0.86277  0.96828  Biso   1.000  C
  H262     1.0000 0.02323  0.82477  0.96727  Biso   1.000  H
  C380     1.0000 0.97573  0.87137  0.95541  Biso   1.000  C
  C381     1.0000 0.10543  0.18587  0.99840  Biso   1.000  C
  C382     1.0000 0.07303  0.16137  0.01511  Biso   1.000  C
  H263     1.0000 0.88653  0.92957  0.01697  Biso   1.000  H
  C383     1.0000 0.08523  0.20767  0.02925  Biso   1.000  C
  H264     1.0000 0.80903  0.86967  0.04057  Biso   1.000  H
  N59      1.0000 0.12893  0.27297  0.02778  Biso   1.000  N
  C384     1.0000 0.70323  0.86427  0.01136  Biso   1.000  C
  H265     1.0000 0.65493  0.84457  0.00997  Biso   1.000  H
  C385     1.0000 0.74263  0.89797  0.99706  Biso   1.000  C
  H266     1.0000 0.72413  0.90727  0.98637  Biso   1.000  H
  C386     1.0000 0.17753  0.12257  0.93990  Biso   1.000  C
  C387     1.0000 0.24263  0.17937  0.93979  Biso   1.000  C
  H267     1.0000 0.26023  0.20577  0.95077  Biso   1.000  H
  C388     1.0000 0.28333  0.19877  0.92379  Biso   1.000  C
  H268     1.0000 0.32383  0.24267  0.92327  Biso   1.000  H
  N60      1.0000 0.26573  0.15597  0.90908  Biso   1.000  N
  C389     1.0000 0.20543  0.10357  0.90833  Biso   1.000  C
  H269     1.0000 0.19213  0.07677  0.89737  Biso   1.000  H
  C390     1.0000 0.15583  0.08267  0.92334  Biso   1.000  C
  H270     1.0000 0.11093  0.04407  0.92217  Biso   1.000  H
  Ag31     1.0000 0.86247  0.19064  0.38518  Biso   1.000  Ag
  O61      1.0000 0.70740  0.29730  0.31825  Biso   1.000  O
  C391     1.0000 0.71280  0.24320  0.31631  Biso   1.000  C
  O62      1.0000 0.62420  0.36760  0.28707  Biso   1.000  O
  C392     1.0000 0.51360  0.31750  0.30161  Biso   1.000  C
  H271     1.0000 0.46820  0.31010  0.30060  Biso   1.000  H
  C393     1.0000 0.56230  0.35760  0.28874  Biso   1.000  C
  C394     1.0000 0.74710  0.22790  0.33173  Biso   1.000  C
  C395     1.0000 0.75500  0.26030  0.34844  Biso   1.000  C
  H272     1.0000 0.70970  0.44680  0.35030  Biso   1.000  H
  C396     1.0000 0.78910  0.24810  0.36258  Biso   1.000  C
  H273     1.0000 0.72730  0.52430  0.37390  Biso   1.000  H
  N61      1.0000 0.81070  0.20440  0.36111  Biso   1.000  N
  C397     1.0000 0.82770  0.63010  0.34469  Biso   1.000  C
  H274     1.0000 0.85630  0.67840  0.34330  Biso   1.000  H
  C398     1.0000 0.82200  0.59070  0.33039  Biso   1.000  C
  H275     1.0000 0.84980  0.60920  0.31970  Biso   1.000  H
  C399     1.0000 0.61170  0.15580  0.27323  Biso   1.000  C
  C400     1.0000 0.60340  0.09070  0.27312  Biso   1.000  C
  H276     1.0000 0.61220  0.07310  0.28410  Biso   1.000  H
  C401     1.0000 0.58210  0.05000  0.25712  Biso   1.000  C
  H277     1.0000 0.58550  0.00950  0.25660  Biso   1.000  H
  N62      1.0000 0.55690  0.06760  0.24241  Biso   1.000  N
  C402     1.0000 0.56480  0.12790  0.24166  Biso   1.000  C
  H278     1.0000 0.55130  0.14120  0.23070  Biso   1.000  H
  C403     1.0000 0.59350  0.17750  0.25667  Biso   1.000  C
  H279     1.0000 0.59980  0.22240  0.25550  Biso   1.000  H
  Ag32     1.0000 0.52914  0.52397  0.71851  Biso   1.000  Ag
  O63      1.0000 0.37407  0.63063  0.65158  Biso   1.000  O
  C404     1.0000 0.37947  0.57653  0.64964  Biso   1.000  C
  O64      1.0000 0.29087  0.70093  0.62040  Biso   1.000  O
  C405     1.0000 0.18027  0.65083  0.63494  Biso   1.000  C
  H280     1.0000 0.13487  0.64343  0.63393  Biso   1.000  H
  C406     1.0000 0.22897  0.69093  0.62207  Biso   1.000  C
  C407     1.0000 0.41377  0.56123  0.66506  Biso   1.000  C
  C408     1.0000 0.42167  0.59363  0.68177  Biso   1.000  C
  H281     1.0000 0.37637  0.78013  0.68363  Biso   1.000  H
  C409     1.0000 0.45577  0.58143  0.69591  Biso   1.000  C
  H282     1.0000 0.39397  0.85763  0.70723  Biso   1.000  H
  N63      1.0000 0.47737  0.53773  0.69444  Biso   1.000  N
  C410     1.0000 0.49437  0.96343  0.67802  Biso   1.000  C
  H283     1.0000 0.52297  0.01173  0.67663  Biso   1.000  H
  C411     1.0000 0.48867  0.92403  0.66372  Biso   1.000  C
  H284     1.0000 0.51647  0.94253  0.65303  Biso   1.000  H
  C412     1.0000 0.27837  0.48913  0.60656  Biso   1.000  C
  C413     1.0000 0.27007  0.42403  0.60645  Biso   1.000  C
  H285     1.0000 0.27887  0.40643  0.61743  Biso   1.000  H
  C414     1.0000 0.24877  0.38333  0.59045  Biso   1.000  C
  H286     1.0000 0.25217  0.34283  0.58993  Biso   1.000  H
  N64      1.0000 0.22357  0.40093  0.57574  Biso   1.000  N
  C415     1.0000 0.23147  0.46123  0.57499  Biso   1.000  C
  H287     1.0000 0.21797  0.47453  0.56403  Biso   1.000  H
  C416     1.0000 0.26017  0.51083  0.59000  Biso   1.000  C
  H288     1.0000 0.26647  0.55573  0.58883  Biso   1.000  H
  Ag33     1.0000 0.19580  0.85731  0.05185  Biso   1.000  Ag
  O65      1.0000 0.04073  0.96397  0.98492  Biso   1.000  O
  C417     1.0000 0.04613  0.90987  0.98298  Biso   1.000  C
  O66      1.0000 0.95753  0.03427  0.95374  Biso   1.000  O
  C418     1.0000 0.84693  0.98417  0.96828  Biso   1.000  C
  H289     1.0000 0.80153  0.97677  0.96727  Biso   1.000  H
  C419     1.0000 0.89563  0.02427  0.95541  Biso   1.000  C
  C420     1.0000 0.08043  0.89457  0.99840  Biso   1.000  C
  C421     1.0000 0.08833  0.92697  0.01511  Biso   1.000  C
  H290     1.0000 0.04303  0.11347  0.01697  Biso   1.000  H
  C422     1.0000 0.12243  0.91477  0.02925  Biso   1.000  C
  H291     1.0000 0.06063  0.19097  0.04057  Biso   1.000  H
  N65      1.0000 0.14403  0.87107  0.02778  Biso   1.000  N
  C423     1.0000 0.16103  0.29677  0.01136  Biso   1.000  C
  H292     1.0000 0.18963  0.34507  0.00997  Biso   1.000  H
  C424     1.0000 0.15533  0.25737  0.99706  Biso   1.000  C
  H293     1.0000 0.18313  0.27587  0.98637  Biso   1.000  H
  C425     1.0000 0.94503  0.82247  0.93990  Biso   1.000  C
  C426     1.0000 0.93673  0.75737  0.93979  Biso   1.000  C
  H294     1.0000 0.94553  0.73977  0.95077  Biso   1.000  H
  C427     1.0000 0.91543  0.71667  0.92379  Biso   1.000  C
  H295     1.0000 0.91883  0.67617  0.92327  Biso   1.000  H
  N66      1.0000 0.89023  0.73427  0.90908  Biso   1.000  N
  C428     1.0000 0.89813  0.79457  0.90833  Biso   1.000  C
  H296     1.0000 0.88463  0.80787  0.89737  Biso   1.000  H
  C429     1.0000 0.92683  0.84417  0.92334  Biso   1.000  C
  H297     1.0000 0.93313  0.88907  0.92217  Biso   1.000  H
  Ag34     1.0000 0.32817  0.13753  0.38518  Biso   1.000  Ag
  O67      1.0000 0.58990  0.29260  0.31825  Biso   1.000  O
  C430     1.0000 0.53040  0.28720  0.31631  Biso   1.000  C
  O68      1.0000 0.74340  0.37580  0.28707  Biso   1.000  O
  C431     1.0000 0.80390  0.48640  0.30161  Biso   1.000  C
  H298     1.0000 0.84190  0.53180  0.30060  Biso   1.000  H
  C432     1.0000 0.79530  0.43770  0.28874  Biso   1.000  C
  C433     1.0000 0.48080  0.25290  0.33173  Biso   1.000  C
  C434     1.0000 0.50530  0.24500  0.34844  Biso   1.000  C
  H299     1.0000 0.73710  0.29030  0.35030  Biso   1.000  H
  C435     1.0000 0.45900  0.21090  0.36258  Biso   1.000  C
  H300     1.0000 0.79700  0.27270  0.37390  Biso   1.000  H
  N67      1.0000 0.39370  0.18930  0.36111  Biso   1.000  N
  C436     1.0000 0.80240  0.17230  0.34469  Biso   1.000  C
  H301     1.0000 0.82210  0.14370  0.34330  Biso   1.000  H
  C437     1.0000 0.76870  0.17800  0.33039  Biso   1.000  C
  H302     1.0000 0.75940  0.15020  0.31970  Biso   1.000  H
  C438     1.0000 0.54410  0.38830  0.27323  Biso   1.000  C
  C439     1.0000 0.48730  0.39660  0.27312  Biso   1.000  C
  H303     1.0000 0.46090  0.38780  0.28410  Biso   1.000  H
  C440     1.0000 0.46790  0.41790  0.25712  Biso   1.000  C
  H304     1.0000 0.42400  0.41450  0.25660  Biso   1.000  H
  N68      1.0000 0.51070  0.44310  0.24241  Biso   1.000  N
  C441     1.0000 0.56310  0.43520  0.24166  Biso   1.000  C
  H305     1.0000 0.58990  0.44870  0.23070  Biso   1.000  H
  C442     1.0000 0.58400  0.40650  0.25667  Biso   1.000  C
  H306     1.0000 0.62260  0.40020  0.25550  Biso   1.000  H
  Ag35     1.0000 0.99484  0.47086  0.71851  Biso   1.000  Ag
  O69      1.0000 0.25657  0.62593  0.65158  Biso   1.000  O
  C443     1.0000 0.19707  0.62053  0.64964  Biso   1.000  C
  O70      1.0000 0.41007  0.70913  0.62040  Biso   1.000  O
  C444     1.0000 0.47057  0.81973  0.63494  Biso   1.000  C
  H307     1.0000 0.50857  0.86513  0.63393  Biso   1.000  H
  C445     1.0000 0.46197  0.77103  0.62207  Biso   1.000  C
  C446     1.0000 0.14747  0.58623  0.66506  Biso   1.000  C
  C447     1.0000 0.17197  0.57833  0.68177  Biso   1.000  C
  H308     1.0000 0.40377  0.62363  0.68363  Biso   1.000  H
  C448     1.0000 0.12567  0.54423  0.69591  Biso   1.000  C
  H309     1.0000 0.46367  0.60603  0.70723  Biso   1.000  H
  N69      1.0000 0.06037  0.52263  0.69444  Biso   1.000  N
  C449     1.0000 0.46907  0.50563  0.67802  Biso   1.000  C
  H310     1.0000 0.48877  0.47703  0.67663  Biso   1.000  H
  C450     1.0000 0.43537  0.51133  0.66372  Biso   1.000  C
  H311     1.0000 0.42607  0.48353  0.65303  Biso   1.000  H
  C451     1.0000 0.21077  0.72163  0.60656  Biso   1.000  C
  C452     1.0000 0.15397  0.72993  0.60645  Biso   1.000  C
  H312     1.0000 0.12757  0.72113  0.61743  Biso   1.000  H
  C453     1.0000 0.13457  0.75123  0.59045  Biso   1.000  C
  H313     1.0000 0.09067  0.74783  0.58993  Biso   1.000  H
  N70      1.0000 0.17737  0.77643  0.57574  Biso   1.000  N
  C454     1.0000 0.22977  0.76853  0.57499  Biso   1.000  C
  H314     1.0000 0.25657  0.78203  0.56403  Biso   1.000  H
  C455     1.0000 0.25067  0.73983  0.59000  Biso   1.000  C
  H315     1.0000 0.28927  0.73353  0.58883  Biso   1.000  H
  Ag36     1.0000 0.66150  0.80420  0.05185  Biso   1.000  Ag
  O71      1.0000 0.92323  0.95927  0.98492  Biso   1.000  O
  C456     1.0000 0.86373  0.95387  0.98298  Biso   1.000  C
  O72      1.0000 0.07673  0.04247  0.95374  Biso   1.000  O
  C457     1.0000 0.13723  0.15307  0.96828  Biso   1.000  C
  H316     1.0000 0.17523  0.19847  0.96727  Biso   1.000  H
  C458     1.0000 0.12863  0.10437  0.95541  Biso   1.000  C
  C459     1.0000 0.81413  0.91957  0.99840  Biso   1.000  C
  C460     1.0000 0.83863  0.91167  0.01511  Biso   1.000  C
  H317     1.0000 0.07043  0.95697  0.01697  Biso   1.000  H
  C461     1.0000 0.79233  0.87757  0.02925  Biso   1.000  C
  H318     1.0000 0.13033  0.93937  0.04057  Biso   1.000  H
  N71      1.0000 0.72703  0.85597  0.02778  Biso   1.000  N
  C462     1.0000 0.13573  0.83897  0.01136  Biso   1.000  C
  H319     1.0000 0.15543  0.81037  0.00997  Biso   1.000  H
  C463     1.0000 0.10203  0.84467  0.99706  Biso   1.000  C
  H320     1.0000 0.09273  0.81687  0.98637  Biso   1.000  H
  C464     1.0000 0.87743  0.05497  0.93990  Biso   1.000  C
  C465     1.0000 0.82063  0.06327  0.93979  Biso   1.000  C
  H321     1.0000 0.79423  0.05447  0.95077  Biso   1.000  H
  C466     1.0000 0.80123  0.08457  0.92379  Biso   1.000  C
  H322     1.0000 0.75733  0.08117  0.92327  Biso   1.000  H
  N72      1.0000 0.84403  0.10977  0.90908  Biso   1.000  N
  C467     1.0000 0.89643  0.10187  0.90833  Biso   1.000  C
  H323     1.0000 0.92323  0.11537  0.89737  Biso   1.000  H
  C468     1.0000 0.91733  0.07317  0.92334  Biso   1.000  C
  H324     1.0000 0.95593  0.06687  0.92217  Biso   1.000  H
  Al7      1.0000 0.66667  0.33333  0.80277  Biso   1.000  Al
  Al8      1.0000 0.33333  0.66667  0.13610  Biso   1.000  Al
  Al9      1.0000 0.00000  0.00000  0.46944  Biso   1.000  Al
  Al10     1.0000 0.66667  0.33333  0.30277  Biso   1.000  Al
  Al11     1.0000 0.33333  0.66667  0.63610  Biso   1.000  Al
  Al12     1.0000 0.00000  0.00000  0.96944  Biso   1.000  Al
  Ag37     1.0000 0.30263  0.13712  0.78310  Biso   1.000  Ag
  O73      1.0000 0.58809  0.28491  0.72293  Biso   1.000  O
  C469     1.0000 0.53090  0.23100  0.71874  Biso   1.000  C
  O74      1.0000 0.74311  0.37810  0.69197  Biso   1.000  O
  C470     1.0000 0.80590  0.32400  0.70199  Biso   1.000  C
  H325     1.0000 0.83990  0.31240  0.69890  Biso   1.000  H
  C471     1.0000 0.79190  0.36600  0.68968  Biso   1.000  C
  C472     1.0000 0.47380  0.20810  0.73257  Biso   1.000  C
  C473     1.0000 0.48870  0.24480  0.74957  Biso   1.000  C
  H326     1.0000 0.74840  0.46640  0.75200  Biso   1.000  H
  C474     1.0000 0.43970  0.22660  0.76203  Biso   1.000  C
  H327     1.0000 0.80160  0.54990  0.77330  Biso   1.000  H
  N73      1.0000 0.37370  0.17240  0.75933  Biso   1.000  N
  C475     1.0000 0.77490  0.63950  0.74440  Biso   1.000  C
  H328     1.0000 0.77990  0.68370  0.74270  Biso   1.000  H
  C476     1.0000 0.74240  0.58870  0.73105  Biso   1.000  C
  H329     1.0000 0.72520  0.59930  0.72030  Biso   1.000  H
  C477     1.0000 0.56340  0.16480  0.67369  Biso   1.000  C
  C478     1.0000 0.49830  0.12830  0.66447  Biso   1.000  C
  H330     1.0000 0.45790  0.12210  0.67050  Biso   1.000  H
  C479     1.0000 0.49460  0.10330  0.64755  Biso   1.000  C
  H331     1.0000 0.45630  0.09430  0.64000  Biso   1.000  H
  N74      1.0000 0.54300  0.08990  0.64047  Biso   1.000  N
  C480     1.0000 0.60410  0.12240  0.64940  Biso   1.000  C
  H332     1.0000 0.64140  0.11870  0.64450  Biso   1.000  H
  C481     1.0000 0.61480  0.16100  0.66548  Biso   1.000  C
  H333     1.0000 0.65960  0.18510  0.67070  Biso   1.000  H
  Ag38     1.0000 0.96930  0.47045  0.11643  Biso   1.000  Ag
  O75      1.0000 0.25476  0.61824  0.05626  Biso   1.000  O
  C482     1.0000 0.19757  0.56433  0.05207  Biso   1.000  C
  O76      1.0000 0.40978  0.71143  0.02530  Biso   1.000  O
  C483     1.0000 0.47257  0.65733  0.03532  Biso   1.000  C
  H334     1.0000 0.50657  0.64573  0.03223  Biso   1.000  H
  C484     1.0000 0.45857  0.69933  0.02301  Biso   1.000  C
  C485     1.0000 0.14047  0.54143  0.06590  Biso   1.000  C
  C486     1.0000 0.15537  0.57813  0.08290  Biso   1.000  C
  H335     1.0000 0.41507  0.79973  0.08533  Biso   1.000  H
  C487     1.0000 0.10637  0.55993  0.09536  Biso   1.000  C
  H336     1.0000 0.46827  0.88323  0.10663  Biso   1.000  H
  N75      1.0000 0.04037  0.50573  0.09266  Biso   1.000  N
  C488     1.0000 0.44157  0.97283  0.07773  Biso   1.000  C
  H337     1.0000 0.44657  0.01703  0.07603  Biso   1.000  H
  C489     1.0000 0.40907  0.92203  0.06438  Biso   1.000  C
  H338     1.0000 0.39187  0.93263  0.05363  Biso   1.000  H
  C490     1.0000 0.23007  0.49813  0.00702  Biso   1.000  C
  C491     1.0000 0.16497  0.46163  0.99780  Biso   1.000  C
  H339     1.0000 0.12457  0.45543  0.00383  Biso   1.000  H
  C492     1.0000 0.16127  0.43663  0.98088  Biso   1.000  C
  H340     1.0000 0.12297  0.42763  0.97333  Biso   1.000  H
  N76      1.0000 0.20967  0.42323  0.97380  Biso   1.000  N
  C493     1.0000 0.27077  0.45573  0.98273  Biso   1.000  C
  H341     1.0000 0.30807  0.45203  0.97783  Biso   1.000  H
  C494     1.0000 0.28147  0.49433  0.99881  Biso   1.000  C
  H342     1.0000 0.32627  0.51843  0.00403  Biso   1.000  H
  Ag39     1.0000 0.63596  0.80379  0.44977  Biso   1.000  Ag
  O77      1.0000 0.92142  0.95158  0.38960  Biso   1.000  O
  C495     1.0000 0.86423  0.89767  0.38541  Biso   1.000  C
  O78      1.0000 0.07644  0.04477  0.35864  Biso   1.000  O
  C496     1.0000 0.13923  0.99067  0.36866  Biso   1.000  C
  H343     1.0000 0.17323  0.97907  0.36557  Biso   1.000  H
  C497     1.0000 0.12523  0.03267  0.35635  Biso   1.000  C
  C498     1.0000 0.80713  0.87477  0.39924  Biso   1.000  C
  C499     1.0000 0.82203  0.91147  0.41624  Biso   1.000  C
  H344     1.0000 0.08173  0.13307  0.41867  Biso   1.000  H
  C500     1.0000 0.77303  0.89327  0.42870  Biso   1.000  C
  H345     1.0000 0.13493  0.21657  0.43997  Biso   1.000  H
  N77      1.0000 0.70703  0.83907  0.42600  Biso   1.000  N
  C501     1.0000 0.10823  0.30617  0.41107  Biso   1.000  C
  H346     1.0000 0.11323  0.35037  0.40937  Biso   1.000  H
  C502     1.0000 0.07573  0.25537  0.39772  Biso   1.000  C
  H347     1.0000 0.05853  0.26597  0.38697  Biso   1.000  H
  C503     1.0000 0.89673  0.83147  0.34036  Biso   1.000  C
  C504     1.0000 0.83163  0.79497  0.33114  Biso   1.000  C
  H348     1.0000 0.79123  0.78877  0.33717  Biso   1.000  H
  C505     1.0000 0.82793  0.76997  0.31422  Biso   1.000  C
  H349     1.0000 0.78963  0.76097  0.30667  Biso   1.000  H
  N78      1.0000 0.87633  0.75657  0.30714  Biso   1.000  N
  C506     1.0000 0.93743  0.78907  0.31607  Biso   1.000  C
  H350     1.0000 0.97473  0.78537  0.31117  Biso   1.000  H
  C507     1.0000 0.94813  0.82767  0.33215  Biso   1.000  C
  H351     1.0000 0.99293  0.85177  0.33737  Biso   1.000  H
  Ag40     1.0000 0.86288  0.16551  0.78310  Biso   1.000  Ag
  O79      1.0000 0.71509  0.30318  0.72293  Biso   1.000  O
  C508     1.0000 0.76900  0.29990  0.71874  Biso   1.000  C
  O80      1.0000 0.62190  0.36501  0.69197  Biso   1.000  O
  C509     1.0000 0.67600  0.48190  0.70199  Biso   1.000  C
  H352     1.0000 0.68760  0.52750  0.69890  Biso   1.000  H
  C510     1.0000 0.63400  0.42590  0.68968  Biso   1.000  C
  C511     1.0000 0.79190  0.26570  0.73257  Biso   1.000  C
  C512     1.0000 0.75520  0.24390  0.74957  Biso   1.000  C
  H353     1.0000 0.53360  0.28200  0.75200  Biso   1.000  H
  C513     1.0000 0.77340  0.21310  0.76203  Biso   1.000  C
  H354     1.0000 0.45010  0.25170  0.77330  Biso   1.000  H
  N79      1.0000 0.82760  0.20130  0.75933  Biso   1.000  N
  C514     1.0000 0.36050  0.13540  0.74440  Biso   1.000  C
  H355     1.0000 0.31630  0.09620  0.74270  Biso   1.000  H
  C515     1.0000 0.41130  0.15370  0.73105  Biso   1.000  C
  H356     1.0000 0.40070  0.12590  0.72030  Biso   1.000  H
  C516     1.0000 0.83520  0.39860  0.67369  Biso   1.000  C
  C517     1.0000 0.87170  0.37000  0.66447  Biso   1.000  C
  H357     1.0000 0.87790  0.33580  0.67050  Biso   1.000  H
  C518     1.0000 0.89670  0.39130  0.64755  Biso   1.000  C
  H358     1.0000 0.90570  0.36200  0.64000  Biso   1.000  H
  N80      1.0000 0.91010  0.45310  0.64047  Biso   1.000  N
  C519     1.0000 0.87760  0.48170  0.64940  Biso   1.000  C
  H359     1.0000 0.88130  0.52270  0.64450  Biso   1.000  H
  C520     1.0000 0.83900  0.45380  0.66548  Biso   1.000  C
  H360     1.0000 0.81490  0.47450  0.67070  Biso   1.000  H
  Ag41     1.0000 0.52955  0.49884  0.11643  Biso   1.000  Ag
  O81      1.0000 0.38176  0.63651  0.05626  Biso   1.000  O
  C521     1.0000 0.43567  0.63323  0.05207  Biso   1.000  C
  O82      1.0000 0.28857  0.69834  0.02530  Biso   1.000  O
  C522     1.0000 0.34267  0.81523  0.03532  Biso   1.000  C
  H361     1.0000 0.35427  0.86083  0.03223  Biso   1.000  H
  C523     1.0000 0.30067  0.75923  0.02301  Biso   1.000  C
  C524     1.0000 0.45857  0.59903  0.06590  Biso   1.000  C
  C525     1.0000 0.42187  0.57723  0.08290  Biso   1.000  C
  H362     1.0000 0.20027  0.61533  0.08533  Biso   1.000  H
  C526     1.0000 0.44007  0.54643  0.09536  Biso   1.000  C
  H363     1.0000 0.11677  0.58503  0.10663  Biso   1.000  H
  N81      1.0000 0.49427  0.53463  0.09266  Biso   1.000  N
  C527     1.0000 0.02717  0.46873  0.07773  Biso   1.000  C
  H364     1.0000 0.98297  0.42953  0.07603  Biso   1.000  H
  C528     1.0000 0.07797  0.48703  0.06438  Biso   1.000  C
  H365     1.0000 0.06737  0.45923  0.05363  Biso   1.000  H
  C529     1.0000 0.50187  0.73193  0.00702  Biso   1.000  C
  C530     1.0000 0.53837  0.70333  0.99780  Biso   1.000  C
  H366     1.0000 0.54457  0.66913  0.00383  Biso   1.000  H
  C531     1.0000 0.56337  0.72463  0.98088  Biso   1.000  C
  H367     1.0000 0.57237  0.69533  0.97333  Biso   1.000  H
  N82      1.0000 0.57677  0.78643  0.97380  Biso   1.000  N
  C532     1.0000 0.54427  0.81503  0.98273  Biso   1.000  C
  H368     1.0000 0.54797  0.85603  0.97783  Biso   1.000  H
  C533     1.0000 0.50567  0.78713  0.99881  Biso   1.000  C
  H369     1.0000 0.48157  0.80783  0.00403  Biso   1.000  H
  Ag42     1.0000 0.19621  0.83218  0.44977  Biso   1.000  Ag
  O83      1.0000 0.04842  0.96985  0.38960  Biso   1.000  O
  C534     1.0000 0.10233  0.96657  0.38541  Biso   1.000  C
  O84      1.0000 0.95523  0.03168  0.35864  Biso   1.000  O
  C535     1.0000 0.00933  0.14857  0.36866  Biso   1.000  C
  H370     1.0000 0.02093  0.19417  0.36557  Biso   1.000  H
  C536     1.0000 0.96733  0.09257  0.35635  Biso   1.000  C
  C537     1.0000 0.12523  0.93237  0.39924  Biso   1.000  C
  C538     1.0000 0.08853  0.91057  0.41624  Biso   1.000  C
  H371     1.0000 0.86693  0.94867  0.41867  Biso   1.000  H
  C539     1.0000 0.10673  0.87977  0.42870  Biso   1.000  C
  H372     1.0000 0.78343  0.91837  0.43997  Biso   1.000  H
  N83      1.0000 0.16093  0.86797  0.42600  Biso   1.000  N
  C540     1.0000 0.69383  0.80207  0.41107  Biso   1.000  C
  H373     1.0000 0.64963  0.76287  0.40937  Biso   1.000  H
  C541     1.0000 0.74463  0.82037  0.39772  Biso   1.000  C
  H374     1.0000 0.73403  0.79257  0.38697  Biso   1.000  H
  C542     1.0000 0.16853  0.06527  0.34036  Biso   1.000  C
  C543     1.0000 0.20503  0.03667  0.33114  Biso   1.000  C
  H375     1.0000 0.21123  0.00247  0.33717  Biso   1.000  H
  C544     1.0000 0.23003  0.05797  0.31422  Biso   1.000  C
  H376     1.0000 0.23903  0.02867  0.30667  Biso   1.000  H
  N84      1.0000 0.24343  0.11977  0.30714  Biso   1.000  N
  C545     1.0000 0.21093  0.14837  0.31607  Biso   1.000  C
  H377     1.0000 0.21463  0.18937  0.31117  Biso   1.000  H
  C546     1.0000 0.17233  0.12047  0.33215  Biso   1.000  C
  H378     1.0000 0.14823  0.14117  0.33737  Biso   1.000  H
  Ag43     1.0000 0.83449  0.69737  0.78310  Biso   1.000  Ag
  O85      1.0000 0.69682  0.41191  0.72293  Biso   1.000  O
  C547     1.0000 0.70010  0.46910  0.71874  Biso   1.000  C
  O86      1.0000 0.63499  0.25689  0.69197  Biso   1.000  O
  C548     1.0000 0.51810  0.19410  0.70199  Biso   1.000  C
  H379     1.0000 0.47250  0.16010  0.69890  Biso   1.000  H
  C549     1.0000 0.57410  0.20810  0.68968  Biso   1.000  C
  C550     1.0000 0.73430  0.52620  0.73257  Biso   1.000  C
  C551     1.0000 0.75610  0.51130  0.74957  Biso   1.000  C
  H380     1.0000 0.71800  0.25160  0.75200  Biso   1.000  H
  C552     1.0000 0.78690  0.56030  0.76203  Biso   1.000  C
  H381     1.0000 0.74830  0.19840  0.77330  Biso   1.000  H
  N85      1.0000 0.79870  0.62630  0.75933  Biso   1.000  N
  C553     1.0000 0.86460  0.22510  0.74440  Biso   1.000  C
  H382     1.0000 0.90380  0.22010  0.74270  Biso   1.000  H
  C554     1.0000 0.84630  0.25760  0.73105  Biso   1.000  C
  H383     1.0000 0.87410  0.27480  0.72030  Biso   1.000  H
  C555     1.0000 0.60140  0.43660  0.67369  Biso   1.000  C
  C556     1.0000 0.63000  0.50170  0.66447  Biso   1.000  C
  H384     1.0000 0.66420  0.54210  0.67050  Biso   1.000  H
  C557     1.0000 0.60870  0.50540  0.64755  Biso   1.000  C
  H385     1.0000 0.63800  0.54370  0.64000  Biso   1.000  H
  N86      1.0000 0.54690  0.45700  0.64047  Biso   1.000  N
  C558     1.0000 0.51830  0.39590  0.64940  Biso   1.000  C
  H386     1.0000 0.47730  0.35860  0.64450  Biso   1.000  H
  C559     1.0000 0.54620  0.38520  0.66548  Biso   1.000  C
  H387     1.0000 0.52550  0.34040  0.67070  Biso   1.000  H
  Ag44     1.0000 0.50116  0.03070  0.11643  Biso   1.000  Ag
  O87      1.0000 0.36349  0.74524  0.05626  Biso   1.000  O
  C560     1.0000 0.36677  0.80243  0.05207  Biso   1.000  C
  O88      1.0000 0.30166  0.59022  0.02530  Biso   1.000  O
  C561     1.0000 0.18477  0.52743  0.03532  Biso   1.000  C
  H388     1.0000 0.13917  0.49343  0.03223  Biso   1.000  H
  C562     1.0000 0.24077  0.54143  0.02301  Biso   1.000  C
  C563     1.0000 0.40097  0.85953  0.06590  Biso   1.000  C
  C564     1.0000 0.42277  0.84463  0.08290  Biso   1.000  C
  H389     1.0000 0.38467  0.58493  0.08533  Biso   1.000  H
  C565     1.0000 0.45357  0.89363  0.09536  Biso   1.000  C
  H390     1.0000 0.41497  0.53173  0.10663  Biso   1.000  H
  N87      1.0000 0.46537  0.95963  0.09266  Biso   1.000  N
  C566     1.0000 0.53127  0.55843  0.07773  Biso   1.000  C
  H391     1.0000 0.57047  0.55343  0.07603  Biso   1.000  H
  C567     1.0000 0.51297  0.59093  0.06438  Biso   1.000  C
  H392     1.0000 0.54077  0.60813  0.05363  Biso   1.000  H
  C568     1.0000 0.26807  0.76993  0.00702  Biso   1.000  C
  C569     1.0000 0.29667  0.83503  0.99780  Biso   1.000  C
  H393     1.0000 0.33087  0.87543  0.00383  Biso   1.000  H
  C570     1.0000 0.27537  0.83873  0.98088  Biso   1.000  C
  H394     1.0000 0.30467  0.87703  0.97333  Biso   1.000  H
  N88      1.0000 0.21357  0.79033  0.97380  Biso   1.000  N
  C571     1.0000 0.18497  0.72923  0.98273  Biso   1.000  C
  H395     1.0000 0.14397  0.69193  0.97783  Biso   1.000  H
  C572     1.0000 0.21287  0.71853  0.99881  Biso   1.000  C
  H396     1.0000 0.19217  0.67373  0.00403  Biso   1.000  H
  Ag45     1.0000 0.16782  0.36404  0.44977  Biso   1.000  Ag
  O89      1.0000 0.03015  0.07858  0.38960  Biso   1.000  O
  C573     1.0000 0.03343  0.13577  0.38541  Biso   1.000  C
  O90      1.0000 0.96832  0.92356  0.35864  Biso   1.000  O
  C574     1.0000 0.85143  0.86077  0.36866  Biso   1.000  C
  H397     1.0000 0.80583  0.82677  0.36557  Biso   1.000  H
  C575     1.0000 0.90743  0.87477  0.35635  Biso   1.000  C
  C576     1.0000 0.06763  0.19287  0.39924  Biso   1.000  C
  C577     1.0000 0.08943  0.17797  0.41624  Biso   1.000  C
  H398     1.0000 0.05133  0.91827  0.41867  Biso   1.000  H
  C578     1.0000 0.12023  0.22697  0.42870  Biso   1.000  C
  H399     1.0000 0.08163  0.86507  0.43997  Biso   1.000  H
  N89      1.0000 0.13203  0.29297  0.42600  Biso   1.000  N
  C579     1.0000 0.19793  0.89177  0.41107  Biso   1.000  C
  H400     1.0000 0.23713  0.88677  0.40937  Biso   1.000  H
  C580     1.0000 0.17963  0.92427  0.39772  Biso   1.000  C
  H401     1.0000 0.20743  0.94147  0.38697  Biso   1.000  H
  C581     1.0000 0.93473  0.10327  0.34036  Biso   1.000  C
  C582     1.0000 0.96333  0.16837  0.33114  Biso   1.000  C
  H402     1.0000 0.99753  0.20877  0.33717  Biso   1.000  H
  C583     1.0000 0.94203  0.17207  0.31422  Biso   1.000  C
  H403     1.0000 0.97133  0.21037  0.30667  Biso   1.000  H
  N90      1.0000 0.88023  0.12367  0.30714  Biso   1.000  N
  C584     1.0000 0.85163  0.06257  0.31607  Biso   1.000  C
  H404     1.0000 0.81063  0.02527  0.31117  Biso   1.000  H
  C585     1.0000 0.87953  0.05187  0.33215  Biso   1.000  C
  H405     1.0000 0.85883  0.00707  0.33737  Biso   1.000  H
  Ag46     1.0000 0.86288  0.69737  0.28310  Biso   1.000  Ag
  O91      1.0000 0.71509  0.41191  0.22293  Biso   1.000  O
  C586     1.0000 0.76900  0.46910  0.21874  Biso   1.000  C
  O92      1.0000 0.62190  0.25689  0.19197  Biso   1.000  O
  C587     1.0000 0.67600  0.19410  0.20199  Biso   1.000  C
  H406     1.0000 0.68760  0.16010  0.19890  Biso   1.000  H
  C588     1.0000 0.63400  0.20810  0.18968  Biso   1.000  C
  C589     1.0000 0.79190  0.52620  0.23257  Biso   1.000  C
  C590     1.0000 0.75520  0.51130  0.24957  Biso   1.000  C
  H407     1.0000 0.53360  0.25160  0.25200  Biso   1.000  H
  C591     1.0000 0.77340  0.56030  0.26203  Biso   1.000  C
  H408     1.0000 0.45010  0.19840  0.27330  Biso   1.000  H
  N91      1.0000 0.82760  0.62630  0.25933  Biso   1.000  N
  C592     1.0000 0.36050  0.22510  0.24440  Biso   1.000  C
  H409     1.0000 0.31630  0.22010  0.24270  Biso   1.000  H
  C593     1.0000 0.41130  0.25760  0.23105  Biso   1.000  C
  H410     1.0000 0.40070  0.27480  0.22030  Biso   1.000  H
  C594     1.0000 0.83520  0.43660  0.17369  Biso   1.000  C
  C595     1.0000 0.87170  0.50170  0.16447  Biso   1.000  C
  H411     1.0000 0.87790  0.54210  0.17050  Biso   1.000  H
  C596     1.0000 0.89670  0.50540  0.14755  Biso   1.000  C
  H412     1.0000 0.90570  0.54370  0.14000  Biso   1.000  H
  N92      1.0000 0.91010  0.45700  0.14047  Biso   1.000  N
  C597     1.0000 0.87760  0.39590  0.14940  Biso   1.000  C
  H413     1.0000 0.88130  0.35860  0.14450  Biso   1.000  H
  C598     1.0000 0.83900  0.38520  0.16548  Biso   1.000  C
  H414     1.0000 0.81490  0.34040  0.17070  Biso   1.000  H
  Ag47     1.0000 0.52955  0.03070  0.61643  Biso   1.000  Ag
  O93      1.0000 0.38176  0.74524  0.55626  Biso   1.000  O
  C599     1.0000 0.43567  0.80243  0.55207  Biso   1.000  C
  O94      1.0000 0.28857  0.59022  0.52530  Biso   1.000  O
  C600     1.0000 0.34267  0.52743  0.53532  Biso   1.000  C
  H415     1.0000 0.35427  0.49343  0.53223  Biso   1.000  H
  C601     1.0000 0.30067  0.54143  0.52301  Biso   1.000  C
  C602     1.0000 0.45857  0.85953  0.56590  Biso   1.000  C
  C603     1.0000 0.42187  0.84463  0.58290  Biso   1.000  C
  H416     1.0000 0.20027  0.58493  0.58533  Biso   1.000  H
  C604     1.0000 0.44007  0.89363  0.59536  Biso   1.000  C
  H417     1.0000 0.11677  0.53173  0.60663  Biso   1.000  H
  N93      1.0000 0.49427  0.95963  0.59266  Biso   1.000  N
  C605     1.0000 0.02717  0.55843  0.57773  Biso   1.000  C
  H418     1.0000 0.98297  0.55343  0.57603  Biso   1.000  H
  C606     1.0000 0.07797  0.59093  0.56438  Biso   1.000  C
  H419     1.0000 0.06737  0.60813  0.55363  Biso   1.000  H
  C607     1.0000 0.50187  0.76993  0.50702  Biso   1.000  C
  C608     1.0000 0.53837  0.83503  0.49780  Biso   1.000  C
  H420     1.0000 0.54457  0.87543  0.50383  Biso   1.000  H
  C609     1.0000 0.56337  0.83873  0.48088  Biso   1.000  C
  H421     1.0000 0.57237  0.87703  0.47333  Biso   1.000  H
  N94      1.0000 0.57677  0.79033  0.47380  Biso   1.000  N
  C610     1.0000 0.54427  0.72923  0.48273  Biso   1.000  C
  H422     1.0000 0.54797  0.69193  0.47783  Biso   1.000  H
  C611     1.0000 0.50567  0.71853  0.49881  Biso   1.000  C
  H423     1.0000 0.48157  0.67373  0.50403  Biso   1.000  H
  Ag48     1.0000 0.19621  0.36404  0.94977  Biso   1.000  Ag
  O95      1.0000 0.04842  0.07858  0.88960  Biso   1.000  O
  C612     1.0000 0.10233  0.13577  0.88541  Biso   1.000  C
  O96      1.0000 0.95523  0.92356  0.85864  Biso   1.000  O
  C613     1.0000 0.00933  0.86077  0.86866  Biso   1.000  C
  H424     1.0000 0.02093  0.82677  0.86557  Biso   1.000  H
  C614     1.0000 0.96733  0.87477  0.85635  Biso   1.000  C
  C615     1.0000 0.12523  0.19287  0.89924  Biso   1.000  C
  C616     1.0000 0.08853  0.17797  0.91624  Biso   1.000  C
  H425     1.0000 0.86693  0.91827  0.91867  Biso   1.000  H
  C617     1.0000 0.10673  0.22697  0.92870  Biso   1.000  C
  H426     1.0000 0.78343  0.86507  0.93997  Biso   1.000  H
  N95      1.0000 0.16093  0.29297  0.92600  Biso   1.000  N
  C618     1.0000 0.69383  0.89177  0.91107  Biso   1.000  C
  H427     1.0000 0.64963  0.88677  0.90937  Biso   1.000  H
  C619     1.0000 0.74463  0.92427  0.89772  Biso   1.000  C
  H428     1.0000 0.73403  0.94147  0.88697  Biso   1.000  H
  C620     1.0000 0.16853  0.10327  0.84036  Biso   1.000  C
  C621     1.0000 0.20503  0.16837  0.83114  Biso   1.000  C
  H429     1.0000 0.21123  0.20877  0.83717  Biso   1.000  H
  C622     1.0000 0.23003  0.17207  0.81422  Biso   1.000  C
  H430     1.0000 0.23903  0.21037  0.80667  Biso   1.000  H
  N96      1.0000 0.24343  0.12367  0.80714  Biso   1.000  N
  C623     1.0000 0.21093  0.06257  0.81607  Biso   1.000  C
  H431     1.0000 0.21463  0.02527  0.81117  Biso   1.000  H
  C624     1.0000 0.17233  0.05187  0.83215  Biso   1.000  C
  H432     1.0000 0.14823  0.00707  0.83737  Biso   1.000  H
  Ag49     1.0000 0.83449  0.13712  0.28310  Biso   1.000  Ag
  O97      1.0000 0.69682  0.28491  0.22293  Biso   1.000  O
  C625     1.0000 0.70010  0.23100  0.21874  Biso   1.000  C
  O98      1.0000 0.63499  0.37810  0.19197  Biso   1.000  O
  C626     1.0000 0.51810  0.32400  0.20199  Biso   1.000  C
  H433     1.0000 0.47250  0.31240  0.19890  Biso   1.000  H
  C627     1.0000 0.57410  0.36600  0.18968  Biso   1.000  C
  C628     1.0000 0.73430  0.20810  0.23257  Biso   1.000  C
  C629     1.0000 0.75610  0.24480  0.24957  Biso   1.000  C
  H434     1.0000 0.71800  0.46640  0.25200  Biso   1.000  H
  C630     1.0000 0.78690  0.22660  0.26203  Biso   1.000  C
  H435     1.0000 0.74830  0.54990  0.27330  Biso   1.000  H
  N97      1.0000 0.79870  0.17240  0.25933  Biso   1.000  N
  C631     1.0000 0.86460  0.63950  0.24440  Biso   1.000  C
  H436     1.0000 0.90380  0.68370  0.24270  Biso   1.000  H
  C632     1.0000 0.84630  0.58870  0.23105  Biso   1.000  C
  H437     1.0000 0.87410  0.59930  0.22030  Biso   1.000  H
  C633     1.0000 0.60140  0.16480  0.17369  Biso   1.000  C
  C634     1.0000 0.63000  0.12830  0.16447  Biso   1.000  C
  H438     1.0000 0.66420  0.12210  0.17050  Biso   1.000  H
  C635     1.0000 0.60870  0.10330  0.14755  Biso   1.000  C
  H439     1.0000 0.63800  0.09430  0.14000  Biso   1.000  H
  N98      1.0000 0.54690  0.08990  0.14047  Biso   1.000  N
  C636     1.0000 0.51830  0.12240  0.14940  Biso   1.000  C
  H440     1.0000 0.47730  0.11870  0.14450  Biso   1.000  H
  C637     1.0000 0.54620  0.16100  0.16548  Biso   1.000  C
  H441     1.0000 0.52550  0.18510  0.17070  Biso   1.000  H
  Ag50     1.0000 0.50116  0.47045  0.61643  Biso   1.000  Ag
  O99      1.0000 0.36349  0.61824  0.55626  Biso   1.000  O
  C638     1.0000 0.36677  0.56433  0.55207  Biso   1.000  C
  O100     1.0000 0.30166  0.71143  0.52530  Biso   1.000  O
  C639     1.0000 0.18477  0.65733  0.53532  Biso   1.000  C
  H442     1.0000 0.13917  0.64573  0.53223  Biso   1.000  H
  C640     1.0000 0.24077  0.69933  0.52301  Biso   1.000  C
  C641     1.0000 0.40097  0.54143  0.56590  Biso   1.000  C
  C642     1.0000 0.42277  0.57813  0.58290  Biso   1.000  C
  H443     1.0000 0.38467  0.79973  0.58533  Biso   1.000  H
  C643     1.0000 0.45357  0.55993  0.59536  Biso   1.000  C
  H444     1.0000 0.41497  0.88323  0.60663  Biso   1.000  H
  N99      1.0000 0.46537  0.50573  0.59266  Biso   1.000  N
  C644     1.0000 0.53127  0.97283  0.57773  Biso   1.000  C
  H445     1.0000 0.57047  0.01703  0.57603  Biso   1.000  H
  C645     1.0000 0.51297  0.92203  0.56438  Biso   1.000  C
  H446     1.0000 0.54077  0.93263  0.55363  Biso   1.000  H
  C646     1.0000 0.26807  0.49813  0.50702  Biso   1.000  C
  C647     1.0000 0.29667  0.46163  0.49780  Biso   1.000  C
  H447     1.0000 0.33087  0.45543  0.50383  Biso   1.000  H
  C648     1.0000 0.27537  0.43663  0.48088  Biso   1.000  C
  H448     1.0000 0.30467  0.42763  0.47333  Biso   1.000  H
  N100     1.0000 0.21357  0.42323  0.47380  Biso   1.000  N
  C649     1.0000 0.18497  0.45573  0.48273  Biso   1.000  C
  H449     1.0000 0.14397  0.45203  0.47783  Biso   1.000  H
  C650     1.0000 0.21287  0.49433  0.49881  Biso   1.000  C
  H450     1.0000 0.19217  0.51843  0.50403  Biso   1.000  H
  Ag51     1.0000 0.16782  0.80379  0.94977  Biso   1.000  Ag
  O101     1.0000 0.03015  0.95158  0.88960  Biso   1.000  O
  C651     1.0000 0.03343  0.89767  0.88541  Biso   1.000  C
  O102     1.0000 0.96832  0.04477  0.85864  Biso   1.000  O
  C652     1.0000 0.85143  0.99067  0.86866  Biso   1.000  C
  H451     1.0000 0.80583  0.97907  0.86557  Biso   1.000  H
  C653     1.0000 0.90743  0.03267  0.85635  Biso   1.000  C
  C654     1.0000 0.06763  0.87477  0.89924  Biso   1.000  C
  C655     1.0000 0.08943  0.91147  0.91624  Biso   1.000  C
  H452     1.0000 0.05133  0.13307  0.91867  Biso   1.000  H
  C656     1.0000 0.12023  0.89327  0.92870  Biso   1.000  C
  H453     1.0000 0.08163  0.21657  0.93997  Biso   1.000  H
  N101     1.0000 0.13203  0.83907  0.92600  Biso   1.000  N
  C657     1.0000 0.19793  0.30617  0.91107  Biso   1.000  C
  H454     1.0000 0.23713  0.35037  0.90937  Biso   1.000  H
  C658     1.0000 0.17963  0.25537  0.89772  Biso   1.000  C
  H455     1.0000 0.20743  0.26597  0.88697  Biso   1.000  H
  C659     1.0000 0.93473  0.83147  0.84036  Biso   1.000  C
  C660     1.0000 0.96333  0.79497  0.83114  Biso   1.000  C
  H456     1.0000 0.99753  0.78877  0.83717  Biso   1.000  H
  C661     1.0000 0.94203  0.76997  0.81422  Biso   1.000  C
  H457     1.0000 0.97133  0.76097  0.80667  Biso   1.000  H
  N102     1.0000 0.88023  0.75657  0.80714  Biso   1.000  N
  C662     1.0000 0.85163  0.78907  0.81607  Biso   1.000  C
  H458     1.0000 0.81063  0.78537  0.81117  Biso   1.000  H
  C663     1.0000 0.87953  0.82767  0.83215  Biso   1.000  C
  H459     1.0000 0.85883  0.85177  0.83737  Biso   1.000  H
  Ag52     1.0000 0.30263  0.16551  0.28310  Biso   1.000  Ag
  O103     1.0000 0.58809  0.30318  0.22293  Biso   1.000  O
  C664     1.0000 0.53090  0.29990  0.21874  Biso   1.000  C
  O104     1.0000 0.74311  0.36501  0.19197  Biso   1.000  O
  C665     1.0000 0.80590  0.48190  0.20199  Biso   1.000  C
  H460     1.0000 0.83990  0.52750  0.19890  Biso   1.000  H
  C666     1.0000 0.79190  0.42590  0.18968  Biso   1.000  C
  C667     1.0000 0.47380  0.26570  0.23257  Biso   1.000  C
  C668     1.0000 0.48870  0.24390  0.24957  Biso   1.000  C
  H461     1.0000 0.74840  0.28200  0.25200  Biso   1.000  H
  C669     1.0000 0.43970  0.21310  0.26203  Biso   1.000  C
  H462     1.0000 0.80160  0.25170  0.27330  Biso   1.000  H
  N103     1.0000 0.37370  0.20130  0.25933  Biso   1.000  N
  C670     1.0000 0.77490  0.13540  0.24440  Biso   1.000  C
  H463     1.0000 0.77990  0.09620  0.24270  Biso   1.000  H
  C671     1.0000 0.74240  0.15370  0.23105  Biso   1.000  C
  H464     1.0000 0.72520  0.12590  0.22030  Biso   1.000  H
  C672     1.0000 0.56340  0.39860  0.17369  Biso   1.000  C
  C673     1.0000 0.49830  0.37000  0.16447  Biso   1.000  C
  H465     1.0000 0.45790  0.33580  0.17050  Biso   1.000  H
  C674     1.0000 0.49460  0.39130  0.14755  Biso   1.000  C
  H466     1.0000 0.45630  0.36200  0.14000  Biso   1.000  H
  N104     1.0000 0.54300  0.45310  0.14047  Biso   1.000  N
  C675     1.0000 0.60410  0.48170  0.14940  Biso   1.000  C
  H467     1.0000 0.64140  0.52270  0.14450  Biso   1.000  H
  C676     1.0000 0.61480  0.45380  0.16548  Biso   1.000  C
  H468     1.0000 0.65960  0.47450  0.17070  Biso   1.000  H
  Ag53     1.0000 0.96930  0.49884  0.61643  Biso   1.000  Ag
  O105     1.0000 0.25476  0.63651  0.55626  Biso   1.000  O
  C677     1.0000 0.19757  0.63323  0.55207  Biso   1.000  C
  O106     1.0000 0.40978  0.69834  0.52530  Biso   1.000  O
  C678     1.0000 0.47257  0.81523  0.53532  Biso   1.000  C
  H469     1.0000 0.50657  0.86083  0.53223  Biso   1.000  H
  C679     1.0000 0.45857  0.75923  0.52301  Biso   1.000  C
  C680     1.0000 0.14047  0.59903  0.56590  Biso   1.000  C
  C681     1.0000 0.15537  0.57723  0.58290  Biso   1.000  C
  H470     1.0000 0.41507  0.61533  0.58533  Biso   1.000  H
  C682     1.0000 0.10637  0.54643  0.59536  Biso   1.000  C
  H471     1.0000 0.46827  0.58503  0.60663  Biso   1.000  H
  N105     1.0000 0.04037  0.53463  0.59266  Biso   1.000  N
  C683     1.0000 0.44157  0.46873  0.57773  Biso   1.000  C
  H472     1.0000 0.44657  0.42953  0.57603  Biso   1.000  H
  C684     1.0000 0.40907  0.48703  0.56438  Biso   1.000  C
  H473     1.0000 0.39187  0.45923  0.55363  Biso   1.000  H
  C685     1.0000 0.23007  0.73193  0.50702  Biso   1.000  C
  C686     1.0000 0.16497  0.70333  0.49780  Biso   1.000  C
  H474     1.0000 0.12457  0.66913  0.50383  Biso   1.000  H
  C687     1.0000 0.16127  0.72463  0.48088  Biso   1.000  C
  H475     1.0000 0.12297  0.69533  0.47333  Biso   1.000  H
  N106     1.0000 0.20967  0.78643  0.47380  Biso   1.000  N
  C688     1.0000 0.27077  0.81503  0.48273  Biso   1.000  C
  H476     1.0000 0.30807  0.85603  0.47783  Biso   1.000  H
  C689     1.0000 0.28147  0.78713  0.49881  Biso   1.000  C
  H477     1.0000 0.32627  0.80783  0.50403  Biso   1.000  H
  Ag54     1.0000 0.63596  0.83218  0.94977  Biso   1.000  Ag
  O107     1.0000 0.92142  0.96985  0.88960  Biso   1.000  O
  C690     1.0000 0.86423  0.96657  0.88541  Biso   1.000  C
  O108     1.0000 0.07644  0.03168  0.85864  Biso   1.000  O
  C691     1.0000 0.13923  0.14857  0.86866  Biso   1.000  C
  H478     1.0000 0.17323  0.19417  0.86557  Biso   1.000  H
  C692     1.0000 0.12523  0.09257  0.85635  Biso   1.000  C
  C693     1.0000 0.80713  0.93237  0.89924  Biso   1.000  C
  C694     1.0000 0.82203  0.91057  0.91624  Biso   1.000  C
  H479     1.0000 0.08173  0.94867  0.91867  Biso   1.000  H
  C695     1.0000 0.77303  0.87977  0.92870  Biso   1.000  C
  H480     1.0000 0.13493  0.91837  0.93997  Biso   1.000  H
  N107     1.0000 0.70703  0.86797  0.92600  Biso   1.000  N
  C696     1.0000 0.10823  0.80207  0.91107  Biso   1.000  C
  H481     1.0000 0.11323  0.76287  0.90937  Biso   1.000  H
  C697     1.0000 0.07573  0.82037  0.89772  Biso   1.000  C
  H482     1.0000 0.05853  0.79257  0.88697  Biso   1.000  H
  C698     1.0000 0.89673  0.06527  0.84036  Biso   1.000  C
  C699     1.0000 0.83163  0.03667  0.83114  Biso   1.000  C
  H483     1.0000 0.79123  0.00247  0.83717  Biso   1.000  H
  C700     1.0000 0.82793  0.05797  0.81422  Biso   1.000  C
  H484     1.0000 0.78963  0.02867  0.80667  Biso   1.000  H
  N108     1.0000 0.87633  0.11977  0.80714  Biso   1.000  N
  C701     1.0000 0.93743  0.14837  0.81607  Biso   1.000  C
  H485     1.0000 0.97473  0.18937  0.81117  Biso   1.000  H
  C702     1.0000 0.94813  0.12047  0.83215  Biso   1.000  C
  H486     1.0000 0.99293  0.14117  0.83737  Biso   1.000  H
  Al13     1.0000 0.66667  0.33333  0.70812  Biso   1.000  Al
  Al14     1.0000 0.33333  0.66667  0.04145  Biso   1.000  Al
  Al15     1.0000 0.00000  0.00000  0.37479  Biso   1.000  Al
  Al16     1.0000 0.66667  0.33333  0.20812  Biso   1.000  Al
  Al17     1.0000 0.33333  0.66667  0.54145  Biso   1.000  Al
  Al18     1.0000 0.00000  0.00000  0.87479  Biso   1.000  Al
