data_image0
_cell_length_a       22.993
_cell_length_b       22.993
_cell_length_c       71.297
_cell_angle_alpha    90
_cell_angle_beta     90
_cell_angle_gamma    120

_symmetry_space_group_name_H-M    "P 1"
_symmetry_int_tables_number       1

loop_
  _symmetry_equiv_pos_as_xyz
  'x, y, z'

loop_
  _atom_site_label
  _atom_site_occupancy
  _atom_site_fract_x
  _atom_site_fract_y
  _atom_site_fract_z
  _atom_site_thermal_displace_type
  _atom_site_B_iso_or_equiv
  _atom_site_type_symbol
  Ag1      1.0000 0.02620  0.51138  0.50099  Biso   1.000  Ag
  O1       1.0000 0.25550  0.62310  0.42651  Biso   1.000  O
  C1       1.0000 0.20760  0.63700  0.42770  Biso   1.000  C
  O2       1.0000 0.29900  0.58590  0.39405  Biso   1.000  O
  C2       1.0000 0.32570  0.52440  0.41474  Biso   1.000  C
  H1       1.0000 0.31460  0.47980  0.41770  Biso   1.000  H
  C3       1.0000 0.30060  0.53210  0.39743  Biso   1.000  C
  N1       1.0000 0.08890  0.55660  0.47641  Biso   1.000  N
  C4       1.0000 0.15730  0.57890  0.47676  Biso   1.000  C
  H2       1.0000 0.17770  0.57540  0.48800  Biso   1.000  H
  C5       1.0000 0.19590  0.60650  0.46073  Biso   1.000  C
  H3       1.0000 0.24270  0.62180  0.46100  Biso   1.000  H
  C6       1.0000 0.16600  0.61170  0.44435  Biso   1.000  C
  C7       1.0000 0.49160  0.90240  0.44399  Biso   1.000  C
  H4       1.0000 0.51550  0.92280  0.43280  Biso   1.000  H
  C8       1.0000 0.50270  0.94100  0.46002  Biso   1.000  C
  H5       1.0000 0.53420  0.98780  0.45980  Biso   1.000  H
  N2       1.0000 0.17690  0.79720  0.35614  Biso   1.000  N
  C9       1.0000 0.22190  0.77520  0.35215  Biso   1.000  C
  H6       1.0000 0.24100  0.78160  0.34000  Biso   1.000  H
  C10      1.0000 0.23910  0.74390  0.36598  Biso   1.000  C
  H7       1.0000 0.26990  0.72880  0.36330  Biso   1.000  H
  C11      1.0000 0.21120  0.73450  0.38379  Biso   1.000  C
  C12      1.0000 0.16620  0.75650  0.38778  Biso   1.000  C
  H8       1.0000 0.14710  0.75010  0.40000  Biso   1.000  H
  C13      1.0000 0.14900  0.78780  0.37396  Biso   1.000  C
  H9       1.0000 0.11820  0.80290  0.37670  Biso   1.000  H
  Ag2      1.0000 0.69287  0.84471  0.83432  Biso   1.000  Ag
  O3       1.0000 0.92217  0.95643  0.75984  Biso   1.000  O
  C14      1.0000 0.87427  0.97033  0.76103  Biso   1.000  C
  O4       1.0000 0.96567  0.91923  0.72738  Biso   1.000  O
  C15      1.0000 0.99237  0.85773  0.74807  Biso   1.000  C
  H10      1.0000 0.98127  0.81313  0.75103  Biso   1.000  H
  C16      1.0000 0.96727  0.86543  0.73076  Biso   1.000  C
  N3       1.0000 0.75557  0.88993  0.80974  Biso   1.000  N
  C17      1.0000 0.82397  0.91223  0.81009  Biso   1.000  C
  H11      1.0000 0.84437  0.90873  0.82133  Biso   1.000  H
  C18      1.0000 0.86257  0.93983  0.79406  Biso   1.000  C
  H12      1.0000 0.90937  0.95513  0.79433  Biso   1.000  H
  C19      1.0000 0.83267  0.94503  0.77768  Biso   1.000  C
  C20      1.0000 0.15827  0.23573  0.77732  Biso   1.000  C
  H13      1.0000 0.18217  0.25613  0.76613  Biso   1.000  H
  C21      1.0000 0.16937  0.27433  0.79335  Biso   1.000  C
  H14      1.0000 0.20087  0.32113  0.79313  Biso   1.000  H
  N4       1.0000 0.84357  0.13053  0.68947  Biso   1.000  N
  C22      1.0000 0.88857  0.10853  0.68548  Biso   1.000  C
  H15      1.0000 0.90767  0.11493  0.67333  Biso   1.000  H
  C23      1.0000 0.90577  0.07723  0.69931  Biso   1.000  C
  H16      1.0000 0.93657  0.06213  0.69663  Biso   1.000  H
  C24      1.0000 0.87787  0.06783  0.71712  Biso   1.000  C
  C25      1.0000 0.83287  0.08983  0.72111  Biso   1.000  C
  H17      1.0000 0.81377  0.08343  0.73333  Biso   1.000  H
  C26      1.0000 0.81567  0.12113  0.70729  Biso   1.000  C
  H18      1.0000 0.78487  0.13623  0.71003  Biso   1.000  H
  Ag3      1.0000 0.35953  0.17805  0.16766  Biso   1.000  Ag
  O5       1.0000 0.58883  0.28977  0.09318  Biso   1.000  O
  C27      1.0000 0.54093  0.30367  0.09437  Biso   1.000  C
  O6       1.0000 0.63233  0.25257  0.06072  Biso   1.000  O
  C28      1.0000 0.65903  0.19107  0.08141  Biso   1.000  C
  H19      1.0000 0.64793  0.14647  0.08437  Biso   1.000  H
  C29      1.0000 0.63393  0.19877  0.06410  Biso   1.000  C
  N5       1.0000 0.42223  0.22327  0.14308  Biso   1.000  N
  C30      1.0000 0.49063  0.24557  0.14343  Biso   1.000  C
  H20      1.0000 0.51103  0.24207  0.15467  Biso   1.000  H
  C31      1.0000 0.52923  0.27317  0.12740  Biso   1.000  C
  H21      1.0000 0.57603  0.28847  0.12767  Biso   1.000  H
  C32      1.0000 0.49933  0.27837  0.11102  Biso   1.000  C
  C33      1.0000 0.82493  0.56907  0.11066  Biso   1.000  C
  H22      1.0000 0.84883  0.58947  0.09947  Biso   1.000  H
  C34      1.0000 0.83603  0.60767  0.12669  Biso   1.000  C
  H23      1.0000 0.86753  0.65447  0.12647  Biso   1.000  H
  N6       1.0000 0.51023  0.46387  0.02281  Biso   1.000  N
  C35      1.0000 0.55523  0.44187  0.01882  Biso   1.000  C
  H24      1.0000 0.57433  0.44827  0.00667  Biso   1.000  H
  C36      1.0000 0.57243  0.41057  0.03265  Biso   1.000  C
  H25      1.0000 0.60323  0.39547  0.02997  Biso   1.000  H
  C37      1.0000 0.54453  0.40117  0.05046  Biso   1.000  C
  C38      1.0000 0.49953  0.42317  0.05445  Biso   1.000  C
  H26      1.0000 0.48043  0.41677  0.06667  Biso   1.000  H
  C39      1.0000 0.48233  0.45447  0.04063  Biso   1.000  C
  H27      1.0000 0.45153  0.46957  0.04337  Biso   1.000  H
  Ag4      1.0000 0.48862  0.51482  0.50099  Biso   1.000  Ag
  O7       1.0000 0.37690  0.63240  0.42651  Biso   1.000  O
  C40      1.0000 0.36300  0.57060  0.42770  Biso   1.000  C
  O8       1.0000 0.41410  0.71310  0.39405  Biso   1.000  O
  C41      1.0000 0.47560  0.80130  0.41474  Biso   1.000  C
  H28      1.0000 0.52020  0.83480  0.41770  Biso   1.000  H
  C42      1.0000 0.46790  0.76850  0.39743  Biso   1.000  C
  N7       1.0000 0.44340  0.53230  0.47641  Biso   1.000  N
  C43      1.0000 0.42110  0.57840  0.47676  Biso   1.000  C
  H29      1.0000 0.42460  0.60230  0.48800  Biso   1.000  H
  C44      1.0000 0.39350  0.58940  0.46073  Biso   1.000  C
  H30      1.0000 0.37820  0.62090  0.46100  Biso   1.000  H
  C45      1.0000 0.38830  0.55430  0.44435  Biso   1.000  C
  C46      1.0000 0.09760  0.58920  0.44399  Biso   1.000  C
  H31      1.0000 0.07720  0.59270  0.43280  Biso   1.000  H
  C47      1.0000 0.05900  0.56170  0.46002  Biso   1.000  C
  H32      1.0000 0.01220  0.54640  0.45980  Biso   1.000  H
  N8       1.0000 0.20280  0.37970  0.35614  Biso   1.000  N
  C48      1.0000 0.22480  0.44670  0.35215  Biso   1.000  C
  H33      1.0000 0.21840  0.45940  0.34000  Biso   1.000  H
  C49      1.0000 0.25610  0.49520  0.36598  Biso   1.000  C
  H34      1.0000 0.27120  0.54110  0.36330  Biso   1.000  H
  C50      1.0000 0.26550  0.47670  0.38379  Biso   1.000  C
  C51      1.0000 0.24350  0.40970  0.38778  Biso   1.000  C
  H35      1.0000 0.24990  0.39700  0.40000  Biso   1.000  H
  C52      1.0000 0.21220  0.36120  0.37396  Biso   1.000  C
  H36      1.0000 0.19710  0.31530  0.37670  Biso   1.000  H
  Ag5      1.0000 0.15529  0.84815  0.83432  Biso   1.000  Ag
  O9       1.0000 0.04357  0.96573  0.75984  Biso   1.000  O
  C53      1.0000 0.02967  0.90393  0.76103  Biso   1.000  C
  O10      1.0000 0.08077  0.04643  0.72738  Biso   1.000  O
  C54      1.0000 0.14227  0.13463  0.74807  Biso   1.000  C
  H37      1.0000 0.18687  0.16813  0.75103  Biso   1.000  H
  C55      1.0000 0.13457  0.10183  0.73076  Biso   1.000  C
  N9       1.0000 0.11007  0.86563  0.80974  Biso   1.000  N
  C56      1.0000 0.08777  0.91173  0.81009  Biso   1.000  C
  H38      1.0000 0.09127  0.93563  0.82133  Biso   1.000  H
  C57      1.0000 0.06017  0.92273  0.79406  Biso   1.000  C
  H39      1.0000 0.04487  0.95423  0.79433  Biso   1.000  H
  C58      1.0000 0.05497  0.88763  0.77768  Biso   1.000  C
  C59      1.0000 0.76427  0.92253  0.77732  Biso   1.000  C
  H40      1.0000 0.74387  0.92603  0.76613  Biso   1.000  H
  C60      1.0000 0.72567  0.89503  0.79335  Biso   1.000  C
  H41      1.0000 0.67887  0.87973  0.79313  Biso   1.000  H
  N10      1.0000 0.86947  0.71303  0.68947  Biso   1.000  N
  C61      1.0000 0.89147  0.78003  0.68548  Biso   1.000  C
  H42      1.0000 0.88507  0.79273  0.67333  Biso   1.000  H
  C62      1.0000 0.92277  0.82853  0.69931  Biso   1.000  C
  H43      1.0000 0.93787  0.87443  0.69663  Biso   1.000  H
  C63      1.0000 0.93217  0.81003  0.71712  Biso   1.000  C
  C64      1.0000 0.91017  0.74303  0.72111  Biso   1.000  C
  H44      1.0000 0.91657  0.73033  0.73333  Biso   1.000  H
  C65      1.0000 0.87887  0.69453  0.70729  Biso   1.000  C
  H45      1.0000 0.86377  0.64863  0.71003  Biso   1.000  H
  Ag6      1.0000 0.82195  0.18149  0.16766  Biso   1.000  Ag
  O11      1.0000 0.71023  0.29907  0.09318  Biso   1.000  O
  C66      1.0000 0.69633  0.23727  0.09437  Biso   1.000  C
  O12      1.0000 0.74743  0.37977  0.06072  Biso   1.000  O
  C67      1.0000 0.80893  0.46797  0.08141  Biso   1.000  C
  H46      1.0000 0.85353  0.50147  0.08437  Biso   1.000  H
  C68      1.0000 0.80123  0.43517  0.06410  Biso   1.000  C
  N11      1.0000 0.77673  0.19897  0.14308  Biso   1.000  N
  C69      1.0000 0.75443  0.24507  0.14343  Biso   1.000  C
  H47      1.0000 0.75793  0.26897  0.15467  Biso   1.000  H
  C70      1.0000 0.72683  0.25607  0.12740  Biso   1.000  C
  H48      1.0000 0.71153  0.28757  0.12767  Biso   1.000  H
  C71      1.0000 0.72163  0.22097  0.11102  Biso   1.000  C
  C72      1.0000 0.43093  0.25587  0.11066  Biso   1.000  C
  H49      1.0000 0.41053  0.25937  0.09947  Biso   1.000  H
  C73      1.0000 0.39233  0.22837  0.12669  Biso   1.000  C
  H50      1.0000 0.34553  0.21307  0.12647  Biso   1.000  H
  N12      1.0000 0.53613  0.04637  0.02281  Biso   1.000  N
  C74      1.0000 0.55813  0.11337  0.01882  Biso   1.000  C
  H51      1.0000 0.55173  0.12607  0.00667  Biso   1.000  H
  C75      1.0000 0.58943  0.16187  0.03265  Biso   1.000  C
  H52      1.0000 0.60453  0.20777  0.02997  Biso   1.000  H
  C76      1.0000 0.59883  0.14337  0.05046  Biso   1.000  C
  C77      1.0000 0.57683  0.07637  0.05445  Biso   1.000  C
  H53      1.0000 0.58323  0.06367  0.06667  Biso   1.000  H
  C78      1.0000 0.54553  0.02787  0.04063  Biso   1.000  C
  H54      1.0000 0.53043  0.98197  0.04337  Biso   1.000  H
  Ag7      1.0000 0.48518  0.97380  0.50099  Biso   1.000  Ag
  O13      1.0000 0.36760  0.74450  0.42651  Biso   1.000  O
  C79      1.0000 0.42940  0.79240  0.42770  Biso   1.000  C
  O14      1.0000 0.28690  0.70100  0.39405  Biso   1.000  O
  C80      1.0000 0.19870  0.67430  0.41474  Biso   1.000  C
  H55      1.0000 0.16520  0.68540  0.41770  Biso   1.000  H
  C81      1.0000 0.23150  0.69940  0.39743  Biso   1.000  C
  N13      1.0000 0.46770  0.91110  0.47641  Biso   1.000  N
  C82      1.0000 0.42160  0.84270  0.47676  Biso   1.000  C
  H56      1.0000 0.39770  0.82230  0.48800  Biso   1.000  H
  C83      1.0000 0.41060  0.80410  0.46073  Biso   1.000  C
  H57      1.0000 0.37910  0.75730  0.46100  Biso   1.000  H
  C84      1.0000 0.44570  0.83400  0.44435  Biso   1.000  C
  C85      1.0000 0.41080  0.50840  0.44399  Biso   1.000  C
  H58      1.0000 0.40730  0.48450  0.43280  Biso   1.000  H
  C86      1.0000 0.43830  0.49730  0.46002  Biso   1.000  C
  H59      1.0000 0.45360  0.46580  0.45980  Biso   1.000  H
  N14      1.0000 0.62030  0.82310  0.35614  Biso   1.000  N
  C87      1.0000 0.55330  0.77810  0.35215  Biso   1.000  C
  H60      1.0000 0.54060  0.75900  0.34000  Biso   1.000  H
  C88      1.0000 0.50480  0.76090  0.36598  Biso   1.000  C
  H61      1.0000 0.45890  0.73010  0.36330  Biso   1.000  H
  C89      1.0000 0.52330  0.78880  0.38379  Biso   1.000  C
  C90      1.0000 0.59030  0.83380  0.38778  Biso   1.000  C
  H62      1.0000 0.60300  0.85290  0.40000  Biso   1.000  H
  C91      1.0000 0.63880  0.85100  0.37396  Biso   1.000  C
  H63      1.0000 0.68470  0.88180  0.37670  Biso   1.000  H
  Ag8      1.0000 0.15185  0.30713  0.83432  Biso   1.000  Ag
  O15      1.0000 0.03427  0.07783  0.75984  Biso   1.000  O
  C92      1.0000 0.09607  0.12573  0.76103  Biso   1.000  C
  O16      1.0000 0.95357  0.03433  0.72738  Biso   1.000  O
  C93      1.0000 0.86537  0.00763  0.74807  Biso   1.000  C
  H64      1.0000 0.83187  0.01873  0.75103  Biso   1.000  H
  C94      1.0000 0.89817  0.03273  0.73076  Biso   1.000  C
  N15      1.0000 0.13437  0.24443  0.80974  Biso   1.000  N
  C95      1.0000 0.08827  0.17603  0.81009  Biso   1.000  C
  H65      1.0000 0.06437  0.15563  0.82133  Biso   1.000  H
  C96      1.0000 0.07727  0.13743  0.79406  Biso   1.000  C
  H66      1.0000 0.04577  0.09063  0.79433  Biso   1.000  H
  C97      1.0000 0.11237  0.16733  0.77768  Biso   1.000  C
  C98      1.0000 0.07747  0.84173  0.77732  Biso   1.000  C
  H67      1.0000 0.07397  0.81783  0.76613  Biso   1.000  H
  C99      1.0000 0.10497  0.83063  0.79335  Biso   1.000  C
  H68      1.0000 0.12027  0.79913  0.79313  Biso   1.000  H
  N16      1.0000 0.28697  0.15643  0.68947  Biso   1.000  N
  C100     1.0000 0.21997  0.11143  0.68548  Biso   1.000  C
  H69      1.0000 0.20727  0.09233  0.67333  Biso   1.000  H
  C101     1.0000 0.17147  0.09423  0.69931  Biso   1.000  C
  H70      1.0000 0.12557  0.06343  0.69663  Biso   1.000  H
  C102     1.0000 0.18997  0.12213  0.71712  Biso   1.000  C
  C103     1.0000 0.25697  0.16713  0.72111  Biso   1.000  C
  H71      1.0000 0.26967  0.18623  0.73333  Biso   1.000  H
  C104     1.0000 0.30547  0.18433  0.70729  Biso   1.000  C
  H72      1.0000 0.35137  0.21513  0.71003  Biso   1.000  H
  Ag9      1.0000 0.81851  0.64047  0.16766  Biso   1.000  Ag
  O17      1.0000 0.70093  0.41117  0.09318  Biso   1.000  O
  C105     1.0000 0.76273  0.45907  0.09437  Biso   1.000  C
  O18      1.0000 0.62023  0.36767  0.06072  Biso   1.000  O
  C106     1.0000 0.53203  0.34097  0.08141  Biso   1.000  C
  H73      1.0000 0.49853  0.35207  0.08437  Biso   1.000  H
  C107     1.0000 0.56483  0.36607  0.06410  Biso   1.000  C
  N17      1.0000 0.80103  0.57777  0.14308  Biso   1.000  N
  C108     1.0000 0.75493  0.50937  0.14343  Biso   1.000  C
  H74      1.0000 0.73103  0.48897  0.15467  Biso   1.000  H
  C109     1.0000 0.74393  0.47077  0.12740  Biso   1.000  C
  H75      1.0000 0.71243  0.42397  0.12767  Biso   1.000  H
  C110     1.0000 0.77903  0.50067  0.11102  Biso   1.000  C
  C111     1.0000 0.74413  0.17507  0.11066  Biso   1.000  C
  H76      1.0000 0.74063  0.15117  0.09947  Biso   1.000  H
  C112     1.0000 0.77163  0.16397  0.12669  Biso   1.000  C
  H77      1.0000 0.78693  0.13247  0.12647  Biso   1.000  H
  N18      1.0000 0.95363  0.48977  0.02281  Biso   1.000  N
  C113     1.0000 0.88663  0.44477  0.01882  Biso   1.000  C
  H78      1.0000 0.87393  0.42567  0.00667  Biso   1.000  H
  C114     1.0000 0.83813  0.42757  0.03265  Biso   1.000  C
  H79      1.0000 0.79223  0.39677  0.02997  Biso   1.000  H
  C115     1.0000 0.85663  0.45547  0.05046  Biso   1.000  C
  C116     1.0000 0.92363  0.50047  0.05445  Biso   1.000  C
  H80      1.0000 0.93633  0.51957  0.06667  Biso   1.000  H
  C117     1.0000 0.97213  0.51767  0.04063  Biso   1.000  C
  H81      1.0000 0.01803  0.54847  0.04337  Biso   1.000  H
  Ag10     1.0000 0.48862  0.97380  0.00099  Biso   1.000  Ag
  O19      1.0000 0.37690  0.74450  0.92651  Biso   1.000  O
  C118     1.0000 0.36300  0.79240  0.92770  Biso   1.000  C
  O20      1.0000 0.41410  0.70100  0.89405  Biso   1.000  O
  C119     1.0000 0.47560  0.67430  0.91474  Biso   1.000  C
  H82      1.0000 0.52020  0.68540  0.91770  Biso   1.000  H
  C120     1.0000 0.46790  0.69940  0.89743  Biso   1.000  C
  N19      1.0000 0.44340  0.91110  0.97641  Biso   1.000  N
  C121     1.0000 0.42110  0.84270  0.97676  Biso   1.000  C
  H83      1.0000 0.42460  0.82230  0.98800  Biso   1.000  H
  C122     1.0000 0.39350  0.80410  0.96073  Biso   1.000  C
  H84      1.0000 0.37820  0.75730  0.96100  Biso   1.000  H
  C123     1.0000 0.38830  0.83400  0.94435  Biso   1.000  C
  C124     1.0000 0.09760  0.50840  0.94399  Biso   1.000  C
  H85      1.0000 0.07720  0.48450  0.93280  Biso   1.000  H
  C125     1.0000 0.05900  0.49730  0.96002  Biso   1.000  C
  H86      1.0000 0.01220  0.46580  0.95980  Biso   1.000  H
  N20      1.0000 0.20280  0.82310  0.85614  Biso   1.000  N
  C126     1.0000 0.22480  0.77810  0.85215  Biso   1.000  C
  H87      1.0000 0.21840  0.75900  0.84000  Biso   1.000  H
  C127     1.0000 0.25610  0.76090  0.86598  Biso   1.000  C
  H88      1.0000 0.27120  0.73010  0.86330  Biso   1.000  H
  C128     1.0000 0.26550  0.78880  0.88379  Biso   1.000  C
  C129     1.0000 0.24350  0.83380  0.88778  Biso   1.000  C
  H89      1.0000 0.24990  0.85290  0.90000  Biso   1.000  H
  C130     1.0000 0.21220  0.85100  0.87396  Biso   1.000  C
  H90      1.0000 0.19710  0.88180  0.87670  Biso   1.000  H
  Ag11     1.0000 0.15529  0.30713  0.33432  Biso   1.000  Ag
  O21      1.0000 0.04357  0.07783  0.25984  Biso   1.000  O
  C131     1.0000 0.02967  0.12573  0.26103  Biso   1.000  C
  O22      1.0000 0.08077  0.03433  0.22738  Biso   1.000  O
  C132     1.0000 0.14227  0.00763  0.24807  Biso   1.000  C
  H91      1.0000 0.18687  0.01873  0.25103  Biso   1.000  H
  C133     1.0000 0.13457  0.03273  0.23076  Biso   1.000  C
  N21      1.0000 0.11007  0.24443  0.30974  Biso   1.000  N
  C134     1.0000 0.08777  0.17603  0.31009  Biso   1.000  C
  H92      1.0000 0.09127  0.15563  0.32133  Biso   1.000  H
  C135     1.0000 0.06017  0.13743  0.29406  Biso   1.000  C
  H93      1.0000 0.04487  0.09063  0.29433  Biso   1.000  H
  C136     1.0000 0.05497  0.16733  0.27768  Biso   1.000  C
  C137     1.0000 0.76427  0.84173  0.27732  Biso   1.000  C
  H94      1.0000 0.74387  0.81783  0.26613  Biso   1.000  H
  C138     1.0000 0.72567  0.83063  0.29335  Biso   1.000  C
  H95      1.0000 0.67887  0.79913  0.29313  Biso   1.000  H
  N22      1.0000 0.86947  0.15643  0.18947  Biso   1.000  N
  C139     1.0000 0.89147  0.11143  0.18548  Biso   1.000  C
  H96      1.0000 0.88507  0.09233  0.17333  Biso   1.000  H
  C140     1.0000 0.92277  0.09423  0.19931  Biso   1.000  C
  H97      1.0000 0.93787  0.06343  0.19663  Biso   1.000  H
  C141     1.0000 0.93217  0.12213  0.21712  Biso   1.000  C
  C142     1.0000 0.91017  0.16713  0.22111  Biso   1.000  C
  H98      1.0000 0.91657  0.18623  0.23333  Biso   1.000  H
  C143     1.0000 0.87887  0.18433  0.20729  Biso   1.000  C
  H99      1.0000 0.86377  0.21513  0.21003  Biso   1.000  H
  Ag12     1.0000 0.82195  0.64047  0.66766  Biso   1.000  Ag
  O23      1.0000 0.71023  0.41117  0.59318  Biso   1.000  O
  C144     1.0000 0.69633  0.45907  0.59437  Biso   1.000  C
  O24      1.0000 0.74743  0.36767  0.56072  Biso   1.000  O
  C145     1.0000 0.80893  0.34097  0.58141  Biso   1.000  C
  H100     1.0000 0.85353  0.35207  0.58437  Biso   1.000  H
  C146     1.0000 0.80123  0.36607  0.56410  Biso   1.000  C
  N23      1.0000 0.77673  0.57777  0.64308  Biso   1.000  N
  C147     1.0000 0.75443  0.50937  0.64343  Biso   1.000  C
  H101     1.0000 0.75793  0.48897  0.65467  Biso   1.000  H
  C148     1.0000 0.72683  0.47077  0.62740  Biso   1.000  C
  H102     1.0000 0.71153  0.42397  0.62767  Biso   1.000  H
  C149     1.0000 0.72163  0.50067  0.61102  Biso   1.000  C
  C150     1.0000 0.43093  0.17507  0.61066  Biso   1.000  C
  H103     1.0000 0.41053  0.15117  0.59947  Biso   1.000  H
  C151     1.0000 0.39233  0.16397  0.62669  Biso   1.000  C
  H104     1.0000 0.34553  0.13247  0.62647  Biso   1.000  H
  N24      1.0000 0.53613  0.48977  0.52281  Biso   1.000  N
  C152     1.0000 0.55813  0.44477  0.51882  Biso   1.000  C
  H105     1.0000 0.55173  0.42567  0.50667  Biso   1.000  H
  C153     1.0000 0.58943  0.42757  0.53265  Biso   1.000  C
  H106     1.0000 0.60453  0.39677  0.52997  Biso   1.000  H
  C154     1.0000 0.59883  0.45547  0.55046  Biso   1.000  C
  C155     1.0000 0.57683  0.50047  0.55445  Biso   1.000  C
  H107     1.0000 0.58323  0.51957  0.56667  Biso   1.000  H
  C156     1.0000 0.54553  0.51767  0.54063  Biso   1.000  C
  H108     1.0000 0.53043  0.54847  0.54337  Biso   1.000  H
  Ag13     1.0000 0.48518  0.51138  0.00099  Biso   1.000  Ag
  O25      1.0000 0.36760  0.62310  0.92651  Biso   1.000  O
  C157     1.0000 0.42940  0.63700  0.92770  Biso   1.000  C
  O26      1.0000 0.28690  0.58590  0.89405  Biso   1.000  O
  C158     1.0000 0.19870  0.52440  0.91474  Biso   1.000  C
  H109     1.0000 0.16520  0.47980  0.91770  Biso   1.000  H
  C159     1.0000 0.23150  0.53210  0.89743  Biso   1.000  C
  N25      1.0000 0.46770  0.55660  0.97641  Biso   1.000  N
  C160     1.0000 0.42160  0.57890  0.97676  Biso   1.000  C
  H110     1.0000 0.39770  0.57540  0.98800  Biso   1.000  H
  C161     1.0000 0.41060  0.60650  0.96073  Biso   1.000  C
  H111     1.0000 0.37910  0.62180  0.96100  Biso   1.000  H
  C162     1.0000 0.44570  0.61170  0.94435  Biso   1.000  C
  C163     1.0000 0.41080  0.90240  0.94399  Biso   1.000  C
  H112     1.0000 0.40730  0.92280  0.93280  Biso   1.000  H
  C164     1.0000 0.43830  0.94100  0.96002  Biso   1.000  C
  H113     1.0000 0.45360  0.98780  0.95980  Biso   1.000  H
  N26      1.0000 0.62030  0.79720  0.85614  Biso   1.000  N
  C165     1.0000 0.55330  0.77520  0.85215  Biso   1.000  C
  H114     1.0000 0.54060  0.78160  0.84000  Biso   1.000  H
  C166     1.0000 0.50480  0.74390  0.86598  Biso   1.000  C
  H115     1.0000 0.45890  0.72880  0.86330  Biso   1.000  H
  C167     1.0000 0.52330  0.73450  0.88379  Biso   1.000  C
  C168     1.0000 0.59030  0.75650  0.88778  Biso   1.000  C
  H116     1.0000 0.60300  0.75010  0.90000  Biso   1.000  H
  C169     1.0000 0.63880  0.78780  0.87396  Biso   1.000  C
  H117     1.0000 0.68470  0.80290  0.87670  Biso   1.000  H
  Ag14     1.0000 0.15185  0.84471  0.33432  Biso   1.000  Ag
  O27      1.0000 0.03427  0.95643  0.25984  Biso   1.000  O
  C170     1.0000 0.09607  0.97033  0.26103  Biso   1.000  C
  O28      1.0000 0.95357  0.91923  0.22738  Biso   1.000  O
  C171     1.0000 0.86537  0.85773  0.24807  Biso   1.000  C
  H118     1.0000 0.83187  0.81313  0.25103  Biso   1.000  H
  C172     1.0000 0.89817  0.86543  0.23076  Biso   1.000  C
  N27      1.0000 0.13437  0.88993  0.30974  Biso   1.000  N
  C173     1.0000 0.08827  0.91223  0.31009  Biso   1.000  C
  H119     1.0000 0.06437  0.90873  0.32133  Biso   1.000  H
  C174     1.0000 0.07727  0.93983  0.29406  Biso   1.000  C
  H120     1.0000 0.04577  0.95513  0.29433  Biso   1.000  H
  C175     1.0000 0.11237  0.94503  0.27768  Biso   1.000  C
  C176     1.0000 0.07747  0.23573  0.27732  Biso   1.000  C
  H121     1.0000 0.07397  0.25613  0.26613  Biso   1.000  H
  C177     1.0000 0.10497  0.27433  0.29335  Biso   1.000  C
  H122     1.0000 0.12027  0.32113  0.29313  Biso   1.000  H
  N28      1.0000 0.28697  0.13053  0.18947  Biso   1.000  N
  C178     1.0000 0.21997  0.10853  0.18548  Biso   1.000  C
  H123     1.0000 0.20727  0.11493  0.17333  Biso   1.000  H
  C179     1.0000 0.17147  0.07723  0.19931  Biso   1.000  C
  H124     1.0000 0.12557  0.06213  0.19663  Biso   1.000  H
  C180     1.0000 0.18997  0.06783  0.21712  Biso   1.000  C
  C181     1.0000 0.25697  0.08983  0.22111  Biso   1.000  C
  H125     1.0000 0.26967  0.08343  0.23333  Biso   1.000  H
  C182     1.0000 0.30547  0.12113  0.20729  Biso   1.000  C
  H126     1.0000 0.35137  0.13623  0.21003  Biso   1.000  H
  Ag15     1.0000 0.81851  0.17805  0.66766  Biso   1.000  Ag
  O29      1.0000 0.70093  0.28977  0.59318  Biso   1.000  O
  C183     1.0000 0.76273  0.30367  0.59437  Biso   1.000  C
  O30      1.0000 0.62023  0.25257  0.56072  Biso   1.000  O
  C184     1.0000 0.53203  0.19107  0.58141  Biso   1.000  C
  H127     1.0000 0.49853  0.14647  0.58437  Biso   1.000  H
  C185     1.0000 0.56483  0.19877  0.56410  Biso   1.000  C
  N29      1.0000 0.80103  0.22327  0.64308  Biso   1.000  N
  C186     1.0000 0.75493  0.24557  0.64343  Biso   1.000  C
  H128     1.0000 0.73103  0.24207  0.65467  Biso   1.000  H
  C187     1.0000 0.74393  0.27317  0.62740  Biso   1.000  C
  H129     1.0000 0.71243  0.28847  0.62767  Biso   1.000  H
  C188     1.0000 0.77903  0.27837  0.61102  Biso   1.000  C
  C189     1.0000 0.74413  0.56907  0.61066  Biso   1.000  C
  H130     1.0000 0.74063  0.58947  0.59947  Biso   1.000  H
  C190     1.0000 0.77163  0.60767  0.62669  Biso   1.000  C
  H131     1.0000 0.78693  0.65447  0.62647  Biso   1.000  H
  N30      1.0000 0.95363  0.46387  0.52281  Biso   1.000  N
  C191     1.0000 0.88663  0.44187  0.51882  Biso   1.000  C
  H132     1.0000 0.87393  0.44827  0.50667  Biso   1.000  H
  C192     1.0000 0.83813  0.41057  0.53265  Biso   1.000  C
  H133     1.0000 0.79223  0.39547  0.52997  Biso   1.000  H
  C193     1.0000 0.85663  0.40117  0.55046  Biso   1.000  C
  C194     1.0000 0.92363  0.42317  0.55445  Biso   1.000  C
  H134     1.0000 0.93633  0.41677  0.56667  Biso   1.000  H
  C195     1.0000 0.97213  0.45447  0.54063  Biso   1.000  C
  H135     1.0000 0.01803  0.46957  0.54337  Biso   1.000  H
  Ag16     1.0000 0.02620  0.51482  0.00099  Biso   1.000  Ag
  O31      1.0000 0.25550  0.63240  0.92651  Biso   1.000  O
  C196     1.0000 0.20760  0.57060  0.92770  Biso   1.000  C
  O32      1.0000 0.29900  0.71310  0.89405  Biso   1.000  O
  C197     1.0000 0.32570  0.80130  0.91474  Biso   1.000  C
  H136     1.0000 0.31460  0.83480  0.91770  Biso   1.000  H
  C198     1.0000 0.30060  0.76850  0.89743  Biso   1.000  C
  N31      1.0000 0.08890  0.53230  0.97641  Biso   1.000  N
  C199     1.0000 0.15730  0.57840  0.97676  Biso   1.000  C
  H137     1.0000 0.17770  0.60230  0.98800  Biso   1.000  H
  C200     1.0000 0.19590  0.58940  0.96073  Biso   1.000  C
  H138     1.0000 0.24270  0.62090  0.96100  Biso   1.000  H
  C201     1.0000 0.16600  0.55430  0.94435  Biso   1.000  C
  C202     1.0000 0.49160  0.58920  0.94399  Biso   1.000  C
  H139     1.0000 0.51550  0.59270  0.93280  Biso   1.000  H
  C203     1.0000 0.50270  0.56170  0.96002  Biso   1.000  C
  H140     1.0000 0.53420  0.54640  0.95980  Biso   1.000  H
  N32      1.0000 0.17690  0.37970  0.85614  Biso   1.000  N
  C204     1.0000 0.22190  0.44670  0.85215  Biso   1.000  C
  H141     1.0000 0.24100  0.45940  0.84000  Biso   1.000  H
  C205     1.0000 0.23910  0.49520  0.86598  Biso   1.000  C
  H142     1.0000 0.26990  0.54110  0.86330  Biso   1.000  H
  C206     1.0000 0.21120  0.47670  0.88379  Biso   1.000  C
  C207     1.0000 0.16620  0.40970  0.88778  Biso   1.000  C
  H143     1.0000 0.14710  0.39700  0.90000  Biso   1.000  H
  C208     1.0000 0.14900  0.36120  0.87396  Biso   1.000  C
  H144     1.0000 0.11820  0.31530  0.87670  Biso   1.000  H
  Ag17     1.0000 0.69287  0.84815  0.33432  Biso   1.000  Ag
  O33      1.0000 0.92217  0.96573  0.25984  Biso   1.000  O
  C209     1.0000 0.87427  0.90393  0.26103  Biso   1.000  C
  O34      1.0000 0.96567  0.04643  0.22738  Biso   1.000  O
  C210     1.0000 0.99237  0.13463  0.24807  Biso   1.000  C
  H145     1.0000 0.98127  0.16813  0.25103  Biso   1.000  H
  C211     1.0000 0.96727  0.10183  0.23076  Biso   1.000  C
  N33      1.0000 0.75557  0.86563  0.30974  Biso   1.000  N
  C212     1.0000 0.82397  0.91173  0.31009  Biso   1.000  C
  H146     1.0000 0.84437  0.93563  0.32133  Biso   1.000  H
  C213     1.0000 0.86257  0.92273  0.29406  Biso   1.000  C
  H147     1.0000 0.90937  0.95423  0.29433  Biso   1.000  H
  C214     1.0000 0.83267  0.88763  0.27768  Biso   1.000  C
  C215     1.0000 0.15827  0.92253  0.27732  Biso   1.000  C
  H148     1.0000 0.18217  0.92603  0.26613  Biso   1.000  H
  C216     1.0000 0.16937  0.89503  0.29335  Biso   1.000  C
  H149     1.0000 0.20087  0.87973  0.29313  Biso   1.000  H
  N34      1.0000 0.84357  0.71303  0.18947  Biso   1.000  N
  C217     1.0000 0.88857  0.78003  0.18548  Biso   1.000  C
  H150     1.0000 0.90767  0.79273  0.17333  Biso   1.000  H
  C218     1.0000 0.90577  0.82853  0.19931  Biso   1.000  C
  H151     1.0000 0.93657  0.87443  0.19663  Biso   1.000  H
  C219     1.0000 0.87787  0.81003  0.21712  Biso   1.000  C
  C220     1.0000 0.83287  0.74303  0.22111  Biso   1.000  C
  H152     1.0000 0.81377  0.73033  0.23333  Biso   1.000  H
  C221     1.0000 0.81567  0.69453  0.20729  Biso   1.000  C
  H153     1.0000 0.78487  0.64863  0.21003  Biso   1.000  H
  Ag18     1.0000 0.35953  0.18149  0.66766  Biso   1.000  Ag
  O35      1.0000 0.58883  0.29907  0.59318  Biso   1.000  O
  C222     1.0000 0.54093  0.23727  0.59437  Biso   1.000  C
  O36      1.0000 0.63233  0.37977  0.56072  Biso   1.000  O
  C223     1.0000 0.65903  0.46797  0.58141  Biso   1.000  C
  H154     1.0000 0.64793  0.50147  0.58437  Biso   1.000  H
  C224     1.0000 0.63393  0.43517  0.56410  Biso   1.000  C
  N35      1.0000 0.42223  0.19897  0.64308  Biso   1.000  N
  C225     1.0000 0.49063  0.24507  0.64343  Biso   1.000  C
  H155     1.0000 0.51103  0.26897  0.65467  Biso   1.000  H
  C226     1.0000 0.52923  0.25607  0.62740  Biso   1.000  C
  H156     1.0000 0.57603  0.28757  0.62767  Biso   1.000  H
  C227     1.0000 0.49933  0.22097  0.61102  Biso   1.000  C
  C228     1.0000 0.82493  0.25587  0.61066  Biso   1.000  C
  H157     1.0000 0.84883  0.25937  0.59947  Biso   1.000  H
  C229     1.0000 0.83603  0.22837  0.62669  Biso   1.000  C
  H158     1.0000 0.86753  0.21307  0.62647  Biso   1.000  H
  N36      1.0000 0.51023  0.04637  0.52281  Biso   1.000  N
  C230     1.0000 0.55523  0.11337  0.51882  Biso   1.000  C
  H159     1.0000 0.57433  0.12607  0.50667  Biso   1.000  H
  C231     1.0000 0.57243  0.16187  0.53265  Biso   1.000  C
  H160     1.0000 0.60323  0.20777  0.52997  Biso   1.000  H
  C232     1.0000 0.54453  0.14337  0.55046  Biso   1.000  C
  C233     1.0000 0.49953  0.07637  0.55445  Biso   1.000  C
  H161     1.0000 0.48043  0.06367  0.56667  Biso   1.000  H
  C234     1.0000 0.48233  0.02787  0.54063  Biso   1.000  C
  H162     1.0000 0.45153  0.98197  0.54337  Biso   1.000  H
  Ga1      1.0000 0.33333  0.66667  0.40969  Biso   1.000  Ga
  Ga2      1.0000 0.00000  0.00000  0.74302  Biso   1.000  Ga
  Ga3      1.0000 0.66667  0.33333  0.07636  Biso   1.000  Ga
  Ga4      1.0000 0.33333  0.66667  0.90969  Biso   1.000  Ga
  Ga5      1.0000 0.00000  0.00000  0.24302  Biso   1.000  Ga
  Ga6      1.0000 0.66667  0.33333  0.57636  Biso   1.000  Ga
  Ag19     1.0000 0.99845  0.46166  0.40412  Biso   1.000  Ag
  O37      1.0000 0.25570  0.62270  0.33772  Biso   1.000  O
  O38      1.0000 0.30310  0.58860  0.30482  Biso   1.000  O
  C235     1.0000 0.19640  0.61620  0.33451  Biso   1.000  C
  C236     1.0000 0.35690  0.53440  0.32047  Biso   1.000  C
  H163     1.0000 0.36390  0.49710  0.32000  Biso   1.000  H
  C237     1.0000 0.31890  0.54330  0.30674  Biso   1.000  C
  N37      1.0000 0.06280  0.51600  0.38092  Biso   1.000  N
  C238     1.0000 0.03640  0.51950  0.36369  Biso   1.000  C
  H164     1.0000 0.98930  0.50090  0.36230  Biso   1.000  H
  C239     1.0000 0.07890  0.55020  0.34853  Biso   1.000  C
  H165     1.0000 0.06080  0.55260  0.33680  Biso   1.000  H
  C240     1.0000 0.14780  0.57750  0.35060  Biso   1.000  C
  C241     1.0000 0.39970  0.82580  0.36783  Biso   1.000  C
  H166     1.0000 0.37120  0.77870  0.36930  Biso   1.000  H
  C242     1.0000 0.41150  0.86830  0.38299  Biso   1.000  C
  H167     1.0000 0.39110  0.85030  0.39480  Biso   1.000  H
  N38      1.0000 0.16530  0.76820  0.26203  Biso   1.000  N
  C243     1.0000 0.12580  0.74410  0.27805  Biso   1.000  C
  H168     1.0000 0.08620  0.74720  0.27920  Biso   1.000  H
  C244     1.0000 0.14420  0.71560  0.29238  Biso   1.000  C
  H169     1.0000 0.11720  0.69910  0.30340  Biso   1.000  H
  C245     1.0000 0.20200  0.71110  0.29071  Biso   1.000  C
  C246     1.0000 0.24150  0.73510  0.27469  Biso   1.000  C
  H170     1.0000 0.28100  0.73210  0.27360  Biso   1.000  H
  C247     1.0000 0.22310  0.76370  0.26035  Biso   1.000  C
  H171     1.0000 0.25010  0.78010  0.24940  Biso   1.000  H
  Ag20     1.0000 0.66512  0.79499  0.73745  Biso   1.000  Ag
  O39      1.0000 0.92237  0.95603  0.67105  Biso   1.000  O
  O40      1.0000 0.96977  0.92193  0.63815  Biso   1.000  O
  C248     1.0000 0.86307  0.94953  0.66784  Biso   1.000  C
  C249     1.0000 0.02357  0.86773  0.65380  Biso   1.000  C
  H172     1.0000 0.03057  0.83043  0.65333  Biso   1.000  H
  C250     1.0000 0.98557  0.87663  0.64007  Biso   1.000  C
  N39      1.0000 0.72947  0.84933  0.71425  Biso   1.000  N
  C251     1.0000 0.70307  0.85283  0.69702  Biso   1.000  C
  H173     1.0000 0.65597  0.83423  0.69563  Biso   1.000  H
  C252     1.0000 0.74557  0.88353  0.68186  Biso   1.000  C
  H174     1.0000 0.72747  0.88593  0.67013  Biso   1.000  H
  C253     1.0000 0.81447  0.91083  0.68393  Biso   1.000  C
  C254     1.0000 0.06637  0.15913  0.70116  Biso   1.000  C
  H175     1.0000 0.03787  0.11203  0.70263  Biso   1.000  H
  C255     1.0000 0.07817  0.20163  0.71632  Biso   1.000  C
  H176     1.0000 0.05777  0.18363  0.72813  Biso   1.000  H
  N40      1.0000 0.83197  0.10153  0.59536  Biso   1.000  N
  C256     1.0000 0.79247  0.07743  0.61138  Biso   1.000  C
  H177     1.0000 0.75287  0.08053  0.61253  Biso   1.000  H
  C257     1.0000 0.81087  0.04893  0.62571  Biso   1.000  C
  H178     1.0000 0.78387  0.03243  0.63673  Biso   1.000  H
  C258     1.0000 0.86867  0.04443  0.62404  Biso   1.000  C
  C259     1.0000 0.90817  0.06843  0.60802  Biso   1.000  C
  H179     1.0000 0.94767  0.06543  0.60693  Biso   1.000  H
  C260     1.0000 0.88977  0.09703  0.59368  Biso   1.000  C
  H180     1.0000 0.91677  0.11343  0.58273  Biso   1.000  H
  Ag21     1.0000 0.33178  0.12833  0.07079  Biso   1.000  Ag
  O41      1.0000 0.58903  0.28937  0.00439  Biso   1.000  O
  O42      1.0000 0.63643  0.25527  0.97149  Biso   1.000  O
  C261     1.0000 0.52973  0.28287  0.00118  Biso   1.000  C
  C262     1.0000 0.69023  0.20107  0.98714  Biso   1.000  C
  H181     1.0000 0.69723  0.16377  0.98667  Biso   1.000  H
  C263     1.0000 0.65223  0.20997  0.97341  Biso   1.000  C
  N41      1.0000 0.39613  0.18267  0.04759  Biso   1.000  N
  C264     1.0000 0.36973  0.18617  0.03036  Biso   1.000  C
  H182     1.0000 0.32263  0.16757  0.02897  Biso   1.000  H
  C265     1.0000 0.41223  0.21687  0.01520  Biso   1.000  C
  H183     1.0000 0.39413  0.21927  0.00347  Biso   1.000  H
  C266     1.0000 0.48113  0.24417  0.01727  Biso   1.000  C
  C267     1.0000 0.73303  0.49247  0.03450  Biso   1.000  C
  H184     1.0000 0.70453  0.44537  0.03597  Biso   1.000  H
  C268     1.0000 0.74483  0.53497  0.04966  Biso   1.000  C
  H185     1.0000 0.72443  0.51697  0.06147  Biso   1.000  H
  N42      1.0000 0.49863  0.43487  0.92870  Biso   1.000  N
  C269     1.0000 0.45913  0.41077  0.94472  Biso   1.000  C
  H186     1.0000 0.41953  0.41387  0.94587  Biso   1.000  H
  C270     1.0000 0.47753  0.38227  0.95905  Biso   1.000  C
  H187     1.0000 0.45053  0.36577  0.97007  Biso   1.000  H
  C271     1.0000 0.53533  0.37777  0.95738  Biso   1.000  C
  C272     1.0000 0.57483  0.40177  0.94136  Biso   1.000  C
  H188     1.0000 0.61433  0.39877  0.94027  Biso   1.000  H
  C273     1.0000 0.55643  0.43037  0.92702  Biso   1.000  C
  H189     1.0000 0.58343  0.44677  0.91607  Biso   1.000  H
  Ag22     1.0000 0.53834  0.53679  0.40412  Biso   1.000  Ag
  O43      1.0000 0.37730  0.63300  0.33772  Biso   1.000  O
  O44      1.0000 0.41140  0.71450  0.30482  Biso   1.000  O
  C274     1.0000 0.38380  0.58020  0.33451  Biso   1.000  C
  C275     1.0000 0.46560  0.82250  0.32047  Biso   1.000  C
  H190     1.0000 0.50290  0.86680  0.32000  Biso   1.000  H
  C276     1.0000 0.45670  0.77560  0.30674  Biso   1.000  C
  N43      1.0000 0.48400  0.54680  0.38092  Biso   1.000  N
  C277     1.0000 0.48050  0.51690  0.36369  Biso   1.000  C
  H191     1.0000 0.49910  0.48840  0.36230  Biso   1.000  H
  C278     1.0000 0.44980  0.52870  0.34853  Biso   1.000  C
  H192     1.0000 0.44740  0.50820  0.33680  Biso   1.000  H
  C279     1.0000 0.42250  0.57030  0.35060  Biso   1.000  C
  C280     1.0000 0.17420  0.57390  0.36783  Biso   1.000  C
  H193     1.0000 0.22130  0.59250  0.36930  Biso   1.000  H
  C281     1.0000 0.13170  0.54320  0.38299  Biso   1.000  C
  H194     1.0000 0.14970  0.54080  0.39480  Biso   1.000  H
  N44      1.0000 0.23180  0.39710  0.26203  Biso   1.000  N
  C282     1.0000 0.25590  0.38170  0.27805  Biso   1.000  C
  H195     1.0000 0.25280  0.33900  0.27920  Biso   1.000  H
  C283     1.0000 0.28440  0.42860  0.29238  Biso   1.000  C
  H196     1.0000 0.30090  0.41810  0.30340  Biso   1.000  H
  C284     1.0000 0.28890  0.49090  0.29071  Biso   1.000  C
  C285     1.0000 0.26490  0.50640  0.27469  Biso   1.000  C
  H197     1.0000 0.26790  0.54890  0.27360  Biso   1.000  H
  C286     1.0000 0.23630  0.45940  0.26035  Biso   1.000  C
  H198     1.0000 0.21990  0.47000  0.24940  Biso   1.000  H
  Ag23     1.0000 0.20501  0.87012  0.73745  Biso   1.000  Ag
  O45      1.0000 0.04397  0.96633  0.67105  Biso   1.000  O
  O46      1.0000 0.07807  0.04783  0.63815  Biso   1.000  O
  C287     1.0000 0.05047  0.91353  0.66784  Biso   1.000  C
  C288     1.0000 0.13227  0.15583  0.65380  Biso   1.000  C
  H199     1.0000 0.16957  0.20013  0.65333  Biso   1.000  H
  C289     1.0000 0.12337  0.10893  0.64007  Biso   1.000  C
  N45      1.0000 0.15067  0.88013  0.71425  Biso   1.000  N
  C290     1.0000 0.14717  0.85023  0.69702  Biso   1.000  C
  H200     1.0000 0.16577  0.82173  0.69563  Biso   1.000  H
  C291     1.0000 0.11647  0.86203  0.68186  Biso   1.000  C
  H201     1.0000 0.11407  0.84153  0.67013  Biso   1.000  H
  C292     1.0000 0.08917  0.90363  0.68393  Biso   1.000  C
  C293     1.0000 0.84087  0.90723  0.70116  Biso   1.000  C
  H202     1.0000 0.88797  0.92583  0.70263  Biso   1.000  H
  C294     1.0000 0.79837  0.87653  0.71632  Biso   1.000  C
  H203     1.0000 0.81637  0.87413  0.72813  Biso   1.000  H
  N46      1.0000 0.89847  0.73043  0.59536  Biso   1.000  N
  C295     1.0000 0.92257  0.71503  0.61138  Biso   1.000  C
  H204     1.0000 0.91947  0.67233  0.61253  Biso   1.000  H
  C296     1.0000 0.95107  0.76193  0.62571  Biso   1.000  C
  H205     1.0000 0.96757  0.75143  0.63673  Biso   1.000  H
  C297     1.0000 0.95557  0.82423  0.62404  Biso   1.000  C
  C298     1.0000 0.93157  0.83973  0.60802  Biso   1.000  C
  H206     1.0000 0.93457  0.88223  0.60693  Biso   1.000  H
  C299     1.0000 0.90297  0.79273  0.59368  Biso   1.000  C
  H207     1.0000 0.88657  0.80333  0.58273  Biso   1.000  H
  Ag24     1.0000 0.87167  0.20346  0.07079  Biso   1.000  Ag
  O47      1.0000 0.71063  0.29967  0.00439  Biso   1.000  O
  O48      1.0000 0.74473  0.38117  0.97149  Biso   1.000  O
  C300     1.0000 0.71713  0.24687  0.00118  Biso   1.000  C
  C301     1.0000 0.79893  0.48917  0.98714  Biso   1.000  C
  H208     1.0000 0.83623  0.53347  0.98667  Biso   1.000  H
  C302     1.0000 0.79003  0.44227  0.97341  Biso   1.000  C
  N47      1.0000 0.81733  0.21347  0.04759  Biso   1.000  N
  C303     1.0000 0.81383  0.18357  0.03036  Biso   1.000  C
  H209     1.0000 0.83243  0.15507  0.02897  Biso   1.000  H
  C304     1.0000 0.78313  0.19537  0.01520  Biso   1.000  C
  H210     1.0000 0.78073  0.17487  0.00347  Biso   1.000  H
  C305     1.0000 0.75583  0.23697  0.01727  Biso   1.000  C
  C306     1.0000 0.50753  0.24057  0.03450  Biso   1.000  C
  H211     1.0000 0.55463  0.25917  0.03597  Biso   1.000  H
  C307     1.0000 0.46503  0.20987  0.04966  Biso   1.000  C
  H212     1.0000 0.48303  0.20747  0.06147  Biso   1.000  H
  N48      1.0000 0.56513  0.06377  0.92870  Biso   1.000  N
  C308     1.0000 0.58923  0.04837  0.94472  Biso   1.000  C
  H213     1.0000 0.58613  0.00567  0.94587  Biso   1.000  H
  C309     1.0000 0.61773  0.09527  0.95905  Biso   1.000  C
  H214     1.0000 0.63423  0.08477  0.97007  Biso   1.000  H
  C310     1.0000 0.62223  0.15757  0.95738  Biso   1.000  C
  C311     1.0000 0.59823  0.17307  0.94136  Biso   1.000  C
  H215     1.0000 0.60123  0.21557  0.94027  Biso   1.000  H
  C312     1.0000 0.56963  0.12607  0.92702  Biso   1.000  C
  H216     1.0000 0.55323  0.13667  0.91607  Biso   1.000  H
  Ag25     1.0000 0.46321  0.00155  0.40412  Biso   1.000  Ag
  O49      1.0000 0.36700  0.74430  0.33772  Biso   1.000  O
  O50      1.0000 0.28550  0.69690  0.30482  Biso   1.000  O
  C313     1.0000 0.41980  0.80360  0.33451  Biso   1.000  C
  C314     1.0000 0.17750  0.64310  0.32047  Biso   1.000  C
  H217     1.0000 0.13320  0.63610  0.32000  Biso   1.000  H
  C315     1.0000 0.22440  0.68110  0.30674  Biso   1.000  C
  N49      1.0000 0.45320  0.93720  0.38092  Biso   1.000  N
  C316     1.0000 0.48310  0.96360  0.36369  Biso   1.000  C
  H218     1.0000 0.51160  0.01070  0.36230  Biso   1.000  H
  C317     1.0000 0.47130  0.92110  0.34853  Biso   1.000  C
  H219     1.0000 0.49180  0.93920  0.33680  Biso   1.000  H
  C318     1.0000 0.42970  0.85220  0.35060  Biso   1.000  C
  C319     1.0000 0.42610  0.60030  0.36783  Biso   1.000  C
  H220     1.0000 0.40750  0.62880  0.36930  Biso   1.000  H
  C320     1.0000 0.45680  0.58850  0.38299  Biso   1.000  C
  H221     1.0000 0.45920  0.60890  0.39480  Biso   1.000  H
  N50      1.0000 0.60290  0.83470  0.26203  Biso   1.000  N
  C321     1.0000 0.61830  0.87420  0.27805  Biso   1.000  C
  H222     1.0000 0.66100  0.91380  0.27920  Biso   1.000  H
  C322     1.0000 0.57140  0.85580  0.29238  Biso   1.000  C
  H223     1.0000 0.58190  0.88280  0.30340  Biso   1.000  H
  C323     1.0000 0.50910  0.79800  0.29071  Biso   1.000  C
  C324     1.0000 0.49360  0.75850  0.27469  Biso   1.000  C
  H224     1.0000 0.45110  0.71900  0.27360  Biso   1.000  H
  C325     1.0000 0.54060  0.77690  0.26035  Biso   1.000  C
  H225     1.0000 0.53000  0.74990  0.24940  Biso   1.000  H
  Ag26     1.0000 0.12988  0.33488  0.73745  Biso   1.000  Ag
  O51      1.0000 0.03367  0.07763  0.67105  Biso   1.000  O
  O52      1.0000 0.95217  0.03023  0.63815  Biso   1.000  O
  C326     1.0000 0.08647  0.13693  0.66784  Biso   1.000  C
  C327     1.0000 0.84417  0.97643  0.65380  Biso   1.000  C
  H226     1.0000 0.79987  0.96943  0.65333  Biso   1.000  H
  C328     1.0000 0.89107  0.01443  0.64007  Biso   1.000  C
  N51      1.0000 0.11987  0.27053  0.71425  Biso   1.000  N
  C329     1.0000 0.14977  0.29693  0.69702  Biso   1.000  C
  H227     1.0000 0.17827  0.34403  0.69563  Biso   1.000  H
  C330     1.0000 0.13797  0.25443  0.68186  Biso   1.000  C
  H228     1.0000 0.15847  0.27253  0.67013  Biso   1.000  H
  C331     1.0000 0.09637  0.18553  0.68393  Biso   1.000  C
  C332     1.0000 0.09277  0.93363  0.70116  Biso   1.000  C
  H229     1.0000 0.07417  0.96213  0.70263  Biso   1.000  H
  C333     1.0000 0.12347  0.92183  0.71632  Biso   1.000  C
  H230     1.0000 0.12587  0.94223  0.72813  Biso   1.000  H
  N52      1.0000 0.26957  0.16803  0.59536  Biso   1.000  N
  C334     1.0000 0.28497  0.20753  0.61138  Biso   1.000  C
  H231     1.0000 0.32767  0.24713  0.61253  Biso   1.000  H
  C335     1.0000 0.23807  0.18913  0.62571  Biso   1.000  C
  H232     1.0000 0.24857  0.21613  0.63673  Biso   1.000  H
  C336     1.0000 0.17577  0.13133  0.62404  Biso   1.000  C
  C337     1.0000 0.16027  0.09183  0.60802  Biso   1.000  C
  H233     1.0000 0.11777  0.05233  0.60693  Biso   1.000  H
  C338     1.0000 0.20727  0.11023  0.59368  Biso   1.000  C
  H234     1.0000 0.19667  0.08323  0.58273  Biso   1.000  H
  Ag27     1.0000 0.79654  0.66822  0.07079  Biso   1.000  Ag
  O53      1.0000 0.70033  0.41097  0.00439  Biso   1.000  O
  O54      1.0000 0.61883  0.36357  0.97149  Biso   1.000  O
  C339     1.0000 0.75313  0.47027  0.00118  Biso   1.000  C
  C340     1.0000 0.51083  0.30977  0.98714  Biso   1.000  C
  H235     1.0000 0.46653  0.30277  0.98667  Biso   1.000  H
  C341     1.0000 0.55773  0.34777  0.97341  Biso   1.000  C
  N53      1.0000 0.78653  0.60387  0.04759  Biso   1.000  N
  C342     1.0000 0.81643  0.63027  0.03036  Biso   1.000  C
  H236     1.0000 0.84493  0.67737  0.02897  Biso   1.000  H
  C343     1.0000 0.80463  0.58777  0.01520  Biso   1.000  C
  H237     1.0000 0.82513  0.60587  0.00347  Biso   1.000  H
  C344     1.0000 0.76303  0.51887  0.01727  Biso   1.000  C
  C345     1.0000 0.75943  0.26697  0.03450  Biso   1.000  C
  H238     1.0000 0.74083  0.29547  0.03597  Biso   1.000  H
  C346     1.0000 0.79013  0.25517  0.04966  Biso   1.000  C
  H239     1.0000 0.79253  0.27557  0.06147  Biso   1.000  H
  N54      1.0000 0.93623  0.50137  0.92870  Biso   1.000  N
  C347     1.0000 0.95163  0.54087  0.94472  Biso   1.000  C
  H240     1.0000 0.99433  0.58047  0.94587  Biso   1.000  H
  C348     1.0000 0.90473  0.52247  0.95905  Biso   1.000  C
  H241     1.0000 0.91523  0.54947  0.97007  Biso   1.000  H
  C349     1.0000 0.84243  0.46467  0.95738  Biso   1.000  C
  C350     1.0000 0.82693  0.42517  0.94136  Biso   1.000  C
  H242     1.0000 0.78443  0.38567  0.94027  Biso   1.000  H
  C351     1.0000 0.87393  0.44357  0.92702  Biso   1.000  C
  H243     1.0000 0.86333  0.41657  0.91607  Biso   1.000  H
  Ag28     1.0000 0.53834  0.00155  0.90412  Biso   1.000  Ag
  O55      1.0000 0.37730  0.74430  0.83772  Biso   1.000  O
  O56      1.0000 0.41140  0.69690  0.80482  Biso   1.000  O
  C352     1.0000 0.38380  0.80360  0.83451  Biso   1.000  C
  C353     1.0000 0.46560  0.64310  0.82047  Biso   1.000  C
  H244     1.0000 0.50290  0.63610  0.82000  Biso   1.000  H
  C354     1.0000 0.45670  0.68110  0.80674  Biso   1.000  C
  N55      1.0000 0.48400  0.93720  0.88092  Biso   1.000  N
  C355     1.0000 0.48050  0.96360  0.86369  Biso   1.000  C
  H245     1.0000 0.49910  0.01070  0.86230  Biso   1.000  H
  C356     1.0000 0.44980  0.92110  0.84853  Biso   1.000  C
  H246     1.0000 0.44740  0.93920  0.83680  Biso   1.000  H
  C357     1.0000 0.42250  0.85220  0.85060  Biso   1.000  C
  C358     1.0000 0.17420  0.60030  0.86783  Biso   1.000  C
  H247     1.0000 0.22130  0.62880  0.86930  Biso   1.000  H
  C359     1.0000 0.13170  0.58850  0.88299  Biso   1.000  C
  H248     1.0000 0.14970  0.60890  0.89480  Biso   1.000  H
  N56      1.0000 0.23180  0.83470  0.76203  Biso   1.000  N
  C360     1.0000 0.25590  0.87420  0.77805  Biso   1.000  C
  H249     1.0000 0.25280  0.91380  0.77920  Biso   1.000  H
  C361     1.0000 0.28440  0.85580  0.79238  Biso   1.000  C
  H250     1.0000 0.30090  0.88280  0.80340  Biso   1.000  H
  C362     1.0000 0.28890  0.79800  0.79071  Biso   1.000  C
  C363     1.0000 0.26490  0.75850  0.77469  Biso   1.000  C
  H251     1.0000 0.26790  0.71900  0.77360  Biso   1.000  H
  C364     1.0000 0.23630  0.77690  0.76035  Biso   1.000  C
  H252     1.0000 0.21990  0.74990  0.74940  Biso   1.000  H
  Ag29     1.0000 0.20501  0.33488  0.23745  Biso   1.000  Ag
  O57      1.0000 0.04397  0.07763  0.17105  Biso   1.000  O
  O58      1.0000 0.07807  0.03023  0.13815  Biso   1.000  O
  C365     1.0000 0.05047  0.13693  0.16784  Biso   1.000  C
  C366     1.0000 0.13227  0.97643  0.15380  Biso   1.000  C
  H253     1.0000 0.16957  0.96943  0.15333  Biso   1.000  H
  C367     1.0000 0.12337  0.01443  0.14007  Biso   1.000  C
  N57      1.0000 0.15067  0.27053  0.21425  Biso   1.000  N
  C368     1.0000 0.14717  0.29693  0.19702  Biso   1.000  C
  H254     1.0000 0.16577  0.34403  0.19563  Biso   1.000  H
  C369     1.0000 0.11647  0.25443  0.18186  Biso   1.000  C
  H255     1.0000 0.11407  0.27253  0.17013  Biso   1.000  H
  C370     1.0000 0.08917  0.18553  0.18393  Biso   1.000  C
  C371     1.0000 0.84087  0.93363  0.20116  Biso   1.000  C
  H256     1.0000 0.88797  0.96213  0.20263  Biso   1.000  H
  C372     1.0000 0.79837  0.92183  0.21632  Biso   1.000  C
  H257     1.0000 0.81637  0.94223  0.22813  Biso   1.000  H
  N58      1.0000 0.89847  0.16803  0.09536  Biso   1.000  N
  C373     1.0000 0.92257  0.20753  0.11138  Biso   1.000  C
  H258     1.0000 0.91947  0.24713  0.11253  Biso   1.000  H
  C374     1.0000 0.95107  0.18913  0.12571  Biso   1.000  C
  H259     1.0000 0.96757  0.21613  0.13673  Biso   1.000  H
  C375     1.0000 0.95557  0.13133  0.12404  Biso   1.000  C
  C376     1.0000 0.93157  0.09183  0.10802  Biso   1.000  C
  H260     1.0000 0.93457  0.05233  0.10693  Biso   1.000  H
  C377     1.0000 0.90297  0.11023  0.09368  Biso   1.000  C
  H261     1.0000 0.88657  0.08323  0.08273  Biso   1.000  H
  Ag30     1.0000 0.87167  0.66822  0.57079  Biso   1.000  Ag
  O59      1.0000 0.71063  0.41097  0.50439  Biso   1.000  O
  O60      1.0000 0.74473  0.36357  0.47149  Biso   1.000  O
  C378     1.0000 0.71713  0.47027  0.50118  Biso   1.000  C
  C379     1.0000 0.79893  0.30977  0.48714  Biso   1.000  C
  H262     1.0000 0.83623  0.30277  0.48667  Biso   1.000  H
  C380     1.0000 0.79003  0.34777  0.47341  Biso   1.000  C
  N59      1.0000 0.81733  0.60387  0.54759  Biso   1.000  N
  C381     1.0000 0.81383  0.63027  0.53036  Biso   1.000  C
  H263     1.0000 0.83243  0.67737  0.52897  Biso   1.000  H
  C382     1.0000 0.78313  0.58777  0.51520  Biso   1.000  C
  H264     1.0000 0.78073  0.60587  0.50347  Biso   1.000  H
  C383     1.0000 0.75583  0.51887  0.51727  Biso   1.000  C
  C384     1.0000 0.50753  0.26697  0.53450  Biso   1.000  C
  H265     1.0000 0.55463  0.29547  0.53597  Biso   1.000  H
  C385     1.0000 0.46503  0.25517  0.54966  Biso   1.000  C
  H266     1.0000 0.48303  0.27557  0.56147  Biso   1.000  H
  N60      1.0000 0.56513  0.50137  0.42870  Biso   1.000  N
  C386     1.0000 0.58923  0.54087  0.44472  Biso   1.000  C
  H267     1.0000 0.58613  0.58047  0.44587  Biso   1.000  H
  C387     1.0000 0.61773  0.52247  0.45905  Biso   1.000  C
  H268     1.0000 0.63423  0.54947  0.47007  Biso   1.000  H
  C388     1.0000 0.62223  0.46467  0.45738  Biso   1.000  C
  C389     1.0000 0.59823  0.42517  0.44136  Biso   1.000  C
  H269     1.0000 0.60123  0.38567  0.44027  Biso   1.000  H
  C390     1.0000 0.56963  0.44357  0.42702  Biso   1.000  C
  H270     1.0000 0.55323  0.41657  0.41607  Biso   1.000  H
  Ag31     1.0000 0.46321  0.46166  0.90412  Biso   1.000  Ag
  O61      1.0000 0.36700  0.62270  0.83772  Biso   1.000  O
  O62      1.0000 0.28550  0.58860  0.80482  Biso   1.000  O
  C391     1.0000 0.41980  0.61620  0.83451  Biso   1.000  C
  C392     1.0000 0.17750  0.53440  0.82047  Biso   1.000  C
  H271     1.0000 0.13320  0.49710  0.82000  Biso   1.000  H
  C393     1.0000 0.22440  0.54330  0.80674  Biso   1.000  C
  N61      1.0000 0.45320  0.51600  0.88092  Biso   1.000  N
  C394     1.0000 0.48310  0.51950  0.86369  Biso   1.000  C
  H272     1.0000 0.51160  0.50090  0.86230  Biso   1.000  H
  C395     1.0000 0.47130  0.55020  0.84853  Biso   1.000  C
  H273     1.0000 0.49180  0.55260  0.83680  Biso   1.000  H
  C396     1.0000 0.42970  0.57750  0.85060  Biso   1.000  C
  C397     1.0000 0.42610  0.82580  0.86783  Biso   1.000  C
  H274     1.0000 0.40750  0.77870  0.86930  Biso   1.000  H
  C398     1.0000 0.45680  0.86830  0.88299  Biso   1.000  C
  H275     1.0000 0.45920  0.85030  0.89480  Biso   1.000  H
  N62      1.0000 0.60290  0.76820  0.76203  Biso   1.000  N
  C399     1.0000 0.61830  0.74410  0.77805  Biso   1.000  C
  H276     1.0000 0.66100  0.74720  0.77920  Biso   1.000  H
  C400     1.0000 0.57140  0.71560  0.79238  Biso   1.000  C
  H277     1.0000 0.58190  0.69910  0.80340  Biso   1.000  H
  C401     1.0000 0.50910  0.71110  0.79071  Biso   1.000  C
  C402     1.0000 0.49360  0.73510  0.77469  Biso   1.000  C
  H278     1.0000 0.45110  0.73210  0.77360  Biso   1.000  H
  C403     1.0000 0.54060  0.76370  0.76035  Biso   1.000  C
  H279     1.0000 0.53000  0.78010  0.74940  Biso   1.000  H
  Ag32     1.0000 0.12988  0.79499  0.23745  Biso   1.000  Ag
  O63      1.0000 0.03367  0.95603  0.17105  Biso   1.000  O
  O64      1.0000 0.95217  0.92193  0.13815  Biso   1.000  O
  C404     1.0000 0.08647  0.94953  0.16784  Biso   1.000  C
  C405     1.0000 0.84417  0.86773  0.15380  Biso   1.000  C
  H280     1.0000 0.79987  0.83043  0.15333  Biso   1.000  H
  C406     1.0000 0.89107  0.87663  0.14007  Biso   1.000  C
  N63      1.0000 0.11987  0.84933  0.21425  Biso   1.000  N
  C407     1.0000 0.14977  0.85283  0.19702  Biso   1.000  C
  H281     1.0000 0.17827  0.83423  0.19563  Biso   1.000  H
  C408     1.0000 0.13797  0.88353  0.18186  Biso   1.000  C
  H282     1.0000 0.15847  0.88593  0.17013  Biso   1.000  H
  C409     1.0000 0.09637  0.91083  0.18393  Biso   1.000  C
  C410     1.0000 0.09277  0.15913  0.20116  Biso   1.000  C
  H283     1.0000 0.07417  0.11203  0.20263  Biso   1.000  H
  C411     1.0000 0.12347  0.20163  0.21632  Biso   1.000  C
  H284     1.0000 0.12587  0.18363  0.22813  Biso   1.000  H
  N64      1.0000 0.26957  0.10153  0.09536  Biso   1.000  N
  C412     1.0000 0.28497  0.07743  0.11138  Biso   1.000  C
  H285     1.0000 0.32767  0.08053  0.11253  Biso   1.000  H
  C413     1.0000 0.23807  0.04893  0.12571  Biso   1.000  C
  H286     1.0000 0.24857  0.03243  0.13673  Biso   1.000  H
  C414     1.0000 0.17577  0.04443  0.12404  Biso   1.000  C
  C415     1.0000 0.16027  0.06843  0.10802  Biso   1.000  C
  H287     1.0000 0.11777  0.06543  0.10693  Biso   1.000  H
  C416     1.0000 0.20727  0.09703  0.09368  Biso   1.000  C
  H288     1.0000 0.19667  0.11343  0.08273  Biso   1.000  H
  Ag33     1.0000 0.79654  0.12833  0.57079  Biso   1.000  Ag
  O65      1.0000 0.70033  0.28937  0.50439  Biso   1.000  O
  O66      1.0000 0.61883  0.25527  0.47149  Biso   1.000  O
  C417     1.0000 0.75313  0.28287  0.50118  Biso   1.000  C
  C418     1.0000 0.51083  0.20107  0.48714  Biso   1.000  C
  H289     1.0000 0.46653  0.16377  0.48667  Biso   1.000  H
  C419     1.0000 0.55773  0.20997  0.47341  Biso   1.000  C
  N65      1.0000 0.78653  0.18267  0.54759  Biso   1.000  N
  C420     1.0000 0.81643  0.18617  0.53036  Biso   1.000  C
  H290     1.0000 0.84493  0.16757  0.52897  Biso   1.000  H
  C421     1.0000 0.80463  0.21687  0.51520  Biso   1.000  C
  H291     1.0000 0.82513  0.21927  0.50347  Biso   1.000  H
  C422     1.0000 0.76303  0.24417  0.51727  Biso   1.000  C
  C423     1.0000 0.75943  0.49247  0.53450  Biso   1.000  C
  H292     1.0000 0.74083  0.44537  0.53597  Biso   1.000  H
  C424     1.0000 0.79013  0.53497  0.54966  Biso   1.000  C
  H293     1.0000 0.79253  0.51697  0.56147  Biso   1.000  H
  N66      1.0000 0.93623  0.43487  0.42870  Biso   1.000  N
  C425     1.0000 0.95163  0.41077  0.44472  Biso   1.000  C
  H294     1.0000 0.99433  0.41387  0.44587  Biso   1.000  H
  C426     1.0000 0.90473  0.38227  0.45905  Biso   1.000  C
  H295     1.0000 0.91523  0.36577  0.47007  Biso   1.000  H
  C427     1.0000 0.84243  0.37777  0.45738  Biso   1.000  C
  C428     1.0000 0.82693  0.40177  0.44136  Biso   1.000  C
  H296     1.0000 0.78443  0.39877  0.44027  Biso   1.000  H
  C429     1.0000 0.87393  0.43037  0.42702  Biso   1.000  C
  H297     1.0000 0.86333  0.44677  0.41607  Biso   1.000  H
  Ag34     1.0000 0.99845  0.53679  0.90412  Biso   1.000  Ag
  O67      1.0000 0.25570  0.63300  0.83772  Biso   1.000  O
  O68      1.0000 0.30310  0.71450  0.80482  Biso   1.000  O
  C430     1.0000 0.19640  0.58020  0.83451  Biso   1.000  C
  C431     1.0000 0.35690  0.82250  0.82047  Biso   1.000  C
  H298     1.0000 0.36390  0.86680  0.82000  Biso   1.000  H
  C432     1.0000 0.31890  0.77560  0.80674  Biso   1.000  C
  N67      1.0000 0.06280  0.54680  0.88092  Biso   1.000  N
  C433     1.0000 0.03640  0.51690  0.86369  Biso   1.000  C
  H299     1.0000 0.98930  0.48840  0.86230  Biso   1.000  H
  C434     1.0000 0.07890  0.52870  0.84853  Biso   1.000  C
  H300     1.0000 0.06080  0.50820  0.83680  Biso   1.000  H
  C435     1.0000 0.14780  0.57030  0.85060  Biso   1.000  C
  C436     1.0000 0.39970  0.57390  0.86783  Biso   1.000  C
  H301     1.0000 0.37120  0.59250  0.86930  Biso   1.000  H
  C437     1.0000 0.41150  0.54320  0.88299  Biso   1.000  C
  H302     1.0000 0.39110  0.54080  0.89480  Biso   1.000  H
  N68      1.0000 0.16530  0.39710  0.76203  Biso   1.000  N
  C438     1.0000 0.12580  0.38170  0.77805  Biso   1.000  C
  H303     1.0000 0.08620  0.33900  0.77920  Biso   1.000  H
  C439     1.0000 0.14420  0.42860  0.79238  Biso   1.000  C
  H304     1.0000 0.11720  0.41810  0.80340  Biso   1.000  H
  C440     1.0000 0.20200  0.49090  0.79071  Biso   1.000  C
  C441     1.0000 0.24150  0.50640  0.77469  Biso   1.000  C
  H305     1.0000 0.28100  0.54890  0.77360  Biso   1.000  H
  C442     1.0000 0.22310  0.45940  0.76035  Biso   1.000  C
  H306     1.0000 0.25010  0.47000  0.74940  Biso   1.000  H
  Ag35     1.0000 0.66512  0.87012  0.23745  Biso   1.000  Ag
  O69      1.0000 0.92237  0.96633  0.17105  Biso   1.000  O
  O70      1.0000 0.96977  0.04783  0.13815  Biso   1.000  O
  C443     1.0000 0.86307  0.91353  0.16784  Biso   1.000  C
  C444     1.0000 0.02357  0.15583  0.15380  Biso   1.000  C
  H307     1.0000 0.03057  0.20013  0.15333  Biso   1.000  H
  C445     1.0000 0.98557  0.10893  0.14007  Biso   1.000  C
  N69      1.0000 0.72947  0.88013  0.21425  Biso   1.000  N
  C446     1.0000 0.70307  0.85023  0.19702  Biso   1.000  C
  H308     1.0000 0.65597  0.82173  0.19563  Biso   1.000  H
  C447     1.0000 0.74557  0.86203  0.18186  Biso   1.000  C
  H309     1.0000 0.72747  0.84153  0.17013  Biso   1.000  H
  C448     1.0000 0.81447  0.90363  0.18393  Biso   1.000  C
  C449     1.0000 0.06637  0.90723  0.20116  Biso   1.000  C
  H310     1.0000 0.03787  0.92583  0.20263  Biso   1.000  H
  C450     1.0000 0.07817  0.87653  0.21632  Biso   1.000  C
  H311     1.0000 0.05777  0.87413  0.22813  Biso   1.000  H
  N70      1.0000 0.83197  0.73043  0.09536  Biso   1.000  N
  C451     1.0000 0.79247  0.71503  0.11138  Biso   1.000  C
  H312     1.0000 0.75287  0.67233  0.11253  Biso   1.000  H
  C452     1.0000 0.81087  0.76193  0.12571  Biso   1.000  C
  H313     1.0000 0.78387  0.75143  0.13673  Biso   1.000  H
  C453     1.0000 0.86867  0.82423  0.12404  Biso   1.000  C
  C454     1.0000 0.90817  0.83973  0.10802  Biso   1.000  C
  H314     1.0000 0.94767  0.88223  0.10693  Biso   1.000  H
  C455     1.0000 0.88977  0.79273  0.09368  Biso   1.000  C
  H315     1.0000 0.91677  0.80333  0.08273  Biso   1.000  H
  Ag36     1.0000 0.33178  0.20346  0.57079  Biso   1.000  Ag
  O71      1.0000 0.58903  0.29967  0.50439  Biso   1.000  O
  O72      1.0000 0.63643  0.38117  0.47149  Biso   1.000  O
  C456     1.0000 0.52973  0.24687  0.50118  Biso   1.000  C
  C457     1.0000 0.69023  0.48917  0.48714  Biso   1.000  C
  H316     1.0000 0.69723  0.53347  0.48667  Biso   1.000  H
  C458     1.0000 0.65223  0.44227  0.47341  Biso   1.000  C
  N71      1.0000 0.39613  0.21347  0.54759  Biso   1.000  N
  C459     1.0000 0.36973  0.18357  0.53036  Biso   1.000  C
  H317     1.0000 0.32263  0.15507  0.52897  Biso   1.000  H
  C460     1.0000 0.41223  0.19537  0.51520  Biso   1.000  C
  H318     1.0000 0.39413  0.17487  0.50347  Biso   1.000  H
  C461     1.0000 0.48113  0.23697  0.51727  Biso   1.000  C
  C462     1.0000 0.73303  0.24057  0.53450  Biso   1.000  C
  H319     1.0000 0.70453  0.25917  0.53597  Biso   1.000  H
  C463     1.0000 0.74483  0.20987  0.54966  Biso   1.000  C
  H320     1.0000 0.72443  0.20747  0.56147  Biso   1.000  H
  N72      1.0000 0.49863  0.06377  0.42870  Biso   1.000  N
  C464     1.0000 0.45913  0.04837  0.44472  Biso   1.000  C
  H321     1.0000 0.41953  0.00567  0.44587  Biso   1.000  H
  C465     1.0000 0.47753  0.09527  0.45905  Biso   1.000  C
  H322     1.0000 0.45053  0.08477  0.47007  Biso   1.000  H
  C466     1.0000 0.53533  0.15757  0.45738  Biso   1.000  C
  C467     1.0000 0.57483  0.17307  0.44136  Biso   1.000  C
  H323     1.0000 0.61433  0.21557  0.44027  Biso   1.000  H
  C468     1.0000 0.55643  0.12607  0.42702  Biso   1.000  C
  H324     1.0000 0.58343  0.13667  0.41607  Biso   1.000  H
  Ga7      1.0000 0.33333  0.66667  0.32136  Biso   1.000  Ga
  Ga8      1.0000 0.00000  0.00000  0.65469  Biso   1.000  Ga
  Ga9      1.0000 0.66667  0.33333  0.98803  Biso   1.000  Ga
  Ga10     1.0000 0.33333  0.66667  0.82136  Biso   1.000  Ga
  Ga11     1.0000 0.00000  0.00000  0.15469  Biso   1.000  Ga
  Ga12     1.0000 0.66667  0.33333  0.48803  Biso   1.000  Ga
  Ag37     1.0000 0.97115  0.48730  0.30178  Biso   1.000  Ag
  O73      1.0000 0.25780  0.63330  0.24325  Biso   1.000  O
  O74      1.0000 0.29230  0.58950  0.21007  Biso   1.000  O
  C469     1.0000 0.19420  0.62650  0.23656  Biso   1.000  C
  C470     1.0000 0.34920  0.53550  0.22059  Biso   1.000  C
  H325     1.0000 0.36320  0.50440  0.21720  Biso   1.000  H
  C471     1.0000 0.30670  0.54110  0.20841  Biso   1.000  C
  N73      1.0000 0.04030  0.52650  0.27819  Biso   1.000  N
  C472     1.0000 0.02910  0.55680  0.26281  Biso   1.000  C
  H326     1.0000 0.98680  0.55400  0.26120  Biso   1.000  H
  C473     1.0000 0.08000  0.59120  0.24977  Biso   1.000  C
  H327     1.0000 0.07240  0.61200  0.23930  Biso   1.000  H
  C474     1.0000 0.14200  0.59530  0.25212  Biso   1.000  C
  C475     1.0000 0.41180  0.84690  0.26750  Biso   1.000  C
  H328     1.0000 0.37230  0.80460  0.26910  Biso   1.000  H
  C476     1.0000 0.42830  0.89780  0.28053  Biso   1.000  C
  H329     1.0000 0.39990  0.89020  0.29110  Biso   1.000  H
  N74      1.0000 0.19590  0.77320  0.15967  Biso   1.000  N
  C477     1.0000 0.14440  0.71600  0.16807  Biso   1.000  C
  H330     1.0000 0.10030  0.69550  0.16310  Biso   1.000  H
  C478     1.0000 0.15750  0.68890  0.18385  Biso   1.000  C
  H331     1.0000 0.12240  0.64980  0.18960  Biso   1.000  H
  C479     1.0000 0.22210  0.71900  0.19122  Biso   1.000  C
  C480     1.0000 0.27360  0.77620  0.18281  Biso   1.000  C
  H332     1.0000 0.31770  0.79670  0.18790  Biso   1.000  H
  C481     1.0000 0.26050  0.80330  0.16704  Biso   1.000  C
  H333     1.0000 0.29570  0.84230  0.16130  Biso   1.000  H
  Ag38     1.0000 0.63782  0.82063  0.63511  Biso   1.000  Ag
  O75      1.0000 0.92447  0.96663  0.57658  Biso   1.000  O
  O76      1.0000 0.95897  0.92283  0.54340  Biso   1.000  O
  C482     1.0000 0.86087  0.95983  0.56989  Biso   1.000  C
  C483     1.0000 0.01587  0.86883  0.55392  Biso   1.000  C
  H334     1.0000 0.02987  0.83773  0.55053  Biso   1.000  H
  C484     1.0000 0.97337  0.87443  0.54174  Biso   1.000  C
  N75      1.0000 0.70697  0.85983  0.61152  Biso   1.000  N
  C485     1.0000 0.69577  0.89013  0.59614  Biso   1.000  C
  H335     1.0000 0.65347  0.88733  0.59453  Biso   1.000  H
  C486     1.0000 0.74667  0.92453  0.58310  Biso   1.000  C
  H336     1.0000 0.73907  0.94533  0.57263  Biso   1.000  H
  C487     1.0000 0.80867  0.92863  0.58545  Biso   1.000  C
  C488     1.0000 0.07847  0.18023  0.60083  Biso   1.000  C
  H337     1.0000 0.03897  0.13793  0.60243  Biso   1.000  H
  C489     1.0000 0.09497  0.23113  0.61386  Biso   1.000  C
  H338     1.0000 0.06657  0.22353  0.62443  Biso   1.000  H
  N76      1.0000 0.86257  0.10653  0.49300  Biso   1.000  N
  C490     1.0000 0.81107  0.04933  0.50140  Biso   1.000  C
  H339     1.0000 0.76697  0.02883  0.49643  Biso   1.000  H
  C491     1.0000 0.82417  0.02223  0.51718  Biso   1.000  C
  H340     1.0000 0.78907  0.98313  0.52293  Biso   1.000  H
  C492     1.0000 0.88877  0.05233  0.52455  Biso   1.000  C
  C493     1.0000 0.94027  0.10953  0.51614  Biso   1.000  C
  H341     1.0000 0.98437  0.13003  0.52123  Biso   1.000  H
  C494     1.0000 0.92717  0.13663  0.50037  Biso   1.000  C
  H342     1.0000 0.96237  0.17563  0.49463  Biso   1.000  H
  Ag39     1.0000 0.30448  0.15397  0.96845  Biso   1.000  Ag
  O77      1.0000 0.59113  0.29997  0.90992  Biso   1.000  O
  O78      1.0000 0.62563  0.25617  0.87674  Biso   1.000  O
  C495     1.0000 0.52753  0.29317  0.90323  Biso   1.000  C
  C496     1.0000 0.68253  0.20217  0.88726  Biso   1.000  C
  H343     1.0000 0.69653  0.17107  0.88387  Biso   1.000  H
  C497     1.0000 0.64003  0.20777  0.87508  Biso   1.000  C
  N77      1.0000 0.37363  0.19317  0.94486  Biso   1.000  N
  C498     1.0000 0.36243  0.22347  0.92948  Biso   1.000  C
  H344     1.0000 0.32013  0.22067  0.92787  Biso   1.000  H
  C499     1.0000 0.41333  0.25787  0.91644  Biso   1.000  C
  H345     1.0000 0.40573  0.27867  0.90597  Biso   1.000  H
  C500     1.0000 0.47533  0.26197  0.91879  Biso   1.000  C
  C501     1.0000 0.74513  0.51357  0.93417  Biso   1.000  C
  H346     1.0000 0.70563  0.47127  0.93577  Biso   1.000  H
  C502     1.0000 0.76163  0.56447  0.94720  Biso   1.000  C
  H347     1.0000 0.73323  0.55687  0.95777  Biso   1.000  H
  N78      1.0000 0.52923  0.43987  0.82634  Biso   1.000  N
  C503     1.0000 0.47773  0.38267  0.83474  Biso   1.000  C
  H348     1.0000 0.43363  0.36217  0.82977  Biso   1.000  H
  C504     1.0000 0.49083  0.35557  0.85052  Biso   1.000  C
  H349     1.0000 0.45573  0.31647  0.85627  Biso   1.000  H
  C505     1.0000 0.55543  0.38567  0.85789  Biso   1.000  C
  C506     1.0000 0.60693  0.44287  0.84948  Biso   1.000  C
  H350     1.0000 0.65103  0.46337  0.85457  Biso   1.000  H
  C507     1.0000 0.59383  0.46997  0.83371  Biso   1.000  C
  H351     1.0000 0.62903  0.50897  0.82797  Biso   1.000  H
  Ag40     1.0000 0.51270  0.48385  0.30178  Biso   1.000  Ag
  O79      1.0000 0.36670  0.62450  0.24325  Biso   1.000  O
  O80      1.0000 0.41050  0.70280  0.21007  Biso   1.000  O
  C508     1.0000 0.37350  0.56770  0.23656  Biso   1.000  C
  C509     1.0000 0.46450  0.81370  0.22059  Biso   1.000  C
  H352     1.0000 0.49560  0.85880  0.21720  Biso   1.000  H
  C510     1.0000 0.45890  0.76560  0.20841  Biso   1.000  C
  N79      1.0000 0.47350  0.51380  0.27819  Biso   1.000  N
  C511     1.0000 0.44320  0.47230  0.26281  Biso   1.000  C
  H353     1.0000 0.44600  0.43280  0.26120  Biso   1.000  H
  C512     1.0000 0.40880  0.48880  0.24977  Biso   1.000  C
  H354     1.0000 0.38800  0.46040  0.23930  Biso   1.000  H
  C513     1.0000 0.40470  0.54670  0.25212  Biso   1.000  C
  C514     1.0000 0.15310  0.56490  0.26750  Biso   1.000  C
  H355     1.0000 0.19540  0.56770  0.26910  Biso   1.000  H
  C515     1.0000 0.10220  0.53050  0.28053  Biso   1.000  C
  H356     1.0000 0.10980  0.50970  0.29110  Biso   1.000  H
  N80      1.0000 0.22680  0.42270  0.15967  Biso   1.000  N
  C516     1.0000 0.28400  0.42840  0.16807  Biso   1.000  C
  H357     1.0000 0.30450  0.40480  0.16310  Biso   1.000  H
  C517     1.0000 0.31110  0.46860  0.18385  Biso   1.000  C
  H358     1.0000 0.35020  0.47260  0.18960  Biso   1.000  H
  C518     1.0000 0.28100  0.50310  0.19122  Biso   1.000  C
  C519     1.0000 0.22380  0.49740  0.18281  Biso   1.000  C
  H359     1.0000 0.20330  0.52100  0.18790  Biso   1.000  H
  C520     1.0000 0.19670  0.45720  0.16704  Biso   1.000  C
  H360     1.0000 0.15770  0.45340  0.16130  Biso   1.000  H
  Ag41     1.0000 0.17937  0.81718  0.63511  Biso   1.000  Ag
  O81      1.0000 0.03337  0.95783  0.57658  Biso   1.000  O
  O82      1.0000 0.07717  0.03613  0.54340  Biso   1.000  O
  C521     1.0000 0.04017  0.90103  0.56989  Biso   1.000  C
  C522     1.0000 0.13117  0.14703  0.55392  Biso   1.000  C
  H361     1.0000 0.16227  0.19213  0.55053  Biso   1.000  H
  C523     1.0000 0.12557  0.09893  0.54174  Biso   1.000  C
  N81      1.0000 0.14017  0.84713  0.61152  Biso   1.000  N
  C524     1.0000 0.10987  0.80563  0.59614  Biso   1.000  C
  H362     1.0000 0.11267  0.76613  0.59453  Biso   1.000  H
  C525     1.0000 0.07547  0.82213  0.58310  Biso   1.000  C
  H363     1.0000 0.05467  0.79373  0.57263  Biso   1.000  H
  C526     1.0000 0.07137  0.88003  0.58545  Biso   1.000  C
  C527     1.0000 0.81977  0.89823  0.60083  Biso   1.000  C
  H364     1.0000 0.86207  0.90103  0.60243  Biso   1.000  H
  C528     1.0000 0.76887  0.86383  0.61386  Biso   1.000  C
  H365     1.0000 0.77647  0.84303  0.62443  Biso   1.000  H
  N82      1.0000 0.89347  0.75603  0.49300  Biso   1.000  N
  C529     1.0000 0.95067  0.76173  0.50140  Biso   1.000  C
  H366     1.0000 0.97117  0.73813  0.49643  Biso   1.000  H
  C530     1.0000 0.97777  0.80193  0.51718  Biso   1.000  C
  H367     1.0000 0.01687  0.80593  0.52293  Biso   1.000  H
  C531     1.0000 0.94767  0.83643  0.52455  Biso   1.000  C
  C532     1.0000 0.89047  0.83073  0.51614  Biso   1.000  C
  H368     1.0000 0.86997  0.85433  0.52123  Biso   1.000  H
  C533     1.0000 0.86337  0.79053  0.50037  Biso   1.000  C
  H369     1.0000 0.82437  0.78673  0.49463  Biso   1.000  H
  Ag42     1.0000 0.84603  0.15052  0.96845  Biso   1.000  Ag
  O83      1.0000 0.70003  0.29117  0.90992  Biso   1.000  O
  O84      1.0000 0.74383  0.36947  0.87674  Biso   1.000  O
  C534     1.0000 0.70683  0.23437  0.90323  Biso   1.000  C
  C535     1.0000 0.79783  0.48037  0.88726  Biso   1.000  C
  H370     1.0000 0.82893  0.52547  0.88387  Biso   1.000  H
  C536     1.0000 0.79223  0.43227  0.87508  Biso   1.000  C
  N83      1.0000 0.80683  0.18047  0.94486  Biso   1.000  N
  C537     1.0000 0.77653  0.13897  0.92948  Biso   1.000  C
  H371     1.0000 0.77933  0.09947  0.92787  Biso   1.000  H
  C538     1.0000 0.74213  0.15547  0.91644  Biso   1.000  C
  H372     1.0000 0.72133  0.12707  0.90597  Biso   1.000  H
  C539     1.0000 0.73803  0.21337  0.91879  Biso   1.000  C
  C540     1.0000 0.48643  0.23157  0.93417  Biso   1.000  C
  H373     1.0000 0.52873  0.23437  0.93577  Biso   1.000  H
  C541     1.0000 0.43553  0.19717  0.94720  Biso   1.000  C
  H374     1.0000 0.44313  0.17637  0.95777  Biso   1.000  H
  N84      1.0000 0.56013  0.08937  0.82634  Biso   1.000  N
  C542     1.0000 0.61733  0.09507  0.83474  Biso   1.000  C
  H375     1.0000 0.63783  0.07147  0.82977  Biso   1.000  H
  C543     1.0000 0.64443  0.13527  0.85052  Biso   1.000  C
  H376     1.0000 0.68353  0.13927  0.85627  Biso   1.000  H
  C544     1.0000 0.61433  0.16977  0.85789  Biso   1.000  C
  C545     1.0000 0.55713  0.16407  0.84948  Biso   1.000  C
  H377     1.0000 0.53663  0.18767  0.85457  Biso   1.000  H
  C546     1.0000 0.53003  0.12387  0.83371  Biso   1.000  C
  H378     1.0000 0.49103  0.12007  0.82797  Biso   1.000  H
  Ag43     1.0000 0.51615  0.02885  0.30178  Biso   1.000  Ag
  O85      1.0000 0.37550  0.74220  0.24325  Biso   1.000  O
  O86      1.0000 0.29720  0.70770  0.21007  Biso   1.000  O
  C547     1.0000 0.43230  0.80580  0.23656  Biso   1.000  C
  C548     1.0000 0.18630  0.65080  0.22059  Biso   1.000  C
  H379     1.0000 0.14120  0.63680  0.21720  Biso   1.000  H
  C549     1.0000 0.23440  0.69330  0.20841  Biso   1.000  C
  N85      1.0000 0.48620  0.95970  0.27819  Biso   1.000  N
  C550     1.0000 0.52770  0.97090  0.26281  Biso   1.000  C
  H380     1.0000 0.56720  0.01320  0.26120  Biso   1.000  H
  C551     1.0000 0.51120  0.92000  0.24977  Biso   1.000  C
  H381     1.0000 0.53960  0.92760  0.23930  Biso   1.000  H
  C552     1.0000 0.45330  0.85800  0.25212  Biso   1.000  C
  C553     1.0000 0.43510  0.58820  0.26750  Biso   1.000  C
  H382     1.0000 0.43230  0.62770  0.26910  Biso   1.000  H
  C554     1.0000 0.46950  0.57170  0.28053  Biso   1.000  C
  H383     1.0000 0.49030  0.60010  0.29110  Biso   1.000  H
  N86      1.0000 0.57730  0.80410  0.15967  Biso   1.000  N
  C555     1.0000 0.57160  0.85560  0.16807  Biso   1.000  C
  H384     1.0000 0.59520  0.89970  0.16310  Biso   1.000  H
  C556     1.0000 0.53140  0.84250  0.18385  Biso   1.000  C
  H385     1.0000 0.52740  0.87760  0.18960  Biso   1.000  H
  C557     1.0000 0.49690  0.77790  0.19122  Biso   1.000  C
  C558     1.0000 0.50260  0.72640  0.18281  Biso   1.000  C
  H386     1.0000 0.47900  0.68230  0.18790  Biso   1.000  H
  C559     1.0000 0.54280  0.73950  0.16704  Biso   1.000  C
  H387     1.0000 0.54660  0.70430  0.16130  Biso   1.000  H
  Ag44     1.0000 0.18282  0.36218  0.63511  Biso   1.000  Ag
  O87      1.0000 0.04217  0.07553  0.57658  Biso   1.000  O
  O88      1.0000 0.96387  0.04103  0.54340  Biso   1.000  O
  C560     1.0000 0.09897  0.13913  0.56989  Biso   1.000  C
  C561     1.0000 0.85297  0.98413  0.55392  Biso   1.000  C
  H388     1.0000 0.80787  0.97013  0.55053  Biso   1.000  H
  C562     1.0000 0.90107  0.02663  0.54174  Biso   1.000  C
  N87      1.0000 0.15287  0.29303  0.61152  Biso   1.000  N
  C563     1.0000 0.19437  0.30423  0.59614  Biso   1.000  C
  H389     1.0000 0.23387  0.34653  0.59453  Biso   1.000  H
  C564     1.0000 0.17787  0.25333  0.58310  Biso   1.000  C
  H390     1.0000 0.20627  0.26093  0.57263  Biso   1.000  H
  C565     1.0000 0.11997  0.19133  0.58545  Biso   1.000  C
  C566     1.0000 0.10177  0.92153  0.60083  Biso   1.000  C
  H391     1.0000 0.09897  0.96103  0.60243  Biso   1.000  H
  C567     1.0000 0.13617  0.90503  0.61386  Biso   1.000  C
  H392     1.0000 0.15697  0.93343  0.62443  Biso   1.000  H
  N88      1.0000 0.24397  0.13743  0.49300  Biso   1.000  N
  C568     1.0000 0.23827  0.18893  0.50140  Biso   1.000  C
  H393     1.0000 0.26187  0.23303  0.49643  Biso   1.000  H
  C569     1.0000 0.19807  0.17583  0.51718  Biso   1.000  C
  H394     1.0000 0.19407  0.21093  0.52293  Biso   1.000  H
  C570     1.0000 0.16357  0.11123  0.52455  Biso   1.000  C
  C571     1.0000 0.16927  0.05973  0.51614  Biso   1.000  C
  H395     1.0000 0.14567  0.01563  0.52123  Biso   1.000  H
  C572     1.0000 0.20947  0.07283  0.50037  Biso   1.000  C
  H396     1.0000 0.21327  0.03763  0.49463  Biso   1.000  H
  Ag45     1.0000 0.84948  0.69552  0.96845  Biso   1.000  Ag
  O89      1.0000 0.70883  0.40887  0.90992  Biso   1.000  O
  O90      1.0000 0.63053  0.37437  0.87674  Biso   1.000  O
  C573     1.0000 0.76563  0.47247  0.90323  Biso   1.000  C
  C574     1.0000 0.51963  0.31747  0.88726  Biso   1.000  C
  H397     1.0000 0.47453  0.30347  0.88387  Biso   1.000  H
  C575     1.0000 0.56773  0.35997  0.87508  Biso   1.000  C
  N89      1.0000 0.81953  0.62637  0.94486  Biso   1.000  N
  C576     1.0000 0.86103  0.63757  0.92948  Biso   1.000  C
  H398     1.0000 0.90053  0.67987  0.92787  Biso   1.000  H
  C577     1.0000 0.84453  0.58667  0.91644  Biso   1.000  C
  H399     1.0000 0.87293  0.59427  0.90597  Biso   1.000  H
  C578     1.0000 0.78663  0.52467  0.91879  Biso   1.000  C
  C579     1.0000 0.76843  0.25487  0.93417  Biso   1.000  C
  H400     1.0000 0.76563  0.29437  0.93577  Biso   1.000  H
  C580     1.0000 0.80283  0.23837  0.94720  Biso   1.000  C
  H401     1.0000 0.82363  0.26677  0.95777  Biso   1.000  H
  N90      1.0000 0.91063  0.47077  0.82634  Biso   1.000  N
  C581     1.0000 0.90493  0.52227  0.83474  Biso   1.000  C
  H402     1.0000 0.92853  0.56637  0.82977  Biso   1.000  H
  C582     1.0000 0.86473  0.50917  0.85052  Biso   1.000  C
  H403     1.0000 0.86073  0.54427  0.85627  Biso   1.000  H
  C583     1.0000 0.83023  0.44457  0.85789  Biso   1.000  C
  C584     1.0000 0.83593  0.39307  0.84948  Biso   1.000  C
  H404     1.0000 0.81233  0.34897  0.85457  Biso   1.000  H
  C585     1.0000 0.87613  0.40617  0.83371  Biso   1.000  C
  H405     1.0000 0.87993  0.37097  0.82797  Biso   1.000  H
  Ag46     1.0000 0.51270  0.02885  0.80178  Biso   1.000  Ag
  O91      1.0000 0.36670  0.74220  0.74325  Biso   1.000  O
  O92      1.0000 0.41050  0.70770  0.71007  Biso   1.000  O
  C586     1.0000 0.37350  0.80580  0.73656  Biso   1.000  C
  C587     1.0000 0.46450  0.65080  0.72059  Biso   1.000  C
  H406     1.0000 0.49560  0.63680  0.71720  Biso   1.000  H
  C588     1.0000 0.45890  0.69330  0.70841  Biso   1.000  C
  N91      1.0000 0.47350  0.95970  0.77819  Biso   1.000  N
  C589     1.0000 0.44320  0.97090  0.76281  Biso   1.000  C
  H407     1.0000 0.44600  0.01320  0.76120  Biso   1.000  H
  C590     1.0000 0.40880  0.92000  0.74977  Biso   1.000  C
  H408     1.0000 0.38800  0.92760  0.73930  Biso   1.000  H
  C591     1.0000 0.40470  0.85800  0.75212  Biso   1.000  C
  C592     1.0000 0.15310  0.58820  0.76750  Biso   1.000  C
  H409     1.0000 0.19540  0.62770  0.76910  Biso   1.000  H
  C593     1.0000 0.10220  0.57170  0.78053  Biso   1.000  C
  H410     1.0000 0.10980  0.60010  0.79110  Biso   1.000  H
  N92      1.0000 0.22680  0.80410  0.65967  Biso   1.000  N
  C594     1.0000 0.28400  0.85560  0.66807  Biso   1.000  C
  H411     1.0000 0.30450  0.89970  0.66310  Biso   1.000  H
  C595     1.0000 0.31110  0.84250  0.68385  Biso   1.000  C
  H412     1.0000 0.35020  0.87760  0.68960  Biso   1.000  H
  C596     1.0000 0.28100  0.77790  0.69122  Biso   1.000  C
  C597     1.0000 0.22380  0.72640  0.68281  Biso   1.000  C
  H413     1.0000 0.20330  0.68230  0.68790  Biso   1.000  H
  C598     1.0000 0.19670  0.73950  0.66704  Biso   1.000  C
  H414     1.0000 0.15770  0.70430  0.66130  Biso   1.000  H
  Ag47     1.0000 0.17937  0.36218  0.13511  Biso   1.000  Ag
  O93      1.0000 0.03337  0.07553  0.07658  Biso   1.000  O
  O94      1.0000 0.07717  0.04103  0.04340  Biso   1.000  O
  C599     1.0000 0.04017  0.13913  0.06989  Biso   1.000  C
  C600     1.0000 0.13117  0.98413  0.05392  Biso   1.000  C
  H415     1.0000 0.16227  0.97013  0.05053  Biso   1.000  H
  C601     1.0000 0.12557  0.02663  0.04174  Biso   1.000  C
  N93      1.0000 0.14017  0.29303  0.11152  Biso   1.000  N
  C602     1.0000 0.10987  0.30423  0.09614  Biso   1.000  C
  H416     1.0000 0.11267  0.34653  0.09453  Biso   1.000  H
  C603     1.0000 0.07547  0.25333  0.08310  Biso   1.000  C
  H417     1.0000 0.05467  0.26093  0.07263  Biso   1.000  H
  C604     1.0000 0.07137  0.19133  0.08545  Biso   1.000  C
  C605     1.0000 0.81977  0.92153  0.10083  Biso   1.000  C
  H418     1.0000 0.86207  0.96103  0.10243  Biso   1.000  H
  C606     1.0000 0.76887  0.90503  0.11386  Biso   1.000  C
  H419     1.0000 0.77647  0.93343  0.12443  Biso   1.000  H
  N94      1.0000 0.89347  0.13743  0.99300  Biso   1.000  N
  C607     1.0000 0.95067  0.18893  0.00140  Biso   1.000  C
  H420     1.0000 0.97117  0.23303  0.99643  Biso   1.000  H
  C608     1.0000 0.97777  0.17583  0.01718  Biso   1.000  C
  H421     1.0000 0.01687  0.21093  0.02293  Biso   1.000  H
  C609     1.0000 0.94767  0.11123  0.02455  Biso   1.000  C
  C610     1.0000 0.89047  0.05973  0.01614  Biso   1.000  C
  H422     1.0000 0.86997  0.01563  0.02123  Biso   1.000  H
  C611     1.0000 0.86337  0.07283  0.00037  Biso   1.000  C
  H423     1.0000 0.82437  0.03763  0.99463  Biso   1.000  H
  Ag48     1.0000 0.84603  0.69552  0.46845  Biso   1.000  Ag
  O95      1.0000 0.70003  0.40887  0.40992  Biso   1.000  O
  O96      1.0000 0.74383  0.37437  0.37674  Biso   1.000  O
  C612     1.0000 0.70683  0.47247  0.40323  Biso   1.000  C
  C613     1.0000 0.79783  0.31747  0.38726  Biso   1.000  C
  H424     1.0000 0.82893  0.30347  0.38387  Biso   1.000  H
  C614     1.0000 0.79223  0.35997  0.37508  Biso   1.000  C
  N95      1.0000 0.80683  0.62637  0.44486  Biso   1.000  N
  C615     1.0000 0.77653  0.63757  0.42948  Biso   1.000  C
  H425     1.0000 0.77933  0.67987  0.42787  Biso   1.000  H
  C616     1.0000 0.74213  0.58667  0.41644  Biso   1.000  C
  H426     1.0000 0.72133  0.59427  0.40597  Biso   1.000  H
  C617     1.0000 0.73803  0.52467  0.41879  Biso   1.000  C
  C618     1.0000 0.48643  0.25487  0.43417  Biso   1.000  C
  H427     1.0000 0.52873  0.29437  0.43577  Biso   1.000  H
  C619     1.0000 0.43553  0.23837  0.44720  Biso   1.000  C
  H428     1.0000 0.44313  0.26677  0.45777  Biso   1.000  H
  N96      1.0000 0.56013  0.47077  0.32634  Biso   1.000  N
  C620     1.0000 0.61733  0.52227  0.33474  Biso   1.000  C
  H429     1.0000 0.63783  0.56637  0.32977  Biso   1.000  H
  C621     1.0000 0.64443  0.50917  0.35052  Biso   1.000  C
  H430     1.0000 0.68353  0.54427  0.35627  Biso   1.000  H
  C622     1.0000 0.61433  0.44457  0.35789  Biso   1.000  C
  C623     1.0000 0.55713  0.39307  0.34948  Biso   1.000  C
  H431     1.0000 0.53663  0.34897  0.35457  Biso   1.000  H
  C624     1.0000 0.53003  0.40617  0.33371  Biso   1.000  C
  H432     1.0000 0.49103  0.37097  0.32797  Biso   1.000  H
  Ag49     1.0000 0.51615  0.48730  0.80178  Biso   1.000  Ag
  O97      1.0000 0.37550  0.63330  0.74325  Biso   1.000  O
  O98      1.0000 0.29720  0.58950  0.71007  Biso   1.000  O
  C625     1.0000 0.43230  0.62650  0.73656  Biso   1.000  C
  C626     1.0000 0.18630  0.53550  0.72059  Biso   1.000  C
  H433     1.0000 0.14120  0.50440  0.71720  Biso   1.000  H
  C627     1.0000 0.23440  0.54110  0.70841  Biso   1.000  C
  N97      1.0000 0.48620  0.52650  0.77819  Biso   1.000  N
  C628     1.0000 0.52770  0.55680  0.76281  Biso   1.000  C
  H434     1.0000 0.56720  0.55400  0.76120  Biso   1.000  H
  C629     1.0000 0.51120  0.59120  0.74977  Biso   1.000  C
  H435     1.0000 0.53960  0.61200  0.73930  Biso   1.000  H
  C630     1.0000 0.45330  0.59530  0.75212  Biso   1.000  C
  C631     1.0000 0.43510  0.84690  0.76750  Biso   1.000  C
  H436     1.0000 0.43230  0.80460  0.76910  Biso   1.000  H
  C632     1.0000 0.46950  0.89780  0.78053  Biso   1.000  C
  H437     1.0000 0.49030  0.89020  0.79110  Biso   1.000  H
  N98      1.0000 0.57730  0.77320  0.65967  Biso   1.000  N
  C633     1.0000 0.57160  0.71600  0.66807  Biso   1.000  C
  H438     1.0000 0.59520  0.69550  0.66310  Biso   1.000  H
  C634     1.0000 0.53140  0.68890  0.68385  Biso   1.000  C
  H439     1.0000 0.52740  0.64980  0.68960  Biso   1.000  H
  C635     1.0000 0.49690  0.71900  0.69122  Biso   1.000  C
  C636     1.0000 0.50260  0.77620  0.68281  Biso   1.000  C
  H440     1.0000 0.47900  0.79670  0.68790  Biso   1.000  H
  C637     1.0000 0.54280  0.80330  0.66704  Biso   1.000  C
  H441     1.0000 0.54660  0.84230  0.66130  Biso   1.000  H
  Ag50     1.0000 0.18282  0.82063  0.13511  Biso   1.000  Ag
  O99      1.0000 0.04217  0.96663  0.07658  Biso   1.000  O
  O100     1.0000 0.96387  0.92283  0.04340  Biso   1.000  O
  C638     1.0000 0.09897  0.95983  0.06989  Biso   1.000  C
  C639     1.0000 0.85297  0.86883  0.05392  Biso   1.000  C
  H442     1.0000 0.80787  0.83773  0.05053  Biso   1.000  H
  C640     1.0000 0.90107  0.87443  0.04174  Biso   1.000  C
  N99      1.0000 0.15287  0.85983  0.11152  Biso   1.000  N
  C641     1.0000 0.19437  0.89013  0.09614  Biso   1.000  C
  H443     1.0000 0.23387  0.88733  0.09453  Biso   1.000  H
  C642     1.0000 0.17787  0.92453  0.08310  Biso   1.000  C
  H444     1.0000 0.20627  0.94533  0.07263  Biso   1.000  H
  C643     1.0000 0.11997  0.92863  0.08545  Biso   1.000  C
  C644     1.0000 0.10177  0.18023  0.10083  Biso   1.000  C
  H445     1.0000 0.09897  0.13793  0.10243  Biso   1.000  H
  C645     1.0000 0.13617  0.23113  0.11386  Biso   1.000  C
  H446     1.0000 0.15697  0.22353  0.12443  Biso   1.000  H
  N100     1.0000 0.24397  0.10653  0.99300  Biso   1.000  N
  C646     1.0000 0.23827  0.04933  0.00140  Biso   1.000  C
  H447     1.0000 0.26187  0.02883  0.99643  Biso   1.000  H
  C647     1.0000 0.19807  0.02223  0.01718  Biso   1.000  C
  H448     1.0000 0.19407  0.98313  0.02293  Biso   1.000  H
  C648     1.0000 0.16357  0.05233  0.02455  Biso   1.000  C
  C649     1.0000 0.16927  0.10953  0.01614  Biso   1.000  C
  H449     1.0000 0.14567  0.13003  0.02123  Biso   1.000  H
  C650     1.0000 0.20947  0.13663  0.00037  Biso   1.000  C
  H450     1.0000 0.21327  0.17563  0.99463  Biso   1.000  H
  Ag51     1.0000 0.84948  0.15397  0.46845  Biso   1.000  Ag
  O101     1.0000 0.70883  0.29997  0.40992  Biso   1.000  O
  O102     1.0000 0.63053  0.25617  0.37674  Biso   1.000  O
  C651     1.0000 0.76563  0.29317  0.40323  Biso   1.000  C
  C652     1.0000 0.51963  0.20217  0.38726  Biso   1.000  C
  H451     1.0000 0.47453  0.17107  0.38387  Biso   1.000  H
  C653     1.0000 0.56773  0.20777  0.37508  Biso   1.000  C
  N101     1.0000 0.81953  0.19317  0.44486  Biso   1.000  N
  C654     1.0000 0.86103  0.22347  0.42948  Biso   1.000  C
  H452     1.0000 0.90053  0.22067  0.42787  Biso   1.000  H
  C655     1.0000 0.84453  0.25787  0.41644  Biso   1.000  C
  H453     1.0000 0.87293  0.27867  0.40597  Biso   1.000  H
  C656     1.0000 0.78663  0.26197  0.41879  Biso   1.000  C
  C657     1.0000 0.76843  0.51357  0.43417  Biso   1.000  C
  H454     1.0000 0.76563  0.47127  0.43577  Biso   1.000  H
  C658     1.0000 0.80283  0.56447  0.44720  Biso   1.000  C
  H455     1.0000 0.82363  0.55687  0.45777  Biso   1.000  H
  N102     1.0000 0.91063  0.43987  0.32634  Biso   1.000  N
  C659     1.0000 0.90493  0.38267  0.33474  Biso   1.000  C
  H456     1.0000 0.92853  0.36217  0.32977  Biso   1.000  H
  C660     1.0000 0.86473  0.35557  0.35052  Biso   1.000  C
  H457     1.0000 0.86073  0.31647  0.35627  Biso   1.000  H
  C661     1.0000 0.83023  0.38567  0.35789  Biso   1.000  C
  C662     1.0000 0.83593  0.44287  0.34948  Biso   1.000  C
  H458     1.0000 0.81233  0.46337  0.35457  Biso   1.000  H
  C663     1.0000 0.87613  0.46997  0.33371  Biso   1.000  C
  H459     1.0000 0.87993  0.50897  0.32797  Biso   1.000  H
  Ag52     1.0000 0.97115  0.48385  0.80178  Biso   1.000  Ag
  O103     1.0000 0.25780  0.62450  0.74325  Biso   1.000  O
  O104     1.0000 0.29230  0.70280  0.71007  Biso   1.000  O
  C664     1.0000 0.19420  0.56770  0.73656  Biso   1.000  C
  C665     1.0000 0.34920  0.81370  0.72059  Biso   1.000  C
  H460     1.0000 0.36320  0.85880  0.71720  Biso   1.000  H
  C666     1.0000 0.30670  0.76560  0.70841  Biso   1.000  C
  N103     1.0000 0.04030  0.51380  0.77819  Biso   1.000  N
  C667     1.0000 0.02910  0.47230  0.76281  Biso   1.000  C
  H461     1.0000 0.98680  0.43280  0.76120  Biso   1.000  H
  C668     1.0000 0.08000  0.48880  0.74977  Biso   1.000  C
  H462     1.0000 0.07240  0.46040  0.73930  Biso   1.000  H
  C669     1.0000 0.14200  0.54670  0.75212  Biso   1.000  C
  C670     1.0000 0.41180  0.56490  0.76750  Biso   1.000  C
  H463     1.0000 0.37230  0.56770  0.76910  Biso   1.000  H
  C671     1.0000 0.42830  0.53050  0.78053  Biso   1.000  C
  H464     1.0000 0.39990  0.50970  0.79110  Biso   1.000  H
  N104     1.0000 0.19590  0.42270  0.65967  Biso   1.000  N
  C672     1.0000 0.14440  0.42840  0.66807  Biso   1.000  C
  H465     1.0000 0.10030  0.40480  0.66310  Biso   1.000  H
  C673     1.0000 0.15750  0.46860  0.68385  Biso   1.000  C
  H466     1.0000 0.12240  0.47260  0.68960  Biso   1.000  H
  C674     1.0000 0.22210  0.50310  0.69122  Biso   1.000  C
  C675     1.0000 0.27360  0.49740  0.68281  Biso   1.000  C
  H467     1.0000 0.31770  0.52100  0.68790  Biso   1.000  H
  C676     1.0000 0.26050  0.45720  0.66704  Biso   1.000  C
  H468     1.0000 0.29570  0.45340  0.66130  Biso   1.000  H
  Ag53     1.0000 0.63782  0.81718  0.13511  Biso   1.000  Ag
  O105     1.0000 0.92447  0.95783  0.07658  Biso   1.000  O
  O106     1.0000 0.95897  0.03613  0.04340  Biso   1.000  O
  C677     1.0000 0.86087  0.90103  0.06989  Biso   1.000  C
  C678     1.0000 0.01587  0.14703  0.05392  Biso   1.000  C
  H469     1.0000 0.02987  0.19213  0.05053  Biso   1.000  H
  C679     1.0000 0.97337  0.09893  0.04174  Biso   1.000  C
  N105     1.0000 0.70697  0.84713  0.11152  Biso   1.000  N
  C680     1.0000 0.69577  0.80563  0.09614  Biso   1.000  C
  H470     1.0000 0.65347  0.76613  0.09453  Biso   1.000  H
  C681     1.0000 0.74667  0.82213  0.08310  Biso   1.000  C
  H471     1.0000 0.73907  0.79373  0.07263  Biso   1.000  H
  C682     1.0000 0.80867  0.88003  0.08545  Biso   1.000  C
  C683     1.0000 0.07847  0.89823  0.10083  Biso   1.000  C
  H472     1.0000 0.03897  0.90103  0.10243  Biso   1.000  H
  C684     1.0000 0.09497  0.86383  0.11386  Biso   1.000  C
  H473     1.0000 0.06657  0.84303  0.12443  Biso   1.000  H
  N106     1.0000 0.86257  0.75603  0.99300  Biso   1.000  N
  C685     1.0000 0.81107  0.76173  0.00140  Biso   1.000  C
  H474     1.0000 0.76697  0.73813  0.99643  Biso   1.000  H
  C686     1.0000 0.82417  0.80193  0.01718  Biso   1.000  C
  H475     1.0000 0.78907  0.80593  0.02293  Biso   1.000  H
  C687     1.0000 0.88877  0.83643  0.02455  Biso   1.000  C
  C688     1.0000 0.94027  0.83073  0.01614  Biso   1.000  C
  H476     1.0000 0.98437  0.85433  0.02123  Biso   1.000  H
  C689     1.0000 0.92717  0.79053  0.00037  Biso   1.000  C
  H477     1.0000 0.96237  0.78673  0.99463  Biso   1.000  H
  Ag54     1.0000 0.30448  0.15052  0.46845  Biso   1.000  Ag
  O107     1.0000 0.59113  0.29117  0.40992  Biso   1.000  O
  O108     1.0000 0.62563  0.36947  0.37674  Biso   1.000  O
  C690     1.0000 0.52753  0.23437  0.40323  Biso   1.000  C
  C691     1.0000 0.68253  0.48037  0.38726  Biso   1.000  C
  H478     1.0000 0.69653  0.52547  0.38387  Biso   1.000  H
  C692     1.0000 0.64003  0.43227  0.37508  Biso   1.000  C
  N107     1.0000 0.37363  0.18047  0.44486  Biso   1.000  N
  C693     1.0000 0.36243  0.13897  0.42948  Biso   1.000  C
  H479     1.0000 0.32013  0.09947  0.42787  Biso   1.000  H
  C694     1.0000 0.41333  0.15547  0.41644  Biso   1.000  C
  H480     1.0000 0.40573  0.12707  0.40597  Biso   1.000  H
  C695     1.0000 0.47533  0.21337  0.41879  Biso   1.000  C
  C696     1.0000 0.74513  0.23157  0.43417  Biso   1.000  C
  H481     1.0000 0.70563  0.23437  0.43577  Biso   1.000  H
  C697     1.0000 0.76163  0.19717  0.44720  Biso   1.000  C
  H482     1.0000 0.73323  0.17637  0.45777  Biso   1.000  H
  N108     1.0000 0.52923  0.08937  0.32634  Biso   1.000  N
  C698     1.0000 0.47773  0.09507  0.33474  Biso   1.000  C
  H483     1.0000 0.43363  0.07147  0.32977  Biso   1.000  H
  C699     1.0000 0.49083  0.13527  0.35052  Biso   1.000  C
  H484     1.0000 0.45573  0.13927  0.35627  Biso   1.000  H
  C700     1.0000 0.55543  0.16977  0.35789  Biso   1.000  C
  C701     1.0000 0.60693  0.16407  0.34948  Biso   1.000  C
  H485     1.0000 0.65103  0.18767  0.35457  Biso   1.000  H
  C702     1.0000 0.59383  0.12387  0.33371  Biso   1.000  C
  H486     1.0000 0.62903  0.12007  0.32797  Biso   1.000  H
  Ga13     1.0000 0.33333  0.66667  0.22681  Biso   1.000  Ga
  Ga14     1.0000 0.00000  0.00000  0.56014  Biso   1.000  Ga
  Ga15     1.0000 0.66667  0.33333  0.89348  Biso   1.000  Ga
  Ga16     1.0000 0.33333  0.66667  0.72681  Biso   1.000  Ga
  Ga17     1.0000 0.00000  0.00000  0.06014  Biso   1.000  Ga
  Ga18     1.0000 0.66667  0.33333  0.39348  Biso   1.000  Ga
