data_image0
_cell_length_a       39.7379
_cell_length_b       39.7379
_cell_length_c       39.7379
_cell_angle_alpha    90
_cell_angle_beta     90
_cell_angle_gamma    90

_symmetry_space_group_name_H-M    "P 1"
_symmetry_int_tables_number       1

loop_
  _symmetry_equiv_pos_as_xyz
  'x, y, z'

loop_
  _atom_site_label
  _atom_site_occupancy
  _atom_site_fract_x
  _atom_site_fract_y
  _atom_site_fract_z
  _atom_site_thermal_displace_type
  _atom_site_B_iso_or_equiv
  _atom_site_type_symbol
  Mo1      1.0000 0.18296  0.34713  0.08830  Biso   1.000  Mo
  Mo2      1.0000 0.10589  0.30151  0.00839  Biso   1.000  Mo
  Mo3      1.0000 0.10009  0.38248  0.98586  Biso   1.000  Mo
  P1       1.0000 0.17679  0.34931  0.00647  Biso   1.000  P
  O1       1.0000 0.21256  0.34413  0.99358  Biso   1.000  O
  O2       1.0000 0.17824  0.36603  0.04196  Biso   1.000  O
  O3       1.0000 0.16684  0.39777  0.09640  Biso   1.000  O
  O4       1.0000 0.16871  0.45859  0.10991  Biso   1.000  O
  O5       1.0000 0.15905  0.31536  0.00808  Biso   1.000  O
  O6       1.0000 0.10228  0.34893  0.02011  Biso   1.000  O
  O7       1.0000 0.15751  0.37500  0.98452  Biso   1.000  O
  O8       1.0000 0.19371  0.34951  0.13508  Biso   1.000  O
  Mo4      1.0000 0.68296  0.84713  0.58830  Biso   1.000  Mo
  Mo5      1.0000 0.60589  0.80151  0.50839  Biso   1.000  Mo
  Mo6      1.0000 0.60009  0.88248  0.48586  Biso   1.000  Mo
  P2       1.0000 0.67679  0.84931  0.50647  Biso   1.000  P
  O9       1.0000 0.71256  0.84413  0.49358  Biso   1.000  O
  O10      1.0000 0.67824  0.86603  0.54196  Biso   1.000  O
  O11      1.0000 0.66684  0.89777  0.59640  Biso   1.000  O
  O12      1.0000 0.66871  0.95859  0.60991  Biso   1.000  O
  O13      1.0000 0.65905  0.81536  0.50808  Biso   1.000  O
  O14      1.0000 0.60228  0.84893  0.52011  Biso   1.000  O
  O15      1.0000 0.65751  0.87500  0.48452  Biso   1.000  O
  O16      1.0000 0.69371  0.84951  0.63508  Biso   1.000  O
  Mo7      1.0000 0.31704  0.65287  0.58830  Biso   1.000  Mo
  Mo8      1.0000 0.39411  0.69849  0.50839  Biso   1.000  Mo
  Mo9      1.0000 0.39991  0.61752  0.48586  Biso   1.000  Mo
  P3       1.0000 0.32321  0.65069  0.50647  Biso   1.000  P
  O17      1.0000 0.28744  0.65587  0.49358  Biso   1.000  O
  O18      1.0000 0.32176  0.63397  0.54196  Biso   1.000  O
  O19      1.0000 0.33316  0.60223  0.59640  Biso   1.000  O
  O20      1.0000 0.33129  0.54141  0.60991  Biso   1.000  O
  O21      1.0000 0.34095  0.68464  0.50808  Biso   1.000  O
  O22      1.0000 0.39772  0.65107  0.52011  Biso   1.000  O
  O23      1.0000 0.34249  0.62500  0.48452  Biso   1.000  O
  O24      1.0000 0.30629  0.65049  0.63508  Biso   1.000  O
  Mo10     1.0000 0.81704  0.15287  0.08830  Biso   1.000  Mo
  Mo11     1.0000 0.89411  0.19849  0.00839  Biso   1.000  Mo
  Mo12     1.0000 0.89991  0.11752  0.98586  Biso   1.000  Mo
  P4       1.0000 0.82321  0.15069  0.00647  Biso   1.000  P
  O25      1.0000 0.78744  0.15587  0.99358  Biso   1.000  O
  O26      1.0000 0.82176  0.13397  0.04196  Biso   1.000  O
  O27      1.0000 0.83316  0.10223  0.09640  Biso   1.000  O
  O28      1.0000 0.83129  0.04141  0.10991  Biso   1.000  O
  O29      1.0000 0.84095  0.18464  0.00808  Biso   1.000  O
  O30      1.0000 0.89772  0.15107  0.02011  Biso   1.000  O
  O31      1.0000 0.84249  0.12500  0.98452  Biso   1.000  O
  O32      1.0000 0.80629  0.15049  0.13508  Biso   1.000  O
  Mo13     1.0000 0.81704  0.84713  0.41170  Biso   1.000  Mo
  Mo14     1.0000 0.89411  0.80151  0.49161  Biso   1.000  Mo
  Mo15     1.0000 0.89991  0.88248  0.51414  Biso   1.000  Mo
  P5       1.0000 0.82321  0.84931  0.49353  Biso   1.000  P
  O33      1.0000 0.78744  0.84413  0.50642  Biso   1.000  O
  O34      1.0000 0.82176  0.86603  0.45804  Biso   1.000  O
  O35      1.0000 0.83316  0.89777  0.40360  Biso   1.000  O
  O36      1.0000 0.83129  0.95859  0.39009  Biso   1.000  O
  O37      1.0000 0.84095  0.81536  0.49192  Biso   1.000  O
  O38      1.0000 0.89772  0.84893  0.47989  Biso   1.000  O
  O39      1.0000 0.84249  0.87500  0.51548  Biso   1.000  O
  O40      1.0000 0.80629  0.84951  0.36492  Biso   1.000  O
  Mo16     1.0000 0.31704  0.34713  0.91170  Biso   1.000  Mo
  Mo17     1.0000 0.39411  0.30151  0.99161  Biso   1.000  Mo
  Mo18     1.0000 0.39991  0.38248  0.01414  Biso   1.000  Mo
  P6       1.0000 0.32321  0.34931  0.99353  Biso   1.000  P
  O41      1.0000 0.28744  0.34413  0.00642  Biso   1.000  O
  O42      1.0000 0.32176  0.36603  0.95804  Biso   1.000  O
  O43      1.0000 0.33316  0.39777  0.90360  Biso   1.000  O
  O44      1.0000 0.33129  0.45859  0.89009  Biso   1.000  O
  O45      1.0000 0.34095  0.31536  0.99192  Biso   1.000  O
  O46      1.0000 0.39772  0.34893  0.97989  Biso   1.000  O
  O47      1.0000 0.34249  0.37500  0.01548  Biso   1.000  O
  O48      1.0000 0.30629  0.34951  0.86492  Biso   1.000  O
  Mo19     1.0000 0.68296  0.15287  0.91170  Biso   1.000  Mo
  Mo20     1.0000 0.60589  0.19849  0.99161  Biso   1.000  Mo
  Mo21     1.0000 0.60009  0.11752  0.01414  Biso   1.000  Mo
  P7       1.0000 0.67679  0.15069  0.99353  Biso   1.000  P
  O49      1.0000 0.71256  0.15587  0.00642  Biso   1.000  O
  O50      1.0000 0.67824  0.13397  0.95804  Biso   1.000  O
  O51      1.0000 0.66684  0.10223  0.90360  Biso   1.000  O
  O52      1.0000 0.66871  0.04141  0.89009  Biso   1.000  O
  O53      1.0000 0.65905  0.18464  0.99192  Biso   1.000  O
  O54      1.0000 0.60228  0.15107  0.97989  Biso   1.000  O
  O55      1.0000 0.65751  0.12500  0.01548  Biso   1.000  O
  O56      1.0000 0.69371  0.15049  0.86492  Biso   1.000  O
  Mo22     1.0000 0.18296  0.65287  0.41170  Biso   1.000  Mo
  Mo23     1.0000 0.10589  0.69849  0.49161  Biso   1.000  Mo
  Mo24     1.0000 0.10009  0.61752  0.51414  Biso   1.000  Mo
  P8       1.0000 0.17679  0.65069  0.49353  Biso   1.000  P
  O57      1.0000 0.21256  0.65587  0.50642  Biso   1.000  O
  O58      1.0000 0.17824  0.63397  0.45804  Biso   1.000  O
  O59      1.0000 0.16684  0.60223  0.40360  Biso   1.000  O
  O60      1.0000 0.16871  0.54141  0.39009  Biso   1.000  O
  O61      1.0000 0.15905  0.68464  0.49192  Biso   1.000  O
  O62      1.0000 0.10228  0.65107  0.47989  Biso   1.000  O
  O63      1.0000 0.15751  0.62500  0.51548  Biso   1.000  O
  O64      1.0000 0.19371  0.65049  0.36492  Biso   1.000  O
  Mo25     1.0000 0.08830  0.18296  0.34713  Biso   1.000  Mo
  Mo26     1.0000 0.00839  0.10589  0.30151  Biso   1.000  Mo
  Mo27     1.0000 0.98586  0.10009  0.38248  Biso   1.000  Mo
  P9       1.0000 0.00647  0.17679  0.34931  Biso   1.000  P
  O65      1.0000 0.99358  0.21256  0.34413  Biso   1.000  O
  O66      1.0000 0.04196  0.17824  0.36603  Biso   1.000  O
  O67      1.0000 0.09640  0.16684  0.39777  Biso   1.000  O
  O68      1.0000 0.10991  0.16871  0.45859  Biso   1.000  O
  O69      1.0000 0.00808  0.15905  0.31536  Biso   1.000  O
  O70      1.0000 0.02011  0.10228  0.34893  Biso   1.000  O
  O71      1.0000 0.98452  0.15751  0.37500  Biso   1.000  O
  O72      1.0000 0.13508  0.19371  0.34951  Biso   1.000  O
  Mo28     1.0000 0.58830  0.68296  0.84713  Biso   1.000  Mo
  Mo29     1.0000 0.50839  0.60589  0.80151  Biso   1.000  Mo
  Mo30     1.0000 0.48586  0.60009  0.88248  Biso   1.000  Mo
  P10      1.0000 0.50647  0.67679  0.84931  Biso   1.000  P
  O73      1.0000 0.49358  0.71256  0.84413  Biso   1.000  O
  O74      1.0000 0.54196  0.67824  0.86603  Biso   1.000  O
  O75      1.0000 0.59640  0.66684  0.89777  Biso   1.000  O
  O76      1.0000 0.60991  0.66871  0.95859  Biso   1.000  O
  O77      1.0000 0.50808  0.65905  0.81536  Biso   1.000  O
  O78      1.0000 0.52011  0.60228  0.84893  Biso   1.000  O
  O79      1.0000 0.48452  0.65751  0.87500  Biso   1.000  O
  O80      1.0000 0.63508  0.69371  0.84951  Biso   1.000  O
  Mo31     1.0000 0.58830  0.31704  0.65287  Biso   1.000  Mo
  Mo32     1.0000 0.50839  0.39411  0.69849  Biso   1.000  Mo
  Mo33     1.0000 0.48586  0.39991  0.61752  Biso   1.000  Mo
  P11      1.0000 0.50647  0.32321  0.65069  Biso   1.000  P
  O81      1.0000 0.49358  0.28744  0.65587  Biso   1.000  O
  O82      1.0000 0.54196  0.32176  0.63397  Biso   1.000  O
  O83      1.0000 0.59640  0.33316  0.60223  Biso   1.000  O
  O84      1.0000 0.60991  0.33129  0.54141  Biso   1.000  O
  O85      1.0000 0.50808  0.34095  0.68464  Biso   1.000  O
  O86      1.0000 0.52011  0.39772  0.65107  Biso   1.000  O
  O87      1.0000 0.48452  0.34249  0.62500  Biso   1.000  O
  O88      1.0000 0.63508  0.30629  0.65049  Biso   1.000  O
  Mo34     1.0000 0.08830  0.81704  0.15287  Biso   1.000  Mo
  Mo35     1.0000 0.00839  0.89411  0.19849  Biso   1.000  Mo
  Mo36     1.0000 0.98586  0.89991  0.11752  Biso   1.000  Mo
  P12      1.0000 0.00647  0.82321  0.15069  Biso   1.000  P
  O89      1.0000 0.99358  0.78744  0.15587  Biso   1.000  O
  O90      1.0000 0.04196  0.82176  0.13397  Biso   1.000  O
  O91      1.0000 0.09640  0.83316  0.10223  Biso   1.000  O
  O92      1.0000 0.10991  0.83129  0.04141  Biso   1.000  O
  O93      1.0000 0.00808  0.84095  0.18464  Biso   1.000  O
  O94      1.0000 0.02011  0.89772  0.15107  Biso   1.000  O
  O95      1.0000 0.98452  0.84249  0.12500  Biso   1.000  O
  O96      1.0000 0.13508  0.80629  0.15049  Biso   1.000  O
  Mo37     1.0000 0.41170  0.81704  0.84713  Biso   1.000  Mo
  Mo38     1.0000 0.49161  0.89411  0.80151  Biso   1.000  Mo
  Mo39     1.0000 0.51414  0.89991  0.88248  Biso   1.000  Mo
  P13      1.0000 0.49353  0.82321  0.84931  Biso   1.000  P
  O97      1.0000 0.50642  0.78744  0.84413  Biso   1.000  O
  O98      1.0000 0.45804  0.82176  0.86603  Biso   1.000  O
  O99      1.0000 0.40360  0.83316  0.89777  Biso   1.000  O
  O100     1.0000 0.39009  0.83129  0.95859  Biso   1.000  O
  O101     1.0000 0.49192  0.84095  0.81536  Biso   1.000  O
  O102     1.0000 0.47989  0.89772  0.84893  Biso   1.000  O
  O103     1.0000 0.51548  0.84249  0.87500  Biso   1.000  O
  O104     1.0000 0.36492  0.80629  0.84951  Biso   1.000  O
  Mo40     1.0000 0.91170  0.31704  0.34713  Biso   1.000  Mo
  Mo41     1.0000 0.99161  0.39411  0.30151  Biso   1.000  Mo
  Mo42     1.0000 0.01414  0.39991  0.38248  Biso   1.000  Mo
  P14      1.0000 0.99353  0.32321  0.34931  Biso   1.000  P
  O105     1.0000 0.00642  0.28744  0.34413  Biso   1.000  O
  O106     1.0000 0.95804  0.32176  0.36603  Biso   1.000  O
  O107     1.0000 0.90360  0.33316  0.39777  Biso   1.000  O
  O108     1.0000 0.89009  0.33129  0.45859  Biso   1.000  O
  O109     1.0000 0.99192  0.34095  0.31536  Biso   1.000  O
  O110     1.0000 0.97989  0.39772  0.34893  Biso   1.000  O
  O111     1.0000 0.01548  0.34249  0.37500  Biso   1.000  O
  O112     1.0000 0.86492  0.30629  0.34951  Biso   1.000  O
  Mo43     1.0000 0.91170  0.68296  0.15287  Biso   1.000  Mo
  Mo44     1.0000 0.99161  0.60589  0.19849  Biso   1.000  Mo
  Mo45     1.0000 0.01414  0.60009  0.11752  Biso   1.000  Mo
  P15      1.0000 0.99353  0.67679  0.15069  Biso   1.000  P
  O113     1.0000 0.00642  0.71256  0.15587  Biso   1.000  O
  O114     1.0000 0.95804  0.67824  0.13397  Biso   1.000  O
  O115     1.0000 0.90360  0.66684  0.10223  Biso   1.000  O
  O116     1.0000 0.89009  0.66871  0.04141  Biso   1.000  O
  O117     1.0000 0.99192  0.65905  0.18464  Biso   1.000  O
  O118     1.0000 0.97989  0.60228  0.15107  Biso   1.000  O
  O119     1.0000 0.01548  0.65751  0.12500  Biso   1.000  O
  O120     1.0000 0.86492  0.69371  0.15049  Biso   1.000  O
  Mo46     1.0000 0.41170  0.18296  0.65287  Biso   1.000  Mo
  Mo47     1.0000 0.49161  0.10589  0.69849  Biso   1.000  Mo
  Mo48     1.0000 0.51414  0.10009  0.61752  Biso   1.000  Mo
  P16      1.0000 0.49353  0.17679  0.65069  Biso   1.000  P
  O121     1.0000 0.50642  0.21256  0.65587  Biso   1.000  O
  O122     1.0000 0.45804  0.17824  0.63397  Biso   1.000  O
  O123     1.0000 0.40360  0.16684  0.60223  Biso   1.000  O
  O124     1.0000 0.39009  0.16871  0.54141  Biso   1.000  O
  O125     1.0000 0.49192  0.15905  0.68464  Biso   1.000  O
  O126     1.0000 0.47989  0.10228  0.65107  Biso   1.000  O
  O127     1.0000 0.51548  0.15751  0.62500  Biso   1.000  O
  O128     1.0000 0.36492  0.19371  0.65049  Biso   1.000  O
  Mo49     1.0000 0.34713  0.08830  0.18296  Biso   1.000  Mo
  Mo50     1.0000 0.30151  0.00839  0.10589  Biso   1.000  Mo
  Mo51     1.0000 0.38248  0.98586  0.10009  Biso   1.000  Mo
  P17      1.0000 0.34931  0.00647  0.17679  Biso   1.000  P
  O129     1.0000 0.34413  0.99358  0.21256  Biso   1.000  O
  O130     1.0000 0.36603  0.04196  0.17824  Biso   1.000  O
  O131     1.0000 0.39777  0.09640  0.16684  Biso   1.000  O
  O132     1.0000 0.45859  0.10991  0.16871  Biso   1.000  O
  O133     1.0000 0.31536  0.00808  0.15905  Biso   1.000  O
  O134     1.0000 0.34893  0.02011  0.10228  Biso   1.000  O
  O135     1.0000 0.37500  0.98452  0.15751  Biso   1.000  O
  O136     1.0000 0.34951  0.13508  0.19371  Biso   1.000  O
  Mo52     1.0000 0.84713  0.58830  0.68296  Biso   1.000  Mo
  Mo53     1.0000 0.80151  0.50839  0.60589  Biso   1.000  Mo
  Mo54     1.0000 0.88248  0.48586  0.60009  Biso   1.000  Mo
  P18      1.0000 0.84931  0.50647  0.67679  Biso   1.000  P
  O137     1.0000 0.84413  0.49358  0.71256  Biso   1.000  O
  O138     1.0000 0.86603  0.54196  0.67824  Biso   1.000  O
  O139     1.0000 0.89777  0.59640  0.66684  Biso   1.000  O
  O140     1.0000 0.95859  0.60991  0.66871  Biso   1.000  O
  O141     1.0000 0.81536  0.50808  0.65905  Biso   1.000  O
  O142     1.0000 0.84893  0.52011  0.60228  Biso   1.000  O
  O143     1.0000 0.87500  0.48452  0.65751  Biso   1.000  O
  O144     1.0000 0.84951  0.63508  0.69371  Biso   1.000  O
  Mo55     1.0000 0.65287  0.58830  0.31704  Biso   1.000  Mo
  Mo56     1.0000 0.69849  0.50839  0.39411  Biso   1.000  Mo
  Mo57     1.0000 0.61752  0.48586  0.39991  Biso   1.000  Mo
  P19      1.0000 0.65069  0.50647  0.32321  Biso   1.000  P
  O145     1.0000 0.65587  0.49358  0.28744  Biso   1.000  O
  O146     1.0000 0.63397  0.54196  0.32176  Biso   1.000  O
  O147     1.0000 0.60223  0.59640  0.33316  Biso   1.000  O
  O148     1.0000 0.54141  0.60991  0.33129  Biso   1.000  O
  O149     1.0000 0.68464  0.50808  0.34095  Biso   1.000  O
  O150     1.0000 0.65107  0.52011  0.39772  Biso   1.000  O
  O151     1.0000 0.62500  0.48452  0.34249  Biso   1.000  O
  O152     1.0000 0.65049  0.63508  0.30629  Biso   1.000  O
  Mo58     1.0000 0.15287  0.08830  0.81704  Biso   1.000  Mo
  Mo59     1.0000 0.19849  0.00839  0.89411  Biso   1.000  Mo
  Mo60     1.0000 0.11752  0.98586  0.89991  Biso   1.000  Mo
  P20      1.0000 0.15069  0.00647  0.82321  Biso   1.000  P
  O153     1.0000 0.15587  0.99358  0.78744  Biso   1.000  O
  O154     1.0000 0.13397  0.04196  0.82176  Biso   1.000  O
  O155     1.0000 0.10223  0.09640  0.83316  Biso   1.000  O
  O156     1.0000 0.04141  0.10991  0.83129  Biso   1.000  O
  O157     1.0000 0.18464  0.00808  0.84095  Biso   1.000  O
  O158     1.0000 0.15107  0.02011  0.89772  Biso   1.000  O
  O159     1.0000 0.12500  0.98452  0.84249  Biso   1.000  O
  O160     1.0000 0.15049  0.13508  0.80629  Biso   1.000  O
  Mo61     1.0000 0.84713  0.41170  0.81704  Biso   1.000  Mo
  Mo62     1.0000 0.80151  0.49161  0.89411  Biso   1.000  Mo
  Mo63     1.0000 0.88248  0.51414  0.89991  Biso   1.000  Mo
  P21      1.0000 0.84931  0.49353  0.82321  Biso   1.000  P
  O161     1.0000 0.84413  0.50642  0.78744  Biso   1.000  O
  O162     1.0000 0.86603  0.45804  0.82176  Biso   1.000  O
  O163     1.0000 0.89777  0.40360  0.83316  Biso   1.000  O
  O164     1.0000 0.95859  0.39009  0.83129  Biso   1.000  O
  O165     1.0000 0.81536  0.49192  0.84095  Biso   1.000  O
  O166     1.0000 0.84893  0.47989  0.89772  Biso   1.000  O
  O167     1.0000 0.87500  0.51548  0.84249  Biso   1.000  O
  O168     1.0000 0.84951  0.36492  0.80629  Biso   1.000  O
  Mo64     1.0000 0.34713  0.91170  0.31704  Biso   1.000  Mo
  Mo65     1.0000 0.30151  0.99161  0.39411  Biso   1.000  Mo
  Mo66     1.0000 0.38248  0.01414  0.39991  Biso   1.000  Mo
  P22      1.0000 0.34931  0.99353  0.32321  Biso   1.000  P
  O169     1.0000 0.34413  0.00642  0.28744  Biso   1.000  O
  O170     1.0000 0.36603  0.95804  0.32176  Biso   1.000  O
  O171     1.0000 0.39777  0.90360  0.33316  Biso   1.000  O
  O172     1.0000 0.45859  0.89009  0.33129  Biso   1.000  O
  O173     1.0000 0.31536  0.99192  0.34095  Biso   1.000  O
  O174     1.0000 0.34893  0.97989  0.39772  Biso   1.000  O
  O175     1.0000 0.37500  0.01548  0.34249  Biso   1.000  O
  O176     1.0000 0.34951  0.86492  0.30629  Biso   1.000  O
  Mo67     1.0000 0.15287  0.91170  0.68296  Biso   1.000  Mo
  Mo68     1.0000 0.19849  0.99161  0.60589  Biso   1.000  Mo
  Mo69     1.0000 0.11752  0.01414  0.60009  Biso   1.000  Mo
  P23      1.0000 0.15069  0.99353  0.67679  Biso   1.000  P
  O177     1.0000 0.15587  0.00642  0.71256  Biso   1.000  O
  O178     1.0000 0.13397  0.95804  0.67824  Biso   1.000  O
  O179     1.0000 0.10223  0.90360  0.66684  Biso   1.000  O
  O180     1.0000 0.04141  0.89009  0.66871  Biso   1.000  O
  O181     1.0000 0.18464  0.99192  0.65905  Biso   1.000  O
  O182     1.0000 0.15107  0.97989  0.60228  Biso   1.000  O
  O183     1.0000 0.12500  0.01548  0.65751  Biso   1.000  O
  O184     1.0000 0.15049  0.86492  0.69371  Biso   1.000  O
  Mo70     1.0000 0.65287  0.41170  0.18296  Biso   1.000  Mo
  Mo71     1.0000 0.69849  0.49161  0.10589  Biso   1.000  Mo
  Mo72     1.0000 0.61752  0.51414  0.10009  Biso   1.000  Mo
  P24      1.0000 0.65069  0.49353  0.17679  Biso   1.000  P
  O185     1.0000 0.65587  0.50642  0.21256  Biso   1.000  O
  O186     1.0000 0.63397  0.45804  0.17824  Biso   1.000  O
  O187     1.0000 0.60223  0.40360  0.16684  Biso   1.000  O
  O188     1.0000 0.54141  0.39009  0.16871  Biso   1.000  O
  O189     1.0000 0.68464  0.49192  0.15905  Biso   1.000  O
  O190     1.0000 0.65107  0.47989  0.10228  Biso   1.000  O
  O191     1.0000 0.62500  0.51548  0.15751  Biso   1.000  O
  O192     1.0000 0.65049  0.36492  0.19371  Biso   1.000  O
  Mo73     1.0000 0.09713  0.43296  0.16170  Biso   1.000  Mo
  Mo74     1.0000 0.05151  0.35589  0.24161  Biso   1.000  Mo
  Mo75     1.0000 0.13248  0.35009  0.26414  Biso   1.000  Mo
  P25      1.0000 0.09931  0.42679  0.24353  Biso   1.000  P
  O193     1.0000 0.09413  0.46256  0.25642  Biso   1.000  O
  O194     1.0000 0.11603  0.42824  0.20804  Biso   1.000  O
  O195     1.0000 0.14777  0.41684  0.15360  Biso   1.000  O
  O196     1.0000 0.20859  0.41871  0.14009  Biso   1.000  O
  O197     1.0000 0.06536  0.40905  0.24192  Biso   1.000  O
  O198     1.0000 0.09893  0.35228  0.22989  Biso   1.000  O
  O199     1.0000 0.12500  0.40751  0.26548  Biso   1.000  O
  O200     1.0000 0.09951  0.44371  0.11492  Biso   1.000  O
  Mo76     1.0000 0.59713  0.93296  0.66170  Biso   1.000  Mo
  Mo77     1.0000 0.55151  0.85589  0.74161  Biso   1.000  Mo
  Mo78     1.0000 0.63248  0.85009  0.76414  Biso   1.000  Mo
  P26      1.0000 0.59931  0.92679  0.74353  Biso   1.000  P
  O201     1.0000 0.59413  0.96256  0.75642  Biso   1.000  O
  O202     1.0000 0.61603  0.92824  0.70804  Biso   1.000  O
  O203     1.0000 0.64777  0.91684  0.65360  Biso   1.000  O
  O204     1.0000 0.70859  0.91871  0.64009  Biso   1.000  O
  O205     1.0000 0.56536  0.90905  0.74192  Biso   1.000  O
  O206     1.0000 0.59893  0.85228  0.72989  Biso   1.000  O
  O207     1.0000 0.62500  0.90751  0.76548  Biso   1.000  O
  O208     1.0000 0.59951  0.94371  0.61492  Biso   1.000  O
  Mo79     1.0000 0.40287  0.56704  0.66170  Biso   1.000  Mo
  Mo80     1.0000 0.44849  0.64411  0.74161  Biso   1.000  Mo
  Mo81     1.0000 0.36752  0.64991  0.76414  Biso   1.000  Mo
  P27      1.0000 0.40069  0.57321  0.74353  Biso   1.000  P
  O209     1.0000 0.40587  0.53744  0.75642  Biso   1.000  O
  O210     1.0000 0.38397  0.57176  0.70804  Biso   1.000  O
  O211     1.0000 0.35223  0.58316  0.65360  Biso   1.000  O
  O212     1.0000 0.29141  0.58129  0.64009  Biso   1.000  O
  O213     1.0000 0.43464  0.59095  0.74192  Biso   1.000  O
  O214     1.0000 0.40107  0.64772  0.72989  Biso   1.000  O
  O215     1.0000 0.37500  0.59249  0.76548  Biso   1.000  O
  O216     1.0000 0.40049  0.55629  0.61492  Biso   1.000  O
  Mo82     1.0000 0.90287  0.06704  0.16170  Biso   1.000  Mo
  Mo83     1.0000 0.94849  0.14411  0.24161  Biso   1.000  Mo
  Mo84     1.0000 0.86752  0.14991  0.26414  Biso   1.000  Mo
  P28      1.0000 0.90069  0.07321  0.24353  Biso   1.000  P
  O217     1.0000 0.90587  0.03744  0.25642  Biso   1.000  O
  O218     1.0000 0.88397  0.07176  0.20804  Biso   1.000  O
  O219     1.0000 0.85223  0.08316  0.15360  Biso   1.000  O
  O220     1.0000 0.79141  0.08129  0.14009  Biso   1.000  O
  O221     1.0000 0.93464  0.09095  0.24192  Biso   1.000  O
  O222     1.0000 0.90107  0.14772  0.22989  Biso   1.000  O
  O223     1.0000 0.87500  0.09249  0.26548  Biso   1.000  O
  O224     1.0000 0.90049  0.05629  0.11492  Biso   1.000  O
  Mo85     1.0000 0.59713  0.06704  0.83830  Biso   1.000  Mo
  Mo86     1.0000 0.55151  0.14411  0.75839  Biso   1.000  Mo
  Mo87     1.0000 0.63248  0.14991  0.73586  Biso   1.000  Mo
  P29      1.0000 0.59931  0.07321  0.75647  Biso   1.000  P
  O225     1.0000 0.59413  0.03744  0.74358  Biso   1.000  O
  O226     1.0000 0.61603  0.07176  0.79196  Biso   1.000  O
  O227     1.0000 0.64777  0.08316  0.84640  Biso   1.000  O
  O228     1.0000 0.70859  0.08129  0.85991  Biso   1.000  O
  O229     1.0000 0.56536  0.09095  0.75808  Biso   1.000  O
  O230     1.0000 0.59893  0.14772  0.77011  Biso   1.000  O
  O231     1.0000 0.62500  0.09249  0.73452  Biso   1.000  O
  O232     1.0000 0.59951  0.05629  0.88508  Biso   1.000  O
  Mo88     1.0000 0.09713  0.56704  0.33830  Biso   1.000  Mo
  Mo89     1.0000 0.05151  0.64411  0.25839  Biso   1.000  Mo
  Mo90     1.0000 0.13248  0.64991  0.23586  Biso   1.000  Mo
  P30      1.0000 0.09931  0.57321  0.25647  Biso   1.000  P
  O233     1.0000 0.09413  0.53744  0.24358  Biso   1.000  O
  O234     1.0000 0.11603  0.57176  0.29196  Biso   1.000  O
  O235     1.0000 0.14777  0.58316  0.34640  Biso   1.000  O
  O236     1.0000 0.20859  0.58129  0.35991  Biso   1.000  O
  O237     1.0000 0.06536  0.59095  0.25808  Biso   1.000  O
  O238     1.0000 0.09893  0.64772  0.27011  Biso   1.000  O
  O239     1.0000 0.12500  0.59249  0.23452  Biso   1.000  O
  O240     1.0000 0.09951  0.55629  0.38508  Biso   1.000  O
  Mo91     1.0000 0.90287  0.93296  0.33830  Biso   1.000  Mo
  Mo92     1.0000 0.94849  0.85589  0.25839  Biso   1.000  Mo
  Mo93     1.0000 0.86752  0.85009  0.23586  Biso   1.000  Mo
  P31      1.0000 0.90069  0.92679  0.25647  Biso   1.000  P
  O241     1.0000 0.90587  0.96256  0.24358  Biso   1.000  O
  O242     1.0000 0.88397  0.92824  0.29196  Biso   1.000  O
  O243     1.0000 0.85223  0.91684  0.34640  Biso   1.000  O
  O244     1.0000 0.79141  0.91871  0.35991  Biso   1.000  O
  O245     1.0000 0.93464  0.90905  0.25808  Biso   1.000  O
  O246     1.0000 0.90107  0.85228  0.27011  Biso   1.000  O
  O247     1.0000 0.87500  0.90751  0.23452  Biso   1.000  O
  O248     1.0000 0.90049  0.94371  0.38508  Biso   1.000  O
  Mo94     1.0000 0.40287  0.43296  0.83830  Biso   1.000  Mo
  Mo95     1.0000 0.44849  0.35589  0.75839  Biso   1.000  Mo
  Mo96     1.0000 0.36752  0.35009  0.73586  Biso   1.000  Mo
  P32      1.0000 0.40069  0.42679  0.75647  Biso   1.000  P
  O249     1.0000 0.40587  0.46256  0.74358  Biso   1.000  O
  O250     1.0000 0.38397  0.42824  0.79196  Biso   1.000  O
  O251     1.0000 0.35223  0.41684  0.84640  Biso   1.000  O
  O252     1.0000 0.29141  0.41871  0.85991  Biso   1.000  O
  O253     1.0000 0.43464  0.40905  0.75808  Biso   1.000  O
  O254     1.0000 0.40107  0.35228  0.77011  Biso   1.000  O
  O255     1.0000 0.37500  0.40751  0.73452  Biso   1.000  O
  O256     1.0000 0.40049  0.44371  0.88508  Biso   1.000  O
  Mo97     1.0000 0.93296  0.33830  0.90287  Biso   1.000  Mo
  Mo98     1.0000 0.85589  0.25839  0.94849  Biso   1.000  Mo
  Mo99     1.0000 0.85009  0.23586  0.86752  Biso   1.000  Mo
  P33      1.0000 0.92679  0.25647  0.90069  Biso   1.000  P
  O257     1.0000 0.96256  0.24358  0.90587  Biso   1.000  O
  O258     1.0000 0.92824  0.29196  0.88397  Biso   1.000  O
  O259     1.0000 0.91684  0.34640  0.85223  Biso   1.000  O
  O260     1.0000 0.91871  0.35991  0.79141  Biso   1.000  O
  O261     1.0000 0.90905  0.25808  0.93464  Biso   1.000  O
  O262     1.0000 0.85228  0.27011  0.90107  Biso   1.000  O
  O263     1.0000 0.90751  0.23452  0.87500  Biso   1.000  O
  O264     1.0000 0.94371  0.38508  0.90049  Biso   1.000  O
  Mo100    1.0000 0.43296  0.83830  0.40287  Biso   1.000  Mo
  Mo101    1.0000 0.35589  0.75839  0.44849  Biso   1.000  Mo
  Mo102    1.0000 0.35009  0.73586  0.36752  Biso   1.000  Mo
  P34      1.0000 0.42679  0.75647  0.40069  Biso   1.000  P
  O265     1.0000 0.46256  0.74358  0.40587  Biso   1.000  O
  O266     1.0000 0.42824  0.79196  0.38397  Biso   1.000  O
  O267     1.0000 0.41684  0.84640  0.35223  Biso   1.000  O
  O268     1.0000 0.41871  0.85991  0.29141  Biso   1.000  O
  O269     1.0000 0.40905  0.75808  0.43464  Biso   1.000  O
  O270     1.0000 0.35228  0.77011  0.40107  Biso   1.000  O
  O271     1.0000 0.40751  0.73452  0.37500  Biso   1.000  O
  O272     1.0000 0.44371  0.88508  0.40049  Biso   1.000  O
  Mo103    1.0000 0.06704  0.83830  0.59713  Biso   1.000  Mo
  Mo104    1.0000 0.14411  0.75839  0.55151  Biso   1.000  Mo
  Mo105    1.0000 0.14991  0.73586  0.63248  Biso   1.000  Mo
  P35      1.0000 0.07321  0.75647  0.59931  Biso   1.000  P
  O273     1.0000 0.03744  0.74358  0.59413  Biso   1.000  O
  O274     1.0000 0.07176  0.79196  0.61603  Biso   1.000  O
  O275     1.0000 0.08316  0.84640  0.64777  Biso   1.000  O
  O276     1.0000 0.08129  0.85991  0.70859  Biso   1.000  O
  O277     1.0000 0.09095  0.75808  0.56536  Biso   1.000  O
  O278     1.0000 0.14772  0.77011  0.59893  Biso   1.000  O
  O279     1.0000 0.09249  0.73452  0.62500  Biso   1.000  O
  O280     1.0000 0.05629  0.88508  0.59951  Biso   1.000  O
  Mo106    1.0000 0.56704  0.33830  0.09713  Biso   1.000  Mo
  Mo107    1.0000 0.64411  0.25839  0.05151  Biso   1.000  Mo
  Mo108    1.0000 0.64991  0.23586  0.13248  Biso   1.000  Mo
  P36      1.0000 0.57321  0.25647  0.09931  Biso   1.000  P
  O281     1.0000 0.53744  0.24358  0.09413  Biso   1.000  O
  O282     1.0000 0.57176  0.29196  0.11603  Biso   1.000  O
  O283     1.0000 0.58316  0.34640  0.14777  Biso   1.000  O
  O284     1.0000 0.58129  0.35991  0.20859  Biso   1.000  O
  O285     1.0000 0.59095  0.25808  0.06536  Biso   1.000  O
  O286     1.0000 0.64772  0.27011  0.09893  Biso   1.000  O
  O287     1.0000 0.59249  0.23452  0.12500  Biso   1.000  O
  O288     1.0000 0.55629  0.38508  0.09951  Biso   1.000  O
  Mo109    1.0000 0.56704  0.66170  0.40287  Biso   1.000  Mo
  Mo110    1.0000 0.64411  0.74161  0.44849  Biso   1.000  Mo
  Mo111    1.0000 0.64991  0.76414  0.36752  Biso   1.000  Mo
  P37      1.0000 0.57321  0.74353  0.40069  Biso   1.000  P
  O289     1.0000 0.53744  0.75642  0.40587  Biso   1.000  O
  O290     1.0000 0.57176  0.70804  0.38397  Biso   1.000  O
  O291     1.0000 0.58316  0.65360  0.35223  Biso   1.000  O
  O292     1.0000 0.58129  0.64009  0.29141  Biso   1.000  O
  O293     1.0000 0.59095  0.74192  0.43464  Biso   1.000  O
  O294     1.0000 0.64772  0.72989  0.40107  Biso   1.000  O
  O295     1.0000 0.59249  0.76548  0.37500  Biso   1.000  O
  O296     1.0000 0.55629  0.61492  0.40049  Biso   1.000  O
  Mo112    1.0000 0.06704  0.16170  0.90287  Biso   1.000  Mo
  Mo113    1.0000 0.14411  0.24161  0.94849  Biso   1.000  Mo
  Mo114    1.0000 0.14991  0.26414  0.86752  Biso   1.000  Mo
  P38      1.0000 0.07321  0.24353  0.90069  Biso   1.000  P
  O297     1.0000 0.03744  0.25642  0.90587  Biso   1.000  O
  O298     1.0000 0.07176  0.20804  0.88397  Biso   1.000  O
  O299     1.0000 0.08316  0.15360  0.85223  Biso   1.000  O
  O300     1.0000 0.08129  0.14009  0.79141  Biso   1.000  O
  O301     1.0000 0.09095  0.24192  0.93464  Biso   1.000  O
  O302     1.0000 0.14772  0.22989  0.90107  Biso   1.000  O
  O303     1.0000 0.09249  0.26548  0.87500  Biso   1.000  O
  O304     1.0000 0.05629  0.11492  0.90049  Biso   1.000  O
  Mo115    1.0000 0.43296  0.16170  0.09713  Biso   1.000  Mo
  Mo116    1.0000 0.35589  0.24161  0.05151  Biso   1.000  Mo
  Mo117    1.0000 0.35009  0.26414  0.13248  Biso   1.000  Mo
  P39      1.0000 0.42679  0.24353  0.09931  Biso   1.000  P
  O305     1.0000 0.46256  0.25642  0.09413  Biso   1.000  O
  O306     1.0000 0.42824  0.20804  0.11603  Biso   1.000  O
  O307     1.0000 0.41684  0.15360  0.14777  Biso   1.000  O
  O308     1.0000 0.41871  0.14009  0.20859  Biso   1.000  O
  O309     1.0000 0.40905  0.24192  0.06536  Biso   1.000  O
  O310     1.0000 0.35228  0.22989  0.09893  Biso   1.000  O
  O311     1.0000 0.40751  0.26548  0.12500  Biso   1.000  O
  O312     1.0000 0.44371  0.11492  0.09951  Biso   1.000  O
  Mo118    1.0000 0.93296  0.66170  0.59713  Biso   1.000  Mo
  Mo119    1.0000 0.85589  0.74161  0.55151  Biso   1.000  Mo
  Mo120    1.0000 0.85009  0.76414  0.63248  Biso   1.000  Mo
  P40      1.0000 0.92679  0.74353  0.59931  Biso   1.000  P
  O313     1.0000 0.96256  0.75642  0.59413  Biso   1.000  O
  O314     1.0000 0.92824  0.70804  0.61603  Biso   1.000  O
  O315     1.0000 0.91684  0.65360  0.64777  Biso   1.000  O
  O316     1.0000 0.91871  0.64009  0.70859  Biso   1.000  O
  O317     1.0000 0.90905  0.74192  0.56536  Biso   1.000  O
  O318     1.0000 0.85228  0.72989  0.59893  Biso   1.000  O
  O319     1.0000 0.90751  0.76548  0.62500  Biso   1.000  O
  O320     1.0000 0.94371  0.61492  0.59951  Biso   1.000  O
  Mo121    1.0000 0.83830  0.59713  0.06704  Biso   1.000  Mo
  Mo122    1.0000 0.75839  0.55151  0.14411  Biso   1.000  Mo
  Mo123    1.0000 0.73586  0.63248  0.14991  Biso   1.000  Mo
  P41      1.0000 0.75647  0.59931  0.07321  Biso   1.000  P
  O321     1.0000 0.74358  0.59413  0.03744  Biso   1.000  O
  O322     1.0000 0.79196  0.61603  0.07176  Biso   1.000  O
  O323     1.0000 0.84640  0.64777  0.08316  Biso   1.000  O
  O324     1.0000 0.85991  0.70859  0.08129  Biso   1.000  O
  O325     1.0000 0.75808  0.56536  0.09095  Biso   1.000  O
  O326     1.0000 0.77011  0.59893  0.14772  Biso   1.000  O
  O327     1.0000 0.73452  0.62500  0.09249  Biso   1.000  O
  O328     1.0000 0.88508  0.59951  0.05629  Biso   1.000  O
  Mo124    1.0000 0.33830  0.09713  0.56704  Biso   1.000  Mo
  Mo125    1.0000 0.25839  0.05151  0.64411  Biso   1.000  Mo
  Mo126    1.0000 0.23586  0.13248  0.64991  Biso   1.000  Mo
  P42      1.0000 0.25647  0.09931  0.57321  Biso   1.000  P
  O329     1.0000 0.24358  0.09413  0.53744  Biso   1.000  O
  O330     1.0000 0.29196  0.11603  0.57176  Biso   1.000  O
  O331     1.0000 0.34640  0.14777  0.58316  Biso   1.000  O
  O332     1.0000 0.35991  0.20859  0.58129  Biso   1.000  O
  O333     1.0000 0.25808  0.06536  0.59095  Biso   1.000  O
  O334     1.0000 0.27011  0.09893  0.64772  Biso   1.000  O
  O335     1.0000 0.23452  0.12500  0.59249  Biso   1.000  O
  O336     1.0000 0.38508  0.09951  0.55629  Biso   1.000  O
  Mo127    1.0000 0.33830  0.90287  0.93296  Biso   1.000  Mo
  Mo128    1.0000 0.25839  0.94849  0.85589  Biso   1.000  Mo
  Mo129    1.0000 0.23586  0.86752  0.85009  Biso   1.000  Mo
  P43      1.0000 0.25647  0.90069  0.92679  Biso   1.000  P
  O337     1.0000 0.24358  0.90587  0.96256  Biso   1.000  O
  O338     1.0000 0.29196  0.88397  0.92824  Biso   1.000  O
  O339     1.0000 0.34640  0.85223  0.91684  Biso   1.000  O
  O340     1.0000 0.35991  0.79141  0.91871  Biso   1.000  O
  O341     1.0000 0.25808  0.93464  0.90905  Biso   1.000  O
  O342     1.0000 0.27011  0.90107  0.85228  Biso   1.000  O
  O343     1.0000 0.23452  0.87500  0.90751  Biso   1.000  O
  O344     1.0000 0.38508  0.90049  0.94371  Biso   1.000  O
  Mo130    1.0000 0.83830  0.40287  0.43296  Biso   1.000  Mo
  Mo131    1.0000 0.75839  0.44849  0.35589  Biso   1.000  Mo
  Mo132    1.0000 0.73586  0.36752  0.35009  Biso   1.000  Mo
  P44      1.0000 0.75647  0.40069  0.42679  Biso   1.000  P
  O345     1.0000 0.74358  0.40587  0.46256  Biso   1.000  O
  O346     1.0000 0.79196  0.38397  0.42824  Biso   1.000  O
  O347     1.0000 0.84640  0.35223  0.41684  Biso   1.000  O
  O348     1.0000 0.85991  0.29141  0.41871  Biso   1.000  O
  O349     1.0000 0.75808  0.43464  0.40905  Biso   1.000  O
  O350     1.0000 0.77011  0.40107  0.35228  Biso   1.000  O
  O351     1.0000 0.73452  0.37500  0.40751  Biso   1.000  O
  O352     1.0000 0.88508  0.40049  0.44371  Biso   1.000  O
  Mo133    1.0000 0.16170  0.09713  0.43296  Biso   1.000  Mo
  Mo134    1.0000 0.24161  0.05151  0.35589  Biso   1.000  Mo
  Mo135    1.0000 0.26414  0.13248  0.35009  Biso   1.000  Mo
  P45      1.0000 0.24353  0.09931  0.42679  Biso   1.000  P
  O353     1.0000 0.25642  0.09413  0.46256  Biso   1.000  O
  O354     1.0000 0.20804  0.11603  0.42824  Biso   1.000  O
  O355     1.0000 0.15360  0.14777  0.41684  Biso   1.000  O
  O356     1.0000 0.14009  0.20859  0.41871  Biso   1.000  O
  O357     1.0000 0.24192  0.06536  0.40905  Biso   1.000  O
  O358     1.0000 0.22989  0.09893  0.35228  Biso   1.000  O
  O359     1.0000 0.26548  0.12500  0.40751  Biso   1.000  O
  O360     1.0000 0.11492  0.09951  0.44371  Biso   1.000  O
  Mo136    1.0000 0.66170  0.59713  0.93296  Biso   1.000  Mo
  Mo137    1.0000 0.74161  0.55151  0.85589  Biso   1.000  Mo
  Mo138    1.0000 0.76414  0.63248  0.85009  Biso   1.000  Mo
  P46      1.0000 0.74353  0.59931  0.92679  Biso   1.000  P
  O361     1.0000 0.75642  0.59413  0.96256  Biso   1.000  O
  O362     1.0000 0.70804  0.61603  0.92824  Biso   1.000  O
  O363     1.0000 0.65360  0.64777  0.91684  Biso   1.000  O
  O364     1.0000 0.64009  0.70859  0.91871  Biso   1.000  O
  O365     1.0000 0.74192  0.56536  0.90905  Biso   1.000  O
  O366     1.0000 0.72989  0.59893  0.85228  Biso   1.000  O
  O367     1.0000 0.76548  0.62500  0.90751  Biso   1.000  O
  O368     1.0000 0.61492  0.59951  0.94371  Biso   1.000  O
  Mo139    1.0000 0.66170  0.40287  0.56704  Biso   1.000  Mo
  Mo140    1.0000 0.74161  0.44849  0.64411  Biso   1.000  Mo
  Mo141    1.0000 0.76414  0.36752  0.64991  Biso   1.000  Mo
  P47      1.0000 0.74353  0.40069  0.57321  Biso   1.000  P
  O369     1.0000 0.75642  0.40587  0.53744  Biso   1.000  O
  O370     1.0000 0.70804  0.38397  0.57176  Biso   1.000  O
  O371     1.0000 0.65360  0.35223  0.58316  Biso   1.000  O
  O372     1.0000 0.64009  0.29141  0.58129  Biso   1.000  O
  O373     1.0000 0.74192  0.43464  0.59095  Biso   1.000  O
  O374     1.0000 0.72989  0.40107  0.64772  Biso   1.000  O
  O375     1.0000 0.76548  0.37500  0.59249  Biso   1.000  O
  O376     1.0000 0.61492  0.40049  0.55629  Biso   1.000  O
  Mo142    1.0000 0.16170  0.90287  0.06704  Biso   1.000  Mo
  Mo143    1.0000 0.24161  0.94849  0.14411  Biso   1.000  Mo
  Mo144    1.0000 0.26414  0.86752  0.14991  Biso   1.000  Mo
  P48      1.0000 0.24353  0.90069  0.07321  Biso   1.000  P
  O377     1.0000 0.25642  0.90587  0.03744  Biso   1.000  O
  O378     1.0000 0.20804  0.88397  0.07176  Biso   1.000  O
  O379     1.0000 0.15360  0.85223  0.08316  Biso   1.000  O
  O380     1.0000 0.14009  0.79141  0.08129  Biso   1.000  O
  O381     1.0000 0.24192  0.93464  0.09095  Biso   1.000  O
  O382     1.0000 0.22989  0.90107  0.14772  Biso   1.000  O
  O383     1.0000 0.26548  0.87500  0.09249  Biso   1.000  O
  O384     1.0000 0.11492  0.90049  0.05629  Biso   1.000  O
  Mo145    1.0000 0.81704  0.65287  0.91170  Biso   1.000  Mo
  Mo146    1.0000 0.89411  0.69849  0.99161  Biso   1.000  Mo
  Mo147    1.0000 0.89991  0.61752  0.01414  Biso   1.000  Mo
  P49      1.0000 0.82321  0.65069  0.99353  Biso   1.000  P
  O385     1.0000 0.78744  0.65587  0.00642  Biso   1.000  O
  O386     1.0000 0.82176  0.63397  0.95804  Biso   1.000  O
  O387     1.0000 0.83316  0.60223  0.90360  Biso   1.000  O
  O388     1.0000 0.83129  0.54141  0.89009  Biso   1.000  O
  O389     1.0000 0.84095  0.68464  0.99192  Biso   1.000  O
  O390     1.0000 0.89772  0.65107  0.97989  Biso   1.000  O
  O391     1.0000 0.84249  0.62500  0.01548  Biso   1.000  O
  O392     1.0000 0.80629  0.65049  0.86492  Biso   1.000  O
  Mo148    1.0000 0.31704  0.15287  0.41170  Biso   1.000  Mo
  Mo149    1.0000 0.39411  0.19849  0.49161  Biso   1.000  Mo
  Mo150    1.0000 0.39991  0.11752  0.51414  Biso   1.000  Mo
  P50      1.0000 0.32321  0.15069  0.49353  Biso   1.000  P
  O393     1.0000 0.28744  0.15587  0.50642  Biso   1.000  O
  O394     1.0000 0.32176  0.13397  0.45804  Biso   1.000  O
  O395     1.0000 0.33316  0.10223  0.40360  Biso   1.000  O
  O396     1.0000 0.33129  0.04141  0.39009  Biso   1.000  O
  O397     1.0000 0.34095  0.18464  0.49192  Biso   1.000  O
  O398     1.0000 0.39772  0.15107  0.47989  Biso   1.000  O
  O399     1.0000 0.34249  0.12500  0.51548  Biso   1.000  O
  O400     1.0000 0.30629  0.15049  0.36492  Biso   1.000  O
  Mo151    1.0000 0.68296  0.34713  0.41170  Biso   1.000  Mo
  Mo152    1.0000 0.60589  0.30151  0.49161  Biso   1.000  Mo
  Mo153    1.0000 0.60009  0.38248  0.51414  Biso   1.000  Mo
  P51      1.0000 0.67679  0.34931  0.49353  Biso   1.000  P
  O401     1.0000 0.71256  0.34413  0.50642  Biso   1.000  O
  O402     1.0000 0.67824  0.36603  0.45804  Biso   1.000  O
  O403     1.0000 0.66684  0.39777  0.40360  Biso   1.000  O
  O404     1.0000 0.66871  0.45859  0.39009  Biso   1.000  O
  O405     1.0000 0.65905  0.31536  0.49192  Biso   1.000  O
  O406     1.0000 0.60228  0.34893  0.47989  Biso   1.000  O
  O407     1.0000 0.65751  0.37500  0.51548  Biso   1.000  O
  O408     1.0000 0.69371  0.34951  0.36492  Biso   1.000  O
  Mo154    1.0000 0.18296  0.84713  0.91170  Biso   1.000  Mo
  Mo155    1.0000 0.10589  0.80151  0.99161  Biso   1.000  Mo
  Mo156    1.0000 0.10009  0.88248  0.01414  Biso   1.000  Mo
  P52      1.0000 0.17679  0.84931  0.99353  Biso   1.000  P
  O409     1.0000 0.21256  0.84413  0.00642  Biso   1.000  O
  O410     1.0000 0.17824  0.86603  0.95804  Biso   1.000  O
  O411     1.0000 0.16684  0.89777  0.90360  Biso   1.000  O
  O412     1.0000 0.16871  0.95859  0.89009  Biso   1.000  O
  O413     1.0000 0.15905  0.81536  0.99192  Biso   1.000  O
  O414     1.0000 0.10228  0.84893  0.97989  Biso   1.000  O
  O415     1.0000 0.15751  0.87500  0.01548  Biso   1.000  O
  O416     1.0000 0.19371  0.84951  0.86492  Biso   1.000  O
  Mo157    1.0000 0.18296  0.15287  0.58830  Biso   1.000  Mo
  Mo158    1.0000 0.10589  0.19849  0.50839  Biso   1.000  Mo
  Mo159    1.0000 0.10009  0.11752  0.48586  Biso   1.000  Mo
  P53      1.0000 0.17679  0.15069  0.50647  Biso   1.000  P
  O417     1.0000 0.21256  0.15587  0.49358  Biso   1.000  O
  O418     1.0000 0.17824  0.13397  0.54196  Biso   1.000  O
  O419     1.0000 0.16684  0.10223  0.59640  Biso   1.000  O
  O420     1.0000 0.16871  0.04141  0.60991  Biso   1.000  O
  O421     1.0000 0.15905  0.18464  0.50808  Biso   1.000  O
  O422     1.0000 0.10228  0.15107  0.52011  Biso   1.000  O
  O423     1.0000 0.15751  0.12500  0.48452  Biso   1.000  O
  O424     1.0000 0.19371  0.15049  0.63508  Biso   1.000  O
  Mo160    1.0000 0.68296  0.65287  0.08830  Biso   1.000  Mo
  Mo161    1.0000 0.60589  0.69849  0.00839  Biso   1.000  Mo
  Mo162    1.0000 0.60009  0.61752  0.98586  Biso   1.000  Mo
  P54      1.0000 0.67679  0.65069  0.00647  Biso   1.000  P
  O425     1.0000 0.71256  0.65587  0.99358  Biso   1.000  O
  O426     1.0000 0.67824  0.63397  0.04196  Biso   1.000  O
  O427     1.0000 0.66684  0.60223  0.09640  Biso   1.000  O
  O428     1.0000 0.66871  0.54141  0.10991  Biso   1.000  O
  O429     1.0000 0.65905  0.68464  0.00808  Biso   1.000  O
  O430     1.0000 0.60228  0.65107  0.02011  Biso   1.000  O
  O431     1.0000 0.65751  0.62500  0.98452  Biso   1.000  O
  O432     1.0000 0.69371  0.65049  0.13508  Biso   1.000  O
  Mo163    1.0000 0.31704  0.84713  0.08830  Biso   1.000  Mo
  Mo164    1.0000 0.39411  0.80151  0.00839  Biso   1.000  Mo
  Mo165    1.0000 0.39991  0.88248  0.98586  Biso   1.000  Mo
  P55      1.0000 0.32321  0.84931  0.00647  Biso   1.000  P
  O433     1.0000 0.28744  0.84413  0.99358  Biso   1.000  O
  O434     1.0000 0.32176  0.86603  0.04196  Biso   1.000  O
  O435     1.0000 0.33316  0.89777  0.09640  Biso   1.000  O
  O436     1.0000 0.33129  0.95859  0.10991  Biso   1.000  O
  O437     1.0000 0.34095  0.81536  0.00808  Biso   1.000  O
  O438     1.0000 0.39772  0.84893  0.02011  Biso   1.000  O
  O439     1.0000 0.34249  0.87500  0.98452  Biso   1.000  O
  O440     1.0000 0.30629  0.84951  0.13508  Biso   1.000  O
  Mo166    1.0000 0.81704  0.34713  0.58830  Biso   1.000  Mo
  Mo167    1.0000 0.89411  0.30151  0.50839  Biso   1.000  Mo
  Mo168    1.0000 0.89991  0.38248  0.48586  Biso   1.000  Mo
  P56      1.0000 0.82321  0.34931  0.50647  Biso   1.000  P
  O441     1.0000 0.78744  0.34413  0.49358  Biso   1.000  O
  O442     1.0000 0.82176  0.36603  0.54196  Biso   1.000  O
  O443     1.0000 0.83316  0.39777  0.59640  Biso   1.000  O
  O444     1.0000 0.83129  0.45859  0.60991  Biso   1.000  O
  O445     1.0000 0.84095  0.31536  0.50808  Biso   1.000  O
  O446     1.0000 0.89772  0.34893  0.52011  Biso   1.000  O
  O447     1.0000 0.84249  0.37500  0.48452  Biso   1.000  O
  O448     1.0000 0.80629  0.34951  0.63508  Biso   1.000  O
  Mo169    1.0000 0.91170  0.81704  0.65287  Biso   1.000  Mo
  Mo170    1.0000 0.99161  0.89411  0.69849  Biso   1.000  Mo
  Mo171    1.0000 0.01414  0.89991  0.61752  Biso   1.000  Mo
  P57      1.0000 0.99353  0.82321  0.65069  Biso   1.000  P
  O449     1.0000 0.00642  0.78744  0.65587  Biso   1.000  O
  O450     1.0000 0.95804  0.82176  0.63397  Biso   1.000  O
  O451     1.0000 0.90360  0.83316  0.60223  Biso   1.000  O
  O452     1.0000 0.89009  0.83129  0.54141  Biso   1.000  O
  O453     1.0000 0.99192  0.84095  0.68464  Biso   1.000  O
  O454     1.0000 0.97989  0.89772  0.65107  Biso   1.000  O
  O455     1.0000 0.01548  0.84249  0.62500  Biso   1.000  O
  O456     1.0000 0.86492  0.80629  0.65049  Biso   1.000  O
  Mo172    1.0000 0.41170  0.31704  0.15287  Biso   1.000  Mo
  Mo173    1.0000 0.49161  0.39411  0.19849  Biso   1.000  Mo
  Mo174    1.0000 0.51414  0.39991  0.11752  Biso   1.000  Mo
  P58      1.0000 0.49353  0.32321  0.15069  Biso   1.000  P
  O457     1.0000 0.50642  0.28744  0.15587  Biso   1.000  O
  O458     1.0000 0.45804  0.32176  0.13397  Biso   1.000  O
  O459     1.0000 0.40360  0.33316  0.10223  Biso   1.000  O
  O460     1.0000 0.39009  0.33129  0.04141  Biso   1.000  O
  O461     1.0000 0.49192  0.34095  0.18464  Biso   1.000  O
  O462     1.0000 0.47989  0.39772  0.15107  Biso   1.000  O
  O463     1.0000 0.51548  0.34249  0.12500  Biso   1.000  O
  O464     1.0000 0.36492  0.30629  0.15049  Biso   1.000  O
  Mo175    1.0000 0.41170  0.68296  0.34713  Biso   1.000  Mo
  Mo176    1.0000 0.49161  0.60589  0.30151  Biso   1.000  Mo
  Mo177    1.0000 0.51414  0.60009  0.38248  Biso   1.000  Mo
  P59      1.0000 0.49353  0.67679  0.34931  Biso   1.000  P
  O465     1.0000 0.50642  0.71256  0.34413  Biso   1.000  O
  O466     1.0000 0.45804  0.67824  0.36603  Biso   1.000  O
  O467     1.0000 0.40360  0.66684  0.39777  Biso   1.000  O
  O468     1.0000 0.39009  0.66871  0.45859  Biso   1.000  O
  O469     1.0000 0.49192  0.65905  0.31536  Biso   1.000  O
  O470     1.0000 0.47989  0.60228  0.34893  Biso   1.000  O
  O471     1.0000 0.51548  0.65751  0.37500  Biso   1.000  O
  O472     1.0000 0.36492  0.69371  0.34951  Biso   1.000  O
  Mo178    1.0000 0.91170  0.18296  0.84713  Biso   1.000  Mo
  Mo179    1.0000 0.99161  0.10589  0.80151  Biso   1.000  Mo
  Mo180    1.0000 0.01414  0.10009  0.88248  Biso   1.000  Mo
  P60      1.0000 0.99353  0.17679  0.84931  Biso   1.000  P
  O473     1.0000 0.00642  0.21256  0.84413  Biso   1.000  O
  O474     1.0000 0.95804  0.17824  0.86603  Biso   1.000  O
  O475     1.0000 0.90360  0.16684  0.89777  Biso   1.000  O
  O476     1.0000 0.89009  0.16871  0.95859  Biso   1.000  O
  O477     1.0000 0.99192  0.15905  0.81536  Biso   1.000  O
  O478     1.0000 0.97989  0.10228  0.84893  Biso   1.000  O
  O479     1.0000 0.01548  0.15751  0.87500  Biso   1.000  O
  O480     1.0000 0.86492  0.19371  0.84951  Biso   1.000  O
  Mo181    1.0000 0.58830  0.18296  0.15287  Biso   1.000  Mo
  Mo182    1.0000 0.50839  0.10589  0.19849  Biso   1.000  Mo
  Mo183    1.0000 0.48586  0.10009  0.11752  Biso   1.000  Mo
  P61      1.0000 0.50647  0.17679  0.15069  Biso   1.000  P
  O481     1.0000 0.49358  0.21256  0.15587  Biso   1.000  O
  O482     1.0000 0.54196  0.17824  0.13397  Biso   1.000  O
  O483     1.0000 0.59640  0.16684  0.10223  Biso   1.000  O
  O484     1.0000 0.60991  0.16871  0.04141  Biso   1.000  O
  O485     1.0000 0.50808  0.15905  0.18464  Biso   1.000  O
  O486     1.0000 0.52011  0.10228  0.15107  Biso   1.000  O
  O487     1.0000 0.48452  0.15751  0.12500  Biso   1.000  O
  O488     1.0000 0.63508  0.19371  0.15049  Biso   1.000  O
  Mo184    1.0000 0.08830  0.68296  0.65287  Biso   1.000  Mo
  Mo185    1.0000 0.00839  0.60589  0.69849  Biso   1.000  Mo
  Mo186    1.0000 0.98586  0.60009  0.61752  Biso   1.000  Mo
  P62      1.0000 0.00647  0.67679  0.65069  Biso   1.000  P
  O489     1.0000 0.99358  0.71256  0.65587  Biso   1.000  O
  O490     1.0000 0.04196  0.67824  0.63397  Biso   1.000  O
  O491     1.0000 0.09640  0.66684  0.60223  Biso   1.000  O
  O492     1.0000 0.10991  0.66871  0.54141  Biso   1.000  O
  O493     1.0000 0.00808  0.65905  0.68464  Biso   1.000  O
  O494     1.0000 0.02011  0.60228  0.65107  Biso   1.000  O
  O495     1.0000 0.98452  0.65751  0.62500  Biso   1.000  O
  O496     1.0000 0.13508  0.69371  0.65049  Biso   1.000  O
  Mo187    1.0000 0.08830  0.31704  0.84713  Biso   1.000  Mo
  Mo188    1.0000 0.00839  0.39411  0.80151  Biso   1.000  Mo
  Mo189    1.0000 0.98586  0.39991  0.88248  Biso   1.000  Mo
  P63      1.0000 0.00647  0.32321  0.84931  Biso   1.000  P
  O497     1.0000 0.99358  0.28744  0.84413  Biso   1.000  O
  O498     1.0000 0.04196  0.32176  0.86603  Biso   1.000  O
  O499     1.0000 0.09640  0.33316  0.89777  Biso   1.000  O
  O500     1.0000 0.10991  0.33129  0.95859  Biso   1.000  O
  O501     1.0000 0.00808  0.34095  0.81536  Biso   1.000  O
  O502     1.0000 0.02011  0.39772  0.84893  Biso   1.000  O
  O503     1.0000 0.98452  0.34249  0.87500  Biso   1.000  O
  O504     1.0000 0.13508  0.30629  0.84951  Biso   1.000  O
  Mo190    1.0000 0.58830  0.81704  0.34713  Biso   1.000  Mo
  Mo191    1.0000 0.50839  0.89411  0.30151  Biso   1.000  Mo
  Mo192    1.0000 0.48586  0.89991  0.38248  Biso   1.000  Mo
  P64      1.0000 0.50647  0.82321  0.34931  Biso   1.000  P
  O505     1.0000 0.49358  0.78744  0.34413  Biso   1.000  O
  O506     1.0000 0.54196  0.82176  0.36603  Biso   1.000  O
  O507     1.0000 0.59640  0.83316  0.39777  Biso   1.000  O
  O508     1.0000 0.60991  0.83129  0.45859  Biso   1.000  O
  O509     1.0000 0.50808  0.84095  0.31536  Biso   1.000  O
  O510     1.0000 0.52011  0.89772  0.34893  Biso   1.000  O
  O511     1.0000 0.48452  0.84249  0.37500  Biso   1.000  O
  O512     1.0000 0.63508  0.80629  0.34951  Biso   1.000  O
  Mo193    1.0000 0.65287  0.91170  0.81704  Biso   1.000  Mo
  Mo194    1.0000 0.69849  0.99161  0.89411  Biso   1.000  Mo
  Mo195    1.0000 0.61752  0.01414  0.89991  Biso   1.000  Mo
  P65      1.0000 0.65069  0.99353  0.82321  Biso   1.000  P
  O513     1.0000 0.65587  0.00642  0.78744  Biso   1.000  O
  O514     1.0000 0.63397  0.95804  0.82176  Biso   1.000  O
  O515     1.0000 0.60223  0.90360  0.83316  Biso   1.000  O
  O516     1.0000 0.54141  0.89009  0.83129  Biso   1.000  O
  O517     1.0000 0.68464  0.99192  0.84095  Biso   1.000  O
  O518     1.0000 0.65107  0.97989  0.89772  Biso   1.000  O
  O519     1.0000 0.62500  0.01548  0.84249  Biso   1.000  O
  O520     1.0000 0.65049  0.86492  0.80629  Biso   1.000  O
  Mo196    1.0000 0.15287  0.41170  0.31704  Biso   1.000  Mo
  Mo197    1.0000 0.19849  0.49161  0.39411  Biso   1.000  Mo
  Mo198    1.0000 0.11752  0.51414  0.39991  Biso   1.000  Mo
  P66      1.0000 0.15069  0.49353  0.32321  Biso   1.000  P
  O521     1.0000 0.15587  0.50642  0.28744  Biso   1.000  O
  O522     1.0000 0.13397  0.45804  0.32176  Biso   1.000  O
  O523     1.0000 0.10223  0.40360  0.33316  Biso   1.000  O
  O524     1.0000 0.04141  0.39009  0.33129  Biso   1.000  O
  O525     1.0000 0.18464  0.49192  0.34095  Biso   1.000  O
  O526     1.0000 0.15107  0.47989  0.39772  Biso   1.000  O
  O527     1.0000 0.12500  0.51548  0.34249  Biso   1.000  O
  O528     1.0000 0.15049  0.36492  0.30629  Biso   1.000  O
  Mo199    1.0000 0.34713  0.41170  0.68296  Biso   1.000  Mo
  Mo200    1.0000 0.30151  0.49161  0.60589  Biso   1.000  Mo
  Mo201    1.0000 0.38248  0.51414  0.60009  Biso   1.000  Mo
  P67      1.0000 0.34931  0.49353  0.67679  Biso   1.000  P
  O529     1.0000 0.34413  0.50642  0.71256  Biso   1.000  O
  O530     1.0000 0.36603  0.45804  0.67824  Biso   1.000  O
  O531     1.0000 0.39777  0.40360  0.66684  Biso   1.000  O
  O532     1.0000 0.45859  0.39009  0.66871  Biso   1.000  O
  O533     1.0000 0.31536  0.49192  0.65905  Biso   1.000  O
  O534     1.0000 0.34893  0.47989  0.60228  Biso   1.000  O
  O535     1.0000 0.37500  0.51548  0.65751  Biso   1.000  O
  O536     1.0000 0.34951  0.36492  0.69371  Biso   1.000  O
  Mo202    1.0000 0.84713  0.91170  0.18296  Biso   1.000  Mo
  Mo203    1.0000 0.80151  0.99161  0.10589  Biso   1.000  Mo
  Mo204    1.0000 0.88248  0.01414  0.10009  Biso   1.000  Mo
  P68      1.0000 0.84931  0.99353  0.17679  Biso   1.000  P
  O537     1.0000 0.84413  0.00642  0.21256  Biso   1.000  O
  O538     1.0000 0.86603  0.95804  0.17824  Biso   1.000  O
  O539     1.0000 0.89777  0.90360  0.16684  Biso   1.000  O
  O540     1.0000 0.95859  0.89009  0.16871  Biso   1.000  O
  O541     1.0000 0.81536  0.99192  0.15905  Biso   1.000  O
  O542     1.0000 0.84893  0.97989  0.10228  Biso   1.000  O
  O543     1.0000 0.87500  0.01548  0.15751  Biso   1.000  O
  O544     1.0000 0.84951  0.86492  0.19371  Biso   1.000  O
  Mo205    1.0000 0.15287  0.58830  0.18296  Biso   1.000  Mo
  Mo206    1.0000 0.19849  0.50839  0.10589  Biso   1.000  Mo
  Mo207    1.0000 0.11752  0.48586  0.10009  Biso   1.000  Mo
  P69      1.0000 0.15069  0.50647  0.17679  Biso   1.000  P
  O545     1.0000 0.15587  0.49358  0.21256  Biso   1.000  O
  O546     1.0000 0.13397  0.54196  0.17824  Biso   1.000  O
  O547     1.0000 0.10223  0.59640  0.16684  Biso   1.000  O
  O548     1.0000 0.04141  0.60991  0.16871  Biso   1.000  O
  O549     1.0000 0.18464  0.50808  0.15905  Biso   1.000  O
  O550     1.0000 0.15107  0.52011  0.10228  Biso   1.000  O
  O551     1.0000 0.12500  0.48452  0.15751  Biso   1.000  O
  O552     1.0000 0.15049  0.63508  0.19371  Biso   1.000  O
  Mo208    1.0000 0.65287  0.08830  0.68296  Biso   1.000  Mo
  Mo209    1.0000 0.69849  0.00839  0.60589  Biso   1.000  Mo
  Mo210    1.0000 0.61752  0.98586  0.60009  Biso   1.000  Mo
  P70      1.0000 0.65069  0.00647  0.67679  Biso   1.000  P
  O553     1.0000 0.65587  0.99358  0.71256  Biso   1.000  O
  O554     1.0000 0.63397  0.04196  0.67824  Biso   1.000  O
  O555     1.0000 0.60223  0.09640  0.66684  Biso   1.000  O
  O556     1.0000 0.54141  0.10991  0.66871  Biso   1.000  O
  O557     1.0000 0.68464  0.00808  0.65905  Biso   1.000  O
  O558     1.0000 0.65107  0.02011  0.60228  Biso   1.000  O
  O559     1.0000 0.62500  0.98452  0.65751  Biso   1.000  O
  O560     1.0000 0.65049  0.13508  0.69371  Biso   1.000  O
  Mo211    1.0000 0.84713  0.08830  0.31704  Biso   1.000  Mo
  Mo212    1.0000 0.80151  0.00839  0.39411  Biso   1.000  Mo
  Mo213    1.0000 0.88248  0.98586  0.39991  Biso   1.000  Mo
  P71      1.0000 0.84931  0.00647  0.32321  Biso   1.000  P
  O561     1.0000 0.84413  0.99358  0.28744  Biso   1.000  O
  O562     1.0000 0.86603  0.04196  0.32176  Biso   1.000  O
  O563     1.0000 0.89777  0.09640  0.33316  Biso   1.000  O
  O564     1.0000 0.95859  0.10991  0.33129  Biso   1.000  O
  O565     1.0000 0.81536  0.00808  0.34095  Biso   1.000  O
  O566     1.0000 0.84893  0.02011  0.39772  Biso   1.000  O
  O567     1.0000 0.87500  0.98452  0.34249  Biso   1.000  O
  O568     1.0000 0.84951  0.13508  0.30629  Biso   1.000  O
  Mo214    1.0000 0.34713  0.58830  0.81704  Biso   1.000  Mo
  Mo215    1.0000 0.30151  0.50839  0.89411  Biso   1.000  Mo
  Mo216    1.0000 0.38248  0.48586  0.89991  Biso   1.000  Mo
  P72      1.0000 0.34931  0.50647  0.82321  Biso   1.000  P
  O569     1.0000 0.34413  0.49358  0.78744  Biso   1.000  O
  O570     1.0000 0.36603  0.54196  0.82176  Biso   1.000  O
  O571     1.0000 0.39777  0.59640  0.83316  Biso   1.000  O
  O572     1.0000 0.45859  0.60991  0.83129  Biso   1.000  O
  O573     1.0000 0.31536  0.50808  0.84095  Biso   1.000  O
  O574     1.0000 0.34893  0.52011  0.89772  Biso   1.000  O
  O575     1.0000 0.37500  0.48452  0.84249  Biso   1.000  O
  O576     1.0000 0.34951  0.63508  0.80629  Biso   1.000  O
  Mo217    1.0000 0.90287  0.56704  0.83830  Biso   1.000  Mo
  Mo218    1.0000 0.94849  0.64411  0.75839  Biso   1.000  Mo
  Mo219    1.0000 0.86752  0.64991  0.73586  Biso   1.000  Mo
  P73      1.0000 0.90069  0.57321  0.75647  Biso   1.000  P
  O577     1.0000 0.90587  0.53744  0.74358  Biso   1.000  O
  O578     1.0000 0.88397  0.57176  0.79196  Biso   1.000  O
  O579     1.0000 0.85223  0.58316  0.84640  Biso   1.000  O
  O580     1.0000 0.79141  0.58129  0.85991  Biso   1.000  O
  O581     1.0000 0.93464  0.59095  0.75808  Biso   1.000  O
  O582     1.0000 0.90107  0.64772  0.77011  Biso   1.000  O
  O583     1.0000 0.87500  0.59249  0.73452  Biso   1.000  O
  O584     1.0000 0.90049  0.55629  0.88508  Biso   1.000  O
  Mo220    1.0000 0.40287  0.06704  0.33830  Biso   1.000  Mo
  Mo221    1.0000 0.44849  0.14411  0.25839  Biso   1.000  Mo
  Mo222    1.0000 0.36752  0.14991  0.23586  Biso   1.000  Mo
  P74      1.0000 0.40069  0.07321  0.25647  Biso   1.000  P
  O585     1.0000 0.40587  0.03744  0.24358  Biso   1.000  O
  O586     1.0000 0.38397  0.07176  0.29196  Biso   1.000  O
  O587     1.0000 0.35223  0.08316  0.34640  Biso   1.000  O
  O588     1.0000 0.29141  0.08129  0.35991  Biso   1.000  O
  O589     1.0000 0.43464  0.09095  0.25808  Biso   1.000  O
  O590     1.0000 0.40107  0.14772  0.27011  Biso   1.000  O
  O591     1.0000 0.37500  0.09249  0.23452  Biso   1.000  O
  O592     1.0000 0.40049  0.05629  0.38508  Biso   1.000  O
  Mo223    1.0000 0.59713  0.43296  0.33830  Biso   1.000  Mo
  Mo224    1.0000 0.55151  0.35589  0.25839  Biso   1.000  Mo
  Mo225    1.0000 0.63248  0.35009  0.23586  Biso   1.000  Mo
  P75      1.0000 0.59931  0.42679  0.25647  Biso   1.000  P
  O593     1.0000 0.59413  0.46256  0.24358  Biso   1.000  O
  O594     1.0000 0.61603  0.42824  0.29196  Biso   1.000  O
  O595     1.0000 0.64777  0.41684  0.34640  Biso   1.000  O
  O596     1.0000 0.70859  0.41871  0.35991  Biso   1.000  O
  O597     1.0000 0.56536  0.40905  0.25808  Biso   1.000  O
  O598     1.0000 0.59893  0.35228  0.27011  Biso   1.000  O
  O599     1.0000 0.62500  0.40751  0.23452  Biso   1.000  O
  O600     1.0000 0.59951  0.44371  0.38508  Biso   1.000  O
  Mo226    1.0000 0.09713  0.93296  0.83830  Biso   1.000  Mo
  Mo227    1.0000 0.05151  0.85589  0.75839  Biso   1.000  Mo
  Mo228    1.0000 0.13248  0.85009  0.73586  Biso   1.000  Mo
  P76      1.0000 0.09931  0.92679  0.75647  Biso   1.000  P
  O601     1.0000 0.09413  0.96256  0.74358  Biso   1.000  O
  O602     1.0000 0.11603  0.92824  0.79196  Biso   1.000  O
  O603     1.0000 0.14777  0.91684  0.84640  Biso   1.000  O
  O604     1.0000 0.20859  0.91871  0.85991  Biso   1.000  O
  O605     1.0000 0.06536  0.90905  0.75808  Biso   1.000  O
  O606     1.0000 0.09893  0.85228  0.77011  Biso   1.000  O
  O607     1.0000 0.12500  0.90751  0.73452  Biso   1.000  O
  O608     1.0000 0.09951  0.94371  0.88508  Biso   1.000  O
  Mo229    1.0000 0.40287  0.93296  0.16170  Biso   1.000  Mo
  Mo230    1.0000 0.44849  0.85589  0.24161  Biso   1.000  Mo
  Mo231    1.0000 0.36752  0.85009  0.26414  Biso   1.000  Mo
  P77      1.0000 0.40069  0.92679  0.24353  Biso   1.000  P
  O609     1.0000 0.40587  0.96256  0.25642  Biso   1.000  O
  O610     1.0000 0.38397  0.92824  0.20804  Biso   1.000  O
  O611     1.0000 0.35223  0.91684  0.15360  Biso   1.000  O
  O612     1.0000 0.29141  0.91871  0.14009  Biso   1.000  O
  O613     1.0000 0.43464  0.90905  0.24192  Biso   1.000  O
  O614     1.0000 0.40107  0.85228  0.22989  Biso   1.000  O
  O615     1.0000 0.37500  0.90751  0.26548  Biso   1.000  O
  O616     1.0000 0.40049  0.94371  0.11492  Biso   1.000  O
  Mo232    1.0000 0.90287  0.43296  0.66170  Biso   1.000  Mo
  Mo233    1.0000 0.94849  0.35589  0.74161  Biso   1.000  Mo
  Mo234    1.0000 0.86752  0.35009  0.76414  Biso   1.000  Mo
  P78      1.0000 0.90069  0.42679  0.74353  Biso   1.000  P
  O617     1.0000 0.90587  0.46256  0.75642  Biso   1.000  O
  O618     1.0000 0.88397  0.42824  0.70804  Biso   1.000  O
  O619     1.0000 0.85223  0.41684  0.65360  Biso   1.000  O
  O620     1.0000 0.79141  0.41871  0.64009  Biso   1.000  O
  O621     1.0000 0.93464  0.40905  0.74192  Biso   1.000  O
  O622     1.0000 0.90107  0.35228  0.72989  Biso   1.000  O
  O623     1.0000 0.87500  0.40751  0.76548  Biso   1.000  O
  O624     1.0000 0.90049  0.44371  0.61492  Biso   1.000  O
  Mo235    1.0000 0.09713  0.06704  0.66170  Biso   1.000  Mo
  Mo236    1.0000 0.05151  0.14411  0.74161  Biso   1.000  Mo
  Mo237    1.0000 0.13248  0.14991  0.76414  Biso   1.000  Mo
  P79      1.0000 0.09931  0.07321  0.74353  Biso   1.000  P
  O625     1.0000 0.09413  0.03744  0.75642  Biso   1.000  O
  O626     1.0000 0.11603  0.07176  0.70804  Biso   1.000  O
  O627     1.0000 0.14777  0.08316  0.65360  Biso   1.000  O
  O628     1.0000 0.20859  0.08129  0.64009  Biso   1.000  O
  O629     1.0000 0.06536  0.09095  0.74192  Biso   1.000  O
  O630     1.0000 0.09893  0.14772  0.72989  Biso   1.000  O
  O631     1.0000 0.12500  0.09249  0.76548  Biso   1.000  O
  O632     1.0000 0.09951  0.05629  0.61492  Biso   1.000  O
  Mo238    1.0000 0.59713  0.56704  0.16170  Biso   1.000  Mo
  Mo239    1.0000 0.55151  0.64411  0.24161  Biso   1.000  Mo
  Mo240    1.0000 0.63248  0.64991  0.26414  Biso   1.000  Mo
  P80      1.0000 0.59931  0.57321  0.24353  Biso   1.000  P
  O633     1.0000 0.59413  0.53744  0.25642  Biso   1.000  O
  O634     1.0000 0.61603  0.57176  0.20804  Biso   1.000  O
  O635     1.0000 0.64777  0.58316  0.15360  Biso   1.000  O
  O636     1.0000 0.70859  0.58129  0.14009  Biso   1.000  O
  O637     1.0000 0.56536  0.59095  0.24192  Biso   1.000  O
  O638     1.0000 0.59893  0.64772  0.22989  Biso   1.000  O
  O639     1.0000 0.62500  0.59249  0.26548  Biso   1.000  O
  O640     1.0000 0.59951  0.55629  0.11492  Biso   1.000  O
  Mo241    1.0000 0.06704  0.66170  0.09713  Biso   1.000  Mo
  Mo242    1.0000 0.14411  0.74161  0.05151  Biso   1.000  Mo
  Mo243    1.0000 0.14991  0.76414  0.13248  Biso   1.000  Mo
  P81      1.0000 0.07321  0.74353  0.09931  Biso   1.000  P
  O641     1.0000 0.03744  0.75642  0.09413  Biso   1.000  O
  O642     1.0000 0.07176  0.70804  0.11603  Biso   1.000  O
  O643     1.0000 0.08316  0.65360  0.14777  Biso   1.000  O
  O644     1.0000 0.08129  0.64009  0.20859  Biso   1.000  O
  O645     1.0000 0.09095  0.74192  0.06536  Biso   1.000  O
  O646     1.0000 0.14772  0.72989  0.09893  Biso   1.000  O
  O647     1.0000 0.09249  0.76548  0.12500  Biso   1.000  O
  O648     1.0000 0.05629  0.61492  0.09951  Biso   1.000  O
  Mo244    1.0000 0.56704  0.16170  0.59713  Biso   1.000  Mo
  Mo245    1.0000 0.64411  0.24161  0.55151  Biso   1.000  Mo
  Mo246    1.0000 0.64991  0.26414  0.63248  Biso   1.000  Mo
  P82      1.0000 0.57321  0.24353  0.59931  Biso   1.000  P
  O649     1.0000 0.53744  0.25642  0.59413  Biso   1.000  O
  O650     1.0000 0.57176  0.20804  0.61603  Biso   1.000  O
  O651     1.0000 0.58316  0.15360  0.64777  Biso   1.000  O
  O652     1.0000 0.58129  0.14009  0.70859  Biso   1.000  O
  O653     1.0000 0.59095  0.24192  0.56536  Biso   1.000  O
  O654     1.0000 0.64772  0.22989  0.59893  Biso   1.000  O
  O655     1.0000 0.59249  0.26548  0.62500  Biso   1.000  O
  O656     1.0000 0.55629  0.11492  0.59951  Biso   1.000  O
  Mo247    1.0000 0.93296  0.16170  0.40287  Biso   1.000  Mo
  Mo248    1.0000 0.85589  0.24161  0.44849  Biso   1.000  Mo
  Mo249    1.0000 0.85009  0.26414  0.36752  Biso   1.000  Mo
  P83      1.0000 0.92679  0.24353  0.40069  Biso   1.000  P
  O657     1.0000 0.96256  0.25642  0.40587  Biso   1.000  O
  O658     1.0000 0.92824  0.20804  0.38397  Biso   1.000  O
  O659     1.0000 0.91684  0.15360  0.35223  Biso   1.000  O
  O660     1.0000 0.91871  0.14009  0.29141  Biso   1.000  O
  O661     1.0000 0.90905  0.24192  0.43464  Biso   1.000  O
  O662     1.0000 0.85228  0.22989  0.40107  Biso   1.000  O
  O663     1.0000 0.90751  0.26548  0.37500  Biso   1.000  O
  O664     1.0000 0.94371  0.11492  0.40049  Biso   1.000  O
  Mo250    1.0000 0.43296  0.66170  0.90287  Biso   1.000  Mo
  Mo251    1.0000 0.35589  0.74161  0.94849  Biso   1.000  Mo
  Mo252    1.0000 0.35009  0.76414  0.86752  Biso   1.000  Mo
  P84      1.0000 0.42679  0.74353  0.90069  Biso   1.000  P
  O665     1.0000 0.46256  0.75642  0.90587  Biso   1.000  O
  O666     1.0000 0.42824  0.70804  0.88397  Biso   1.000  O
  O667     1.0000 0.41684  0.65360  0.85223  Biso   1.000  O
  O668     1.0000 0.41871  0.64009  0.79141  Biso   1.000  O
  O669     1.0000 0.40905  0.74192  0.93464  Biso   1.000  O
  O670     1.0000 0.35228  0.72989  0.90107  Biso   1.000  O
  O671     1.0000 0.40751  0.76548  0.87500  Biso   1.000  O
  O672     1.0000 0.44371  0.61492  0.90049  Biso   1.000  O
  Mo253    1.0000 0.43296  0.33830  0.59713  Biso   1.000  Mo
  Mo254    1.0000 0.35589  0.25839  0.55151  Biso   1.000  Mo
  Mo255    1.0000 0.35009  0.23586  0.63248  Biso   1.000  Mo
  P85      1.0000 0.42679  0.25647  0.59931  Biso   1.000  P
  O673     1.0000 0.46256  0.24358  0.59413  Biso   1.000  O
  O674     1.0000 0.42824  0.29196  0.61603  Biso   1.000  O
  O675     1.0000 0.41684  0.34640  0.64777  Biso   1.000  O
  O676     1.0000 0.41871  0.35991  0.70859  Biso   1.000  O
  O677     1.0000 0.40905  0.25808  0.56536  Biso   1.000  O
  O678     1.0000 0.35228  0.27011  0.59893  Biso   1.000  O
  O679     1.0000 0.40751  0.23452  0.62500  Biso   1.000  O
  O680     1.0000 0.44371  0.38508  0.59951  Biso   1.000  O
  Mo256    1.0000 0.93296  0.83830  0.09713  Biso   1.000  Mo
  Mo257    1.0000 0.85589  0.75839  0.05151  Biso   1.000  Mo
  Mo258    1.0000 0.85009  0.73586  0.13248  Biso   1.000  Mo
  P86      1.0000 0.92679  0.75647  0.09931  Biso   1.000  P
  O681     1.0000 0.96256  0.74358  0.09413  Biso   1.000  O
  O682     1.0000 0.92824  0.79196  0.11603  Biso   1.000  O
  O683     1.0000 0.91684  0.84640  0.14777  Biso   1.000  O
  O684     1.0000 0.91871  0.85991  0.20859  Biso   1.000  O
  O685     1.0000 0.90905  0.75808  0.06536  Biso   1.000  O
  O686     1.0000 0.85228  0.77011  0.09893  Biso   1.000  O
  O687     1.0000 0.90751  0.73452  0.12500  Biso   1.000  O
  O688     1.0000 0.94371  0.88508  0.09951  Biso   1.000  O
  Mo259    1.0000 0.56704  0.83830  0.90287  Biso   1.000  Mo
  Mo260    1.0000 0.64411  0.75839  0.94849  Biso   1.000  Mo
  Mo261    1.0000 0.64991  0.73586  0.86752  Biso   1.000  Mo
  P87      1.0000 0.57321  0.75647  0.90069  Biso   1.000  P
  O689     1.0000 0.53744  0.74358  0.90587  Biso   1.000  O
  O690     1.0000 0.57176  0.79196  0.88397  Biso   1.000  O
  O691     1.0000 0.58316  0.84640  0.85223  Biso   1.000  O
  O692     1.0000 0.58129  0.85991  0.79141  Biso   1.000  O
  O693     1.0000 0.59095  0.75808  0.93464  Biso   1.000  O
  O694     1.0000 0.64772  0.77011  0.90107  Biso   1.000  O
  O695     1.0000 0.59249  0.73452  0.87500  Biso   1.000  O
  O696     1.0000 0.55629  0.88508  0.90049  Biso   1.000  O
  Mo262    1.0000 0.06704  0.33830  0.40287  Biso   1.000  Mo
  Mo263    1.0000 0.14411  0.25839  0.44849  Biso   1.000  Mo
  Mo264    1.0000 0.14991  0.23586  0.36752  Biso   1.000  Mo
  P88      1.0000 0.07321  0.25647  0.40069  Biso   1.000  P
  O697     1.0000 0.03744  0.24358  0.40587  Biso   1.000  O
  O698     1.0000 0.07176  0.29196  0.38397  Biso   1.000  O
  O699     1.0000 0.08316  0.34640  0.35223  Biso   1.000  O
  O700     1.0000 0.08129  0.35991  0.29141  Biso   1.000  O
  O701     1.0000 0.09095  0.25808  0.43464  Biso   1.000  O
  O702     1.0000 0.14772  0.27011  0.40107  Biso   1.000  O
  O703     1.0000 0.09249  0.23452  0.37500  Biso   1.000  O
  O704     1.0000 0.05629  0.38508  0.40049  Biso   1.000  O
  Mo265    1.0000 0.16170  0.40287  0.93296  Biso   1.000  Mo
  Mo266    1.0000 0.24161  0.44849  0.85589  Biso   1.000  Mo
  Mo267    1.0000 0.26414  0.36752  0.85009  Biso   1.000  Mo
  P89      1.0000 0.24353  0.40069  0.92679  Biso   1.000  P
  O705     1.0000 0.25642  0.40587  0.96256  Biso   1.000  O
  O706     1.0000 0.20804  0.38397  0.92824  Biso   1.000  O
  O707     1.0000 0.15360  0.35223  0.91684  Biso   1.000  O
  O708     1.0000 0.14009  0.29141  0.91871  Biso   1.000  O
  O709     1.0000 0.24192  0.43464  0.90905  Biso   1.000  O
  O710     1.0000 0.22989  0.40107  0.85228  Biso   1.000  O
  O711     1.0000 0.26548  0.37500  0.90751  Biso   1.000  O
  O712     1.0000 0.11492  0.40049  0.94371  Biso   1.000  O
  Mo268    1.0000 0.66170  0.90287  0.43296  Biso   1.000  Mo
  Mo269    1.0000 0.74161  0.94849  0.35589  Biso   1.000  Mo
  Mo270    1.0000 0.76414  0.86752  0.35009  Biso   1.000  Mo
  P90      1.0000 0.74353  0.90069  0.42679  Biso   1.000  P
  O713     1.0000 0.75642  0.90587  0.46256  Biso   1.000  O
  O714     1.0000 0.70804  0.88397  0.42824  Biso   1.000  O
  O715     1.0000 0.65360  0.85223  0.41684  Biso   1.000  O
  O716     1.0000 0.64009  0.79141  0.41871  Biso   1.000  O
  O717     1.0000 0.74192  0.93464  0.40905  Biso   1.000  O
  O718     1.0000 0.72989  0.90107  0.35228  Biso   1.000  O
  O719     1.0000 0.76548  0.87500  0.40751  Biso   1.000  O
  O720     1.0000 0.61492  0.90049  0.44371  Biso   1.000  O
  Mo271    1.0000 0.66170  0.09713  0.06704  Biso   1.000  Mo
  Mo272    1.0000 0.74161  0.05151  0.14411  Biso   1.000  Mo
  Mo273    1.0000 0.76414  0.13248  0.14991  Biso   1.000  Mo
  P91      1.0000 0.74353  0.09931  0.07321  Biso   1.000  P
  O721     1.0000 0.75642  0.09413  0.03744  Biso   1.000  O
  O722     1.0000 0.70804  0.11603  0.07176  Biso   1.000  O
  O723     1.0000 0.65360  0.14777  0.08316  Biso   1.000  O
  O724     1.0000 0.64009  0.20859  0.08129  Biso   1.000  O
  O725     1.0000 0.74192  0.06536  0.09095  Biso   1.000  O
  O726     1.0000 0.72989  0.09893  0.14772  Biso   1.000  O
  O727     1.0000 0.76548  0.12500  0.09249  Biso   1.000  O
  O728     1.0000 0.61492  0.09951  0.05629  Biso   1.000  O
  Mo274    1.0000 0.16170  0.59713  0.56704  Biso   1.000  Mo
  Mo275    1.0000 0.24161  0.55151  0.64411  Biso   1.000  Mo
  Mo276    1.0000 0.26414  0.63248  0.64991  Biso   1.000  Mo
  P92      1.0000 0.24353  0.59931  0.57321  Biso   1.000  P
  O729     1.0000 0.25642  0.59413  0.53744  Biso   1.000  O
  O730     1.0000 0.20804  0.61603  0.57176  Biso   1.000  O
  O731     1.0000 0.15360  0.64777  0.58316  Biso   1.000  O
  O732     1.0000 0.14009  0.70859  0.58129  Biso   1.000  O
  O733     1.0000 0.24192  0.56536  0.59095  Biso   1.000  O
  O734     1.0000 0.22989  0.59893  0.64772  Biso   1.000  O
  O735     1.0000 0.26548  0.62500  0.59249  Biso   1.000  O
  O736     1.0000 0.11492  0.59951  0.55629  Biso   1.000  O
  Mo277    1.0000 0.83830  0.90287  0.56704  Biso   1.000  Mo
  Mo278    1.0000 0.75839  0.94849  0.64411  Biso   1.000  Mo
  Mo279    1.0000 0.73586  0.86752  0.64991  Biso   1.000  Mo
  P93      1.0000 0.75647  0.90069  0.57321  Biso   1.000  P
  O737     1.0000 0.74358  0.90587  0.53744  Biso   1.000  O
  O738     1.0000 0.79196  0.88397  0.57176  Biso   1.000  O
  O739     1.0000 0.84640  0.85223  0.58316  Biso   1.000  O
  O740     1.0000 0.85991  0.79141  0.58129  Biso   1.000  O
  O741     1.0000 0.75808  0.93464  0.59095  Biso   1.000  O
  O742     1.0000 0.77011  0.90107  0.64772  Biso   1.000  O
  O743     1.0000 0.73452  0.87500  0.59249  Biso   1.000  O
  O744     1.0000 0.88508  0.90049  0.55629  Biso   1.000  O
  Mo280    1.0000 0.33830  0.40287  0.06704  Biso   1.000  Mo
  Mo281    1.0000 0.25839  0.44849  0.14411  Biso   1.000  Mo
  Mo282    1.0000 0.23586  0.36752  0.14991  Biso   1.000  Mo
  P94      1.0000 0.25647  0.40069  0.07321  Biso   1.000  P
  O745     1.0000 0.24358  0.40587  0.03744  Biso   1.000  O
  O746     1.0000 0.29196  0.38397  0.07176  Biso   1.000  O
  O747     1.0000 0.34640  0.35223  0.08316  Biso   1.000  O
  O748     1.0000 0.35991  0.29141  0.08129  Biso   1.000  O
  O749     1.0000 0.25808  0.43464  0.09095  Biso   1.000  O
  O750     1.0000 0.27011  0.40107  0.14772  Biso   1.000  O
  O751     1.0000 0.23452  0.37500  0.09249  Biso   1.000  O
  O752     1.0000 0.38508  0.40049  0.05629  Biso   1.000  O
  Mo283    1.0000 0.33830  0.59713  0.43296  Biso   1.000  Mo
  Mo284    1.0000 0.25839  0.55151  0.35589  Biso   1.000  Mo
  Mo285    1.0000 0.23586  0.63248  0.35009  Biso   1.000  Mo
  P95      1.0000 0.25647  0.59931  0.42679  Biso   1.000  P
  O753     1.0000 0.24358  0.59413  0.46256  Biso   1.000  O
  O754     1.0000 0.29196  0.61603  0.42824  Biso   1.000  O
  O755     1.0000 0.34640  0.64777  0.41684  Biso   1.000  O
  O756     1.0000 0.35991  0.70859  0.41871  Biso   1.000  O
  O757     1.0000 0.25808  0.56536  0.40905  Biso   1.000  O
  O758     1.0000 0.27011  0.59893  0.35228  Biso   1.000  O
  O759     1.0000 0.23452  0.62500  0.40751  Biso   1.000  O
  O760     1.0000 0.38508  0.59951  0.44371  Biso   1.000  O
  Mo286    1.0000 0.83830  0.09713  0.93296  Biso   1.000  Mo
  Mo287    1.0000 0.75839  0.05151  0.85589  Biso   1.000  Mo
  Mo288    1.0000 0.73586  0.13248  0.85009  Biso   1.000  Mo
  P96      1.0000 0.75647  0.09931  0.92679  Biso   1.000  P
  O761     1.0000 0.74358  0.09413  0.96256  Biso   1.000  O
  O762     1.0000 0.79196  0.11603  0.92824  Biso   1.000  O
  O763     1.0000 0.84640  0.14777  0.91684  Biso   1.000  O
  O764     1.0000 0.85991  0.20859  0.91871  Biso   1.000  O
  O765     1.0000 0.75808  0.06536  0.90905  Biso   1.000  O
  O766     1.0000 0.77011  0.09893  0.85228  Biso   1.000  O
  O767     1.0000 0.73452  0.12500  0.90751  Biso   1.000  O
  O768     1.0000 0.88508  0.09951  0.94371  Biso   1.000  O
  Zn1      1.0000 0.25000  0.37500  0.00000  Biso   1.000  Zn
  Zn2      1.0000 0.25000  0.62500  0.50000  Biso   1.000  Zn
  Zn3      1.0000 0.75000  0.87500  0.50000  Biso   1.000  Zn
  Zn4      1.0000 0.75000  0.12500  0.00000  Biso   1.000  Zn
  Zn5      1.0000 0.00000  0.25000  0.37500  Biso   1.000  Zn
  Zn6      1.0000 0.50000  0.25000  0.62500  Biso   1.000  Zn
  Zn7      1.0000 0.50000  0.75000  0.87500  Biso   1.000  Zn
  Zn8      1.0000 0.00000  0.75000  0.12500  Biso   1.000  Zn
  Zn9      1.0000 0.37500  0.00000  0.25000  Biso   1.000  Zn
  Zn10     1.0000 0.62500  0.50000  0.25000  Biso   1.000  Zn
  Zn11     1.0000 0.87500  0.50000  0.75000  Biso   1.000  Zn
  Zn12     1.0000 0.12500  0.00000  0.75000  Biso   1.000  Zn
  Zn13     1.0000 0.12500  0.50000  0.25000  Biso   1.000  Zn
  Zn14     1.0000 0.37500  0.50000  0.75000  Biso   1.000  Zn
  Zn15     1.0000 0.62500  0.00000  0.75000  Biso   1.000  Zn
  Zn16     1.0000 0.87500  0.00000  0.25000  Biso   1.000  Zn
  Zn17     1.0000 0.00000  0.25000  0.87500  Biso   1.000  Zn
  Zn18     1.0000 0.00000  0.75000  0.62500  Biso   1.000  Zn
  Zn19     1.0000 0.50000  0.75000  0.37500  Biso   1.000  Zn
  Zn20     1.0000 0.50000  0.25000  0.12500  Biso   1.000  Zn
  Zn21     1.0000 0.75000  0.62500  0.00000  Biso   1.000  Zn
  Zn22     1.0000 0.25000  0.87500  0.00000  Biso   1.000  Zn
  Zn23     1.0000 0.25000  0.12500  0.50000  Biso   1.000  Zn
  Zn24     1.0000 0.75000  0.37500  0.50000  Biso   1.000  Zn
  P97      1.0000 0.17302  0.42302  0.12500  Biso   1.000  P
  P98      1.0000 0.67302  0.92302  0.62500  Biso   1.000  P
  P99      1.0000 0.32698  0.57698  0.62500  Biso   1.000  P
  P100     1.0000 0.82698  0.07698  0.12500  Biso   1.000  P
  P101     1.0000 0.82698  0.92302  0.37500  Biso   1.000  P
  P102     1.0000 0.32698  0.42302  0.87500  Biso   1.000  P
  P103     1.0000 0.67302  0.07698  0.87500  Biso   1.000  P
  P104     1.0000 0.17302  0.57698  0.37500  Biso   1.000  P
  P105     1.0000 0.12500  0.17302  0.42302  Biso   1.000  P
  P106     1.0000 0.62500  0.67302  0.92302  Biso   1.000  P
  P107     1.0000 0.62500  0.32698  0.57698  Biso   1.000  P
  P108     1.0000 0.12500  0.82698  0.07698  Biso   1.000  P
  P109     1.0000 0.37500  0.82698  0.92302  Biso   1.000  P
  P110     1.0000 0.87500  0.32698  0.42302  Biso   1.000  P
  P111     1.0000 0.87500  0.67302  0.07698  Biso   1.000  P
  P112     1.0000 0.37500  0.17302  0.57698  Biso   1.000  P
  P113     1.0000 0.42302  0.12500  0.17302  Biso   1.000  P
  P114     1.0000 0.92302  0.62500  0.67302  Biso   1.000  P
  P115     1.0000 0.57698  0.62500  0.32698  Biso   1.000  P
  P116     1.0000 0.07698  0.12500  0.82698  Biso   1.000  P
  P117     1.0000 0.92302  0.37500  0.82698  Biso   1.000  P
  P118     1.0000 0.42302  0.87500  0.32698  Biso   1.000  P
  P119     1.0000 0.07698  0.87500  0.67302  Biso   1.000  P
  P120     1.0000 0.57698  0.37500  0.17302  Biso   1.000  P
  P121     1.0000 0.82698  0.57698  0.87500  Biso   1.000  P
  P122     1.0000 0.32698  0.07698  0.37500  Biso   1.000  P
  P123     1.0000 0.67302  0.42302  0.37500  Biso   1.000  P
  P124     1.0000 0.17302  0.92302  0.87500  Biso   1.000  P
  P125     1.0000 0.17302  0.07698  0.62500  Biso   1.000  P
  P126     1.0000 0.67302  0.57698  0.12500  Biso   1.000  P
  P127     1.0000 0.32698  0.92302  0.12500  Biso   1.000  P
  P128     1.0000 0.82698  0.42302  0.62500  Biso   1.000  P
  P129     1.0000 0.87500  0.82698  0.57698  Biso   1.000  P
  P130     1.0000 0.37500  0.32698  0.07698  Biso   1.000  P
  P131     1.0000 0.37500  0.67302  0.42302  Biso   1.000  P
  P132     1.0000 0.87500  0.17302  0.92302  Biso   1.000  P
  P133     1.0000 0.62500  0.17302  0.07698  Biso   1.000  P
  P134     1.0000 0.12500  0.67302  0.57698  Biso   1.000  P
  P135     1.0000 0.12500  0.32698  0.92302  Biso   1.000  P
  P136     1.0000 0.62500  0.82698  0.42302  Biso   1.000  P
  P137     1.0000 0.57698  0.87500  0.82698  Biso   1.000  P
  P138     1.0000 0.07698  0.37500  0.32698  Biso   1.000  P
  P139     1.0000 0.42302  0.37500  0.67302  Biso   1.000  P
  P140     1.0000 0.92302  0.87500  0.17302  Biso   1.000  P
  P141     1.0000 0.07698  0.62500  0.17302  Biso   1.000  P
  P142     1.0000 0.57698  0.12500  0.67302  Biso   1.000  P
  P143     1.0000 0.92302  0.12500  0.32698  Biso   1.000  P
  P144     1.0000 0.42302  0.62500  0.82698  Biso   1.000  P
  O769     1.0000 0.12500  0.26498  0.98502  Biso   1.000  O
  O770     1.0000 0.62500  0.76498  0.48502  Biso   1.000  O
  O771     1.0000 0.37500  0.73502  0.48502  Biso   1.000  O
  O772     1.0000 0.87500  0.76498  0.51498  Biso   1.000  O
  O773     1.0000 0.62500  0.23502  0.01498  Biso   1.000  O
  O774     1.0000 0.98502  0.12500  0.26498  Biso   1.000  O
  O775     1.0000 0.48502  0.62500  0.76498  Biso   1.000  O
  O776     1.0000 0.48502  0.37500  0.73502  Biso   1.000  O
  O777     1.0000 0.51498  0.87500  0.76498  Biso   1.000  O
  O778     1.0000 0.01498  0.62500  0.23502  Biso   1.000  O
  O779     1.0000 0.26498  0.98502  0.12500  Biso   1.000  O
  O780     1.0000 0.76498  0.48502  0.62500  Biso   1.000  O
  O781     1.0000 0.73502  0.48502  0.37500  Biso   1.000  O
  O782     1.0000 0.76498  0.51498  0.87500  Biso   1.000  O
  O783     1.0000 0.23502  0.01498  0.62500  Biso   1.000  O
  O784     1.0000 0.01498  0.37500  0.26498  Biso   1.000  O
  O785     1.0000 0.51498  0.12500  0.73502  Biso   1.000  O
  O786     1.0000 0.98502  0.87500  0.23502  Biso   1.000  O
  O787     1.0000 0.87500  0.23502  0.98502  Biso   1.000  O
  O788     1.0000 0.12500  0.73502  0.51498  Biso   1.000  O
  O789     1.0000 0.37500  0.26498  0.01498  Biso   1.000  O
  O790     1.0000 0.73502  0.51498  0.12500  Biso   1.000  O
  O791     1.0000 0.23502  0.98502  0.87500  Biso   1.000  O
  O792     1.0000 0.26498  0.01498  0.37500  Biso   1.000  O
  O793     1.0000 0.87500  0.73502  0.01498  Biso   1.000  O
  O794     1.0000 0.37500  0.23502  0.51498  Biso   1.000  O
  O795     1.0000 0.62500  0.26498  0.51498  Biso   1.000  O
  O796     1.0000 0.12500  0.23502  0.48502  Biso   1.000  O
  O797     1.0000 0.37500  0.76498  0.98502  Biso   1.000  O
  O798     1.0000 0.01498  0.87500  0.73502  Biso   1.000  O
  O799     1.0000 0.51498  0.37500  0.23502  Biso   1.000  O
  O800     1.0000 0.51498  0.62500  0.26498  Biso   1.000  O
  O801     1.0000 0.48502  0.12500  0.23502  Biso   1.000  O
  O802     1.0000 0.98502  0.37500  0.76498  Biso   1.000  O
  O803     1.0000 0.73502  0.01498  0.87500  Biso   1.000  O
  O804     1.0000 0.23502  0.51498  0.37500  Biso   1.000  O
  O805     1.0000 0.26498  0.51498  0.62500  Biso   1.000  O
  O806     1.0000 0.23502  0.48502  0.12500  Biso   1.000  O
  O807     1.0000 0.76498  0.98502  0.37500  Biso   1.000  O
  O808     1.0000 0.98502  0.62500  0.73502  Biso   1.000  O
  O809     1.0000 0.48502  0.87500  0.26498  Biso   1.000  O
  O810     1.0000 0.01498  0.12500  0.76498  Biso   1.000  O
  O811     1.0000 0.12500  0.76498  0.01498  Biso   1.000  O
  O812     1.0000 0.87500  0.26498  0.48502  Biso   1.000  O
  O813     1.0000 0.62500  0.73502  0.98502  Biso   1.000  O
  O814     1.0000 0.26498  0.48502  0.87500  Biso   1.000  O
  O815     1.0000 0.76498  0.01498  0.12500  Biso   1.000  O
  O816     1.0000 0.73502  0.98502  0.62500  Biso   1.000  O
