data_image0
_cell_length_a       38.1682
_cell_length_b       38.1682
_cell_length_c       55.0917
_cell_angle_alpha    90
_cell_angle_beta     90
_cell_angle_gamma    90

_symmetry_space_group_name_H-M    "P 1"
_symmetry_int_tables_number       1

loop_
  _symmetry_equiv_pos_as_xyz
  'x, y, z'

loop_
  _atom_site_label
  _atom_site_occupancy
  _atom_site_fract_x
  _atom_site_fract_y
  _atom_site_fract_z
  _atom_site_thermal_displace_type
  _atom_site_B_iso_or_equiv
  _atom_site_type_symbol
  C1       1.0000 0.35535  0.25372  0.06578  Biso   1.000  C
  H1       1.0000 0.35650  0.23150  0.05880  Biso   1.000  H
  C2       1.0000 0.33255  0.29230  0.09638  Biso   1.000  C
  H2       1.0000 0.31850  0.29570  0.11000  Biso   1.000  H
  C3       1.0000 0.30849  0.14293  0.12177  Biso   1.000  C
  C4       1.0000 0.33719  0.12137  0.11709  Biso   1.000  C
  H3       1.0000 0.35740  0.13000  0.10980  Biso   1.000  H
  C5       1.0000 0.28230  0.12997  0.13526  Biso   1.000  C
  H4       1.0000 0.26370  0.14420  0.13980  Biso   1.000  H
  C6       1.0000 0.33433  0.08638  0.12379  Biso   1.000  C
  H5       1.0000 0.35140  0.07100  0.11810  Biso   1.000  H
  C7       1.0000 0.28320  0.09432  0.14261  Biso   1.000  C
  H6       1.0000 0.26440  0.08550  0.15140  Biso   1.000  H
  C8       1.0000 0.30917  0.07339  0.13763  Biso   1.000  C
  C9       1.0000 0.30961  0.03657  0.14630  Biso   1.000  C
  C10      1.0000 0.28982  0.02688  0.16661  Biso   1.000  C
  H7       1.0000 0.27620  0.04340  0.17470  Biso   1.000  H
  C11      1.0000 0.33198  0.01184  0.13550  Biso   1.000  C
  H8       1.0000 0.34620  0.01860  0.12260  Biso   1.000  H
  Zn1      1.0000 0.42579  0.62831  0.10213  Biso   1.000  Zn
  Zn2      1.0000 0.40114  0.67051  0.13618  Biso   1.000  Zn
  O1       1.0000 0.38111  0.70423  0.16402  Biso   1.000  O
  H9       1.0000 0.36250  0.69640  0.16900  Biso   1.000  H
  O2       1.0000 0.44667  0.59448  0.07431  Biso   1.000  O
  H10      1.0000 0.46690  0.60020  0.07130  Biso   1.000  H
  O3       1.0000 0.41891  0.70752  0.11529  Biso   1.000  O
  O4       1.0000 0.51902  0.71797  0.02533  Biso   1.000  O
  O5       1.0000 0.44189  0.67165  0.08757  Biso   1.000  O
  O6       1.0000 0.53259  0.77520  0.02494  Biso   1.000  O
  C12      1.0000 0.47453  0.72703  0.06377  Biso   1.000  C
  H11      1.0000 0.48020  0.70430  0.05910  Biso   1.000  H
  C13      1.0000 0.43689  0.70137  0.09640  Biso   1.000  C
  N1       1.0000 0.44657  0.82891  0.08339  Biso   1.000  N
  C14      1.0000 0.48943  0.75523  0.05182  Biso   1.000  C
  C15      1.0000 0.51661  0.74912  0.03203  Biso   1.000  C
  C16      1.0000 0.48053  0.78902  0.05819  Biso   1.000  C
  H12      1.0000 0.49020  0.80800  0.05000  Biso   1.000  H
  C17      1.0000 0.45124  0.73263  0.08264  Biso   1.000  C
  C18      1.0000 0.37376  0.89175  0.12182  Biso   1.000  C
  H13      1.0000 0.37030  0.86800  0.12480  Biso   1.000  H
  N2       1.0000 0.44963  0.88421  0.08400  Biso   1.000  N
  C19      1.0000 0.23031  0.96396  0.23693  Biso   1.000  C
  C20      1.0000 0.44196  0.76637  0.08934  Biso   1.000  C
  H14      1.0000 0.42610  0.77020  0.10190  Biso   1.000  H
  C21      1.0000 0.45680  0.79420  0.07700  Biso   1.000  C
  C22      1.0000 0.26911  0.98216  0.19609  Biso   1.000  C
  C23      1.0000 0.33314  0.97705  0.14380  Biso   1.000  C
  C24      1.0000 0.31223  0.96795  0.16281  Biso   1.000  C
  H15      1.0000 0.31230  0.94480  0.16810  Biso   1.000  H
  C25      1.0000 0.24007  0.99520  0.23351  Biso   1.000  C
  H16      1.0000 0.23430  0.01210  0.24500  Biso   1.000  H
  C26      1.0000 0.42039  0.84022  0.09707  Biso   1.000  C
  H17      1.0000 0.40350  0.82650  0.10470  Biso   1.000  H
  C27      1.0000 0.29079  0.99202  0.17461  Biso   1.000  C
  C28      1.0000 0.39905  0.90109  0.10887  Biso   1.000  C
  C29      1.0000 0.38650  0.96028  0.12064  Biso   1.000  C
  H18      1.0000 0.39260  0.98390  0.12040  Biso   1.000  H
  C30      1.0000 0.35657  0.95112  0.13190  Biso   1.000  C
  C31      1.0000 0.25790  0.94936  0.19952  Biso   1.000  C
  H19      1.0000 0.26430  0.93210  0.18850  Biso   1.000  H
  C32      1.0000 0.42288  0.87541  0.09779  Biso   1.000  C
  C33      1.0000 0.25917  0.00534  0.21312  Biso   1.000  C
  H20      1.0000 0.26520  0.02880  0.21120  Biso   1.000  H
  C34      1.0000 0.23710  0.94039  0.21879  Biso   1.000  C
  H21      1.0000 0.22750  0.91800  0.21960  Biso   1.000  H
  C35      1.0000 0.34952  0.91696  0.13242  Biso   1.000  C
  H22      1.0000 0.32890  0.90910  0.13960  Biso   1.000  H
  C36      1.0000 0.40930  0.93625  0.10917  Biso   1.000  C
  H23      1.0000 0.43020  0.94350  0.10210  Biso   1.000  H
  N3       1.0000 0.46468  0.85635  0.07577  Biso   1.000  N
  C37      1.0000 0.37259  0.28198  0.05513  Biso   1.000  C
  C38      1.0000 0.36936  0.31518  0.06465  Biso   1.000  C
  H24      1.0000 0.38030  0.33410  0.05720  Biso   1.000  H
  C39      1.0000 0.34956  0.32004  0.08561  Biso   1.000  C
  C40      1.0000 0.39636  0.27558  0.03345  Biso   1.000  C
  N4       1.0000 0.32025  0.22946  0.09859  Biso   1.000  N
  C41      1.0000 0.33675  0.25906  0.08649  Biso   1.000  C
  C42      1.0000 0.33156  0.19674  0.09874  Biso   1.000  C
  H25      1.0000 0.35110  0.18780  0.09080  Biso   1.000  H
  C43      1.0000 0.30809  0.17874  0.11313  Biso   1.000  C
  N5       1.0000 0.28430  0.20308  0.12126  Biso   1.000  N
  N6       1.0000 0.17948  0.95083  0.29107  Biso   1.000  N
  C44      1.0000 0.19734  0.97234  0.27727  Biso   1.000  C
  H26      1.0000 0.20060  0.99620  0.28000  Biso   1.000  H
  C45      1.0000 0.20991  0.95392  0.25873  Biso   1.000  C
  N7       1.0000 0.17940  0.91982  0.28106  Biso   1.000  N
  N8       1.0000 0.19750  0.92097  0.26134  Biso   1.000  N
  O7       1.0000 0.41181  0.30137  0.02522  Biso   1.000  O
  O8       1.0000 0.39820  0.24480  0.02554  Biso   1.000  O
  C46      1.0000 0.16205  0.98873  0.32419  Biso   1.000  C
  H27      1.0000 0.17390  0.00710  0.31670  Biso   1.000  H
  C47      1.0000 0.14513  0.92802  0.32451  Biso   1.000  C
  H28      1.0000 0.14590  0.90600  0.31730  Biso   1.000  H
  C48      1.0000 0.16155  0.95647  0.31381  Biso   1.000  C
  C49      1.0000 0.12722  0.96589  0.35688  Biso   1.000  C
  H29      1.0000 0.11530  0.96930  0.37140  Biso   1.000  H
  C50      1.0000 0.12754  0.93336  0.34631  Biso   1.000  C
  C51      1.0000 0.14474  0.99416  0.34599  Biso   1.000  C
  C52      1.0000 0.34799  0.35593  0.09792  Biso   1.000  C
  C53      1.0000 0.14644  0.02881  0.35877  Biso   1.000  C
  C54      1.0000 0.11136  0.90216  0.35879  Biso   1.000  C
  N9       1.0000 0.29249  0.23370  0.11258  Biso   1.000  N
  O9       1.0000 0.12775  0.03245  0.37742  Biso   1.000  O
  O10      1.0000 0.36489  0.37959  0.08690  Biso   1.000  O
  O11      1.0000 0.33110  0.35781  0.11665  Biso   1.000  O
  O12      1.0000 0.09520  0.90925  0.37801  Biso   1.000  O
  O13      1.0000 0.16514  0.05202  0.34938  Biso   1.000  O
  O14      1.0000 0.11384  0.87357  0.34859  Biso   1.000  O
  H30      1.0000 0.29690  0.13490  0.10690  Biso   1.000  H
  C55      1.0000 0.85535  0.75372  0.56578  Biso   1.000  C
  H31      1.0000 0.85650  0.73150  0.55880  Biso   1.000  H
  C56      1.0000 0.83255  0.79230  0.59638  Biso   1.000  C
  H32      1.0000 0.81850  0.79570  0.61000  Biso   1.000  H
  C57      1.0000 0.80849  0.64293  0.62177  Biso   1.000  C
  C58      1.0000 0.83719  0.62137  0.61709  Biso   1.000  C
  H33      1.0000 0.85740  0.63000  0.60980  Biso   1.000  H
  C59      1.0000 0.78230  0.62997  0.63526  Biso   1.000  C
  H34      1.0000 0.76370  0.64420  0.63980  Biso   1.000  H
  C60      1.0000 0.83433  0.58638  0.62379  Biso   1.000  C
  H35      1.0000 0.85140  0.57100  0.61810  Biso   1.000  H
  C61      1.0000 0.78320  0.59432  0.64261  Biso   1.000  C
  H36      1.0000 0.76440  0.58550  0.65140  Biso   1.000  H
  C62      1.0000 0.80917  0.57339  0.63763  Biso   1.000  C
  C63      1.0000 0.80961  0.53657  0.64630  Biso   1.000  C
  C64      1.0000 0.78982  0.52688  0.66661  Biso   1.000  C
  H37      1.0000 0.77620  0.54340  0.67470  Biso   1.000  H
  C65      1.0000 0.83198  0.51184  0.63550  Biso   1.000  C
  H38      1.0000 0.84620  0.51860  0.62260  Biso   1.000  H
  Zn3      1.0000 0.92579  0.12831  0.60213  Biso   1.000  Zn
  Zn4      1.0000 0.90114  0.17051  0.63618  Biso   1.000  Zn
  O15      1.0000 0.88111  0.20423  0.66402  Biso   1.000  O
  H39      1.0000 0.86250  0.19640  0.66900  Biso   1.000  H
  O16      1.0000 0.94667  0.09448  0.57431  Biso   1.000  O
  H40      1.0000 0.96690  0.10020  0.57130  Biso   1.000  H
  O17      1.0000 0.91891  0.20752  0.61529  Biso   1.000  O
  O18      1.0000 0.01902  0.21797  0.52533  Biso   1.000  O
  O19      1.0000 0.94189  0.17165  0.58757  Biso   1.000  O
  O20      1.0000 0.03259  0.27520  0.52494  Biso   1.000  O
  C66      1.0000 0.97453  0.22703  0.56377  Biso   1.000  C
  H41      1.0000 0.98020  0.20430  0.55910  Biso   1.000  H
  C67      1.0000 0.93689  0.20137  0.59640  Biso   1.000  C
  N10      1.0000 0.94657  0.32891  0.58339  Biso   1.000  N
  C68      1.0000 0.98943  0.25523  0.55182  Biso   1.000  C
  C69      1.0000 0.01661  0.24912  0.53203  Biso   1.000  C
  C70      1.0000 0.98053  0.28902  0.55819  Biso   1.000  C
  H42      1.0000 0.99020  0.30800  0.55000  Biso   1.000  H
  C71      1.0000 0.95124  0.23263  0.58264  Biso   1.000  C
  C72      1.0000 0.87376  0.39175  0.62182  Biso   1.000  C
  H43      1.0000 0.87030  0.36800  0.62480  Biso   1.000  H
  N11      1.0000 0.94963  0.38421  0.58400  Biso   1.000  N
  C73      1.0000 0.73031  0.46396  0.73693  Biso   1.000  C
  C74      1.0000 0.94196  0.26637  0.58934  Biso   1.000  C
  H44      1.0000 0.92610  0.27020  0.60190  Biso   1.000  H
  C75      1.0000 0.95680  0.29420  0.57700  Biso   1.000  C
  C76      1.0000 0.76911  0.48216  0.69609  Biso   1.000  C
  C77      1.0000 0.83314  0.47705  0.64380  Biso   1.000  C
  C78      1.0000 0.81223  0.46795  0.66281  Biso   1.000  C
  H45      1.0000 0.81230  0.44480  0.66810  Biso   1.000  H
  C79      1.0000 0.74007  0.49520  0.73351  Biso   1.000  C
  H46      1.0000 0.73430  0.51210  0.74500  Biso   1.000  H
  C80      1.0000 0.92039  0.34022  0.59707  Biso   1.000  C
  H47      1.0000 0.90350  0.32650  0.60470  Biso   1.000  H
  C81      1.0000 0.79079  0.49202  0.67461  Biso   1.000  C
  C82      1.0000 0.89905  0.40109  0.60887  Biso   1.000  C
  C83      1.0000 0.88650  0.46028  0.62064  Biso   1.000  C
  H48      1.0000 0.89260  0.48390  0.62040  Biso   1.000  H
  C84      1.0000 0.85657  0.45112  0.63190  Biso   1.000  C
  C85      1.0000 0.75790  0.44936  0.69952  Biso   1.000  C
  H49      1.0000 0.76430  0.43210  0.68850  Biso   1.000  H
  C86      1.0000 0.92288  0.37541  0.59779  Biso   1.000  C
  C87      1.0000 0.75917  0.50534  0.71312  Biso   1.000  C
  H50      1.0000 0.76520  0.52880  0.71120  Biso   1.000  H
  C88      1.0000 0.73710  0.44039  0.71879  Biso   1.000  C
  H51      1.0000 0.72750  0.41800  0.71960  Biso   1.000  H
  C89      1.0000 0.84952  0.41696  0.63242  Biso   1.000  C
  H52      1.0000 0.82890  0.40910  0.63960  Biso   1.000  H
  C90      1.0000 0.90930  0.43625  0.60917  Biso   1.000  C
  H53      1.0000 0.93020  0.44350  0.60210  Biso   1.000  H
  N12      1.0000 0.96468  0.35635  0.57577  Biso   1.000  N
  C91      1.0000 0.87259  0.78198  0.55513  Biso   1.000  C
  C92      1.0000 0.86936  0.81518  0.56465  Biso   1.000  C
  H54      1.0000 0.88030  0.83410  0.55720  Biso   1.000  H
  C93      1.0000 0.84956  0.82004  0.58561  Biso   1.000  C
  C94      1.0000 0.89636  0.77558  0.53345  Biso   1.000  C
  N13      1.0000 0.82025  0.72946  0.59859  Biso   1.000  N
  C95      1.0000 0.83675  0.75906  0.58649  Biso   1.000  C
  C96      1.0000 0.83156  0.69674  0.59874  Biso   1.000  C
  H55      1.0000 0.85110  0.68780  0.59080  Biso   1.000  H
  C97      1.0000 0.80809  0.67874  0.61313  Biso   1.000  C
  N14      1.0000 0.78430  0.70308  0.62126  Biso   1.000  N
  N15      1.0000 0.67948  0.45083  0.79107  Biso   1.000  N
  C98      1.0000 0.69734  0.47234  0.77727  Biso   1.000  C
  H56      1.0000 0.70060  0.49620  0.78000  Biso   1.000  H
  C99      1.0000 0.70991  0.45392  0.75873  Biso   1.000  C
  N16      1.0000 0.67940  0.41982  0.78106  Biso   1.000  N
  N17      1.0000 0.69750  0.42097  0.76134  Biso   1.000  N
  O21      1.0000 0.91181  0.80137  0.52522  Biso   1.000  O
  O22      1.0000 0.89820  0.74480  0.52554  Biso   1.000  O
  C100     1.0000 0.66205  0.48873  0.82419  Biso   1.000  C
  H57      1.0000 0.67390  0.50710  0.81670  Biso   1.000  H
  C101     1.0000 0.64513  0.42802  0.82451  Biso   1.000  C
  H58      1.0000 0.64590  0.40600  0.81730  Biso   1.000  H
  C102     1.0000 0.66155  0.45647  0.81381  Biso   1.000  C
  C103     1.0000 0.62722  0.46589  0.85688  Biso   1.000  C
  H59      1.0000 0.61530  0.46930  0.87140  Biso   1.000  H
  C104     1.0000 0.62754  0.43336  0.84631  Biso   1.000  C
  C105     1.0000 0.64474  0.49416  0.84599  Biso   1.000  C
  C106     1.0000 0.84799  0.85593  0.59792  Biso   1.000  C
  C107     1.0000 0.64644  0.52881  0.85877  Biso   1.000  C
  C108     1.0000 0.61136  0.40216  0.85879  Biso   1.000  C
  N18      1.0000 0.79249  0.73370  0.61258  Biso   1.000  N
  O23      1.0000 0.62775  0.53245  0.87742  Biso   1.000  O
  O24      1.0000 0.86489  0.87959  0.58690  Biso   1.000  O
  O25      1.0000 0.83110  0.85781  0.61665  Biso   1.000  O
  O26      1.0000 0.59520  0.40925  0.87801  Biso   1.000  O
  O27      1.0000 0.66514  0.55202  0.84938  Biso   1.000  O
  O28      1.0000 0.61384  0.37357  0.84859  Biso   1.000  O
  H60      1.0000 0.79690  0.63490  0.60690  Biso   1.000  H
  C109     1.0000 0.64465  0.74628  0.06578  Biso   1.000  C
  H61      1.0000 0.64350  0.76850  0.05880  Biso   1.000  H
  C110     1.0000 0.66745  0.70770  0.09638  Biso   1.000  C
  H62      1.0000 0.68150  0.70430  0.11000  Biso   1.000  H
  C111     1.0000 0.69151  0.85707  0.12177  Biso   1.000  C
  C112     1.0000 0.66281  0.87863  0.11709  Biso   1.000  C
  H63      1.0000 0.64260  0.87000  0.10980  Biso   1.000  H
  C113     1.0000 0.71770  0.87003  0.13526  Biso   1.000  C
  H64      1.0000 0.73630  0.85580  0.13980  Biso   1.000  H
  C114     1.0000 0.66567  0.91362  0.12379  Biso   1.000  C
  H65      1.0000 0.64860  0.92900  0.11810  Biso   1.000  H
  C115     1.0000 0.71680  0.90568  0.14261  Biso   1.000  C
  H66      1.0000 0.73560  0.91450  0.15140  Biso   1.000  H
  C116     1.0000 0.69083  0.92661  0.13763  Biso   1.000  C
  C117     1.0000 0.69039  0.96343  0.14630  Biso   1.000  C
  C118     1.0000 0.71018  0.97312  0.16661  Biso   1.000  C
  H67      1.0000 0.72380  0.95660  0.17470  Biso   1.000  H
  C119     1.0000 0.66802  0.98816  0.13550  Biso   1.000  C
  H68      1.0000 0.65380  0.98140  0.12260  Biso   1.000  H
  Zn5      1.0000 0.57421  0.37169  0.10213  Biso   1.000  Zn
  Zn6      1.0000 0.59886  0.32949  0.13618  Biso   1.000  Zn
  O29      1.0000 0.61889  0.29577  0.16402  Biso   1.000  O
  H69      1.0000 0.63750  0.30360  0.16900  Biso   1.000  H
  O30      1.0000 0.55333  0.40552  0.07431  Biso   1.000  O
  H70      1.0000 0.53310  0.39980  0.07130  Biso   1.000  H
  O31      1.0000 0.58109  0.29248  0.11529  Biso   1.000  O
  O32      1.0000 0.48098  0.28203  0.02533  Biso   1.000  O
  O33      1.0000 0.55811  0.32835  0.08757  Biso   1.000  O
  O34      1.0000 0.46741  0.22480  0.02494  Biso   1.000  O
  C120     1.0000 0.52547  0.27297  0.06377  Biso   1.000  C
  H71      1.0000 0.51980  0.29570  0.05910  Biso   1.000  H
  C121     1.0000 0.56311  0.29863  0.09640  Biso   1.000  C
  N19      1.0000 0.55343  0.17109  0.08339  Biso   1.000  N
  C122     1.0000 0.51057  0.24477  0.05182  Biso   1.000  C
  C123     1.0000 0.48339  0.25088  0.03203  Biso   1.000  C
  C124     1.0000 0.51947  0.21098  0.05819  Biso   1.000  C
  H72      1.0000 0.50980  0.19200  0.05000  Biso   1.000  H
  C125     1.0000 0.54876  0.26737  0.08264  Biso   1.000  C
  C126     1.0000 0.62624  0.10825  0.12182  Biso   1.000  C
  H73      1.0000 0.62970  0.13200  0.12480  Biso   1.000  H
  N20      1.0000 0.55037  0.11579  0.08400  Biso   1.000  N
  C127     1.0000 0.76969  0.03604  0.23693  Biso   1.000  C
  C128     1.0000 0.55804  0.23363  0.08934  Biso   1.000  C
  H74      1.0000 0.57390  0.22980  0.10190  Biso   1.000  H
  C129     1.0000 0.54320  0.20580  0.07700  Biso   1.000  C
  C130     1.0000 0.73089  0.01784  0.19609  Biso   1.000  C
  C131     1.0000 0.66686  0.02295  0.14380  Biso   1.000  C
  C132     1.0000 0.68777  0.03205  0.16281  Biso   1.000  C
  H75      1.0000 0.68770  0.05520  0.16810  Biso   1.000  H
  C133     1.0000 0.75993  0.00480  0.23351  Biso   1.000  C
  H76      1.0000 0.76570  0.98790  0.24500  Biso   1.000  H
  C134     1.0000 0.57961  0.15978  0.09707  Biso   1.000  C
  H77      1.0000 0.59650  0.17350  0.10470  Biso   1.000  H
  C135     1.0000 0.70921  0.00798  0.17461  Biso   1.000  C
  C136     1.0000 0.60095  0.09891  0.10887  Biso   1.000  C
  C137     1.0000 0.61350  0.03972  0.12064  Biso   1.000  C
  H78      1.0000 0.60740  0.01610  0.12040  Biso   1.000  H
  C138     1.0000 0.64343  0.04888  0.13190  Biso   1.000  C
  C139     1.0000 0.74210  0.05064  0.19952  Biso   1.000  C
  H79      1.0000 0.73570  0.06790  0.18850  Biso   1.000  H
  C140     1.0000 0.57712  0.12459  0.09779  Biso   1.000  C
  C141     1.0000 0.74083  0.99466  0.21312  Biso   1.000  C
  H80      1.0000 0.73480  0.97120  0.21120  Biso   1.000  H
  C142     1.0000 0.76290  0.05961  0.21879  Biso   1.000  C
  H81      1.0000 0.77250  0.08200  0.21960  Biso   1.000  H
  C143     1.0000 0.65048  0.08304  0.13242  Biso   1.000  C
  H82      1.0000 0.67110  0.09090  0.13960  Biso   1.000  H
  C144     1.0000 0.59070  0.06375  0.10917  Biso   1.000  C
  H83      1.0000 0.56980  0.05650  0.10210  Biso   1.000  H
  N21      1.0000 0.53532  0.14365  0.07577  Biso   1.000  N
  C145     1.0000 0.62741  0.71802  0.05513  Biso   1.000  C
  C146     1.0000 0.63064  0.68482  0.06465  Biso   1.000  C
  H84      1.0000 0.61970  0.66590  0.05720  Biso   1.000  H
  C147     1.0000 0.65044  0.67996  0.08561  Biso   1.000  C
  C148     1.0000 0.60364  0.72442  0.03345  Biso   1.000  C
  N22      1.0000 0.67975  0.77054  0.09859  Biso   1.000  N
  C149     1.0000 0.66325  0.74094  0.08649  Biso   1.000  C
  C150     1.0000 0.66844  0.80326  0.09874  Biso   1.000  C
  H85      1.0000 0.64890  0.81220  0.09080  Biso   1.000  H
  C151     1.0000 0.69191  0.82126  0.11313  Biso   1.000  C
  N23      1.0000 0.71570  0.79692  0.12126  Biso   1.000  N
  N24      1.0000 0.82052  0.04917  0.29107  Biso   1.000  N
  C152     1.0000 0.80266  0.02766  0.27727  Biso   1.000  C
  H86      1.0000 0.79940  0.00380  0.28000  Biso   1.000  H
  C153     1.0000 0.79009  0.04608  0.25873  Biso   1.000  C
  N25      1.0000 0.82060  0.08018  0.28106  Biso   1.000  N
  N26      1.0000 0.80250  0.07903  0.26134  Biso   1.000  N
  O35      1.0000 0.58819  0.69863  0.02522  Biso   1.000  O
  O36      1.0000 0.60180  0.75520  0.02554  Biso   1.000  O
  C154     1.0000 0.83795  0.01127  0.32419  Biso   1.000  C
  H87      1.0000 0.82610  0.99290  0.31670  Biso   1.000  H
  C155     1.0000 0.85487  0.07198  0.32451  Biso   1.000  C
  H88      1.0000 0.85410  0.09400  0.31730  Biso   1.000  H
  C156     1.0000 0.83845  0.04353  0.31381  Biso   1.000  C
  C157     1.0000 0.87278  0.03411  0.35688  Biso   1.000  C
  H89      1.0000 0.88470  0.03070  0.37140  Biso   1.000  H
  C158     1.0000 0.87246  0.06664  0.34631  Biso   1.000  C
  C159     1.0000 0.85526  0.00584  0.34599  Biso   1.000  C
  C160     1.0000 0.65201  0.64407  0.09792  Biso   1.000  C
  C161     1.0000 0.85356  0.97119  0.35877  Biso   1.000  C
  C162     1.0000 0.88864  0.09784  0.35879  Biso   1.000  C
  N27      1.0000 0.70751  0.76630  0.11258  Biso   1.000  N
  O37      1.0000 0.87225  0.96755  0.37742  Biso   1.000  O
  O38      1.0000 0.63511  0.62041  0.08690  Biso   1.000  O
  O39      1.0000 0.66890  0.64219  0.11665  Biso   1.000  O
  O40      1.0000 0.90480  0.09075  0.37801  Biso   1.000  O
  O41      1.0000 0.83486  0.94798  0.34938  Biso   1.000  O
  O42      1.0000 0.88616  0.12643  0.34859  Biso   1.000  O
  H90      1.0000 0.70310  0.86510  0.10690  Biso   1.000  H
  C163     1.0000 0.14465  0.24628  0.56578  Biso   1.000  C
  H91      1.0000 0.14350  0.26850  0.55880  Biso   1.000  H
  C164     1.0000 0.16745  0.20770  0.59638  Biso   1.000  C
  H92      1.0000 0.18150  0.20430  0.61000  Biso   1.000  H
  C165     1.0000 0.19151  0.35707  0.62177  Biso   1.000  C
  C166     1.0000 0.16281  0.37863  0.61709  Biso   1.000  C
  H93      1.0000 0.14260  0.37000  0.60980  Biso   1.000  H
  C167     1.0000 0.21770  0.37003  0.63526  Biso   1.000  C
  H94      1.0000 0.23630  0.35580  0.63980  Biso   1.000  H
  C168     1.0000 0.16567  0.41362  0.62379  Biso   1.000  C
  H95      1.0000 0.14860  0.42900  0.61810  Biso   1.000  H
  C169     1.0000 0.21680  0.40568  0.64261  Biso   1.000  C
  H96      1.0000 0.23560  0.41450  0.65140  Biso   1.000  H
  C170     1.0000 0.19083  0.42661  0.63763  Biso   1.000  C
  C171     1.0000 0.19039  0.46343  0.64630  Biso   1.000  C
  C172     1.0000 0.21018  0.47312  0.66661  Biso   1.000  C
  H97      1.0000 0.22380  0.45660  0.67470  Biso   1.000  H
  C173     1.0000 0.16802  0.48816  0.63550  Biso   1.000  C
  H98      1.0000 0.15380  0.48140  0.62260  Biso   1.000  H
  Zn7      1.0000 0.07421  0.87169  0.60213  Biso   1.000  Zn
  Zn8      1.0000 0.09886  0.82949  0.63618  Biso   1.000  Zn
  O43      1.0000 0.11889  0.79577  0.66402  Biso   1.000  O
  H99      1.0000 0.13750  0.80360  0.66900  Biso   1.000  H
  O44      1.0000 0.05333  0.90552  0.57431  Biso   1.000  O
  H100     1.0000 0.03310  0.89980  0.57130  Biso   1.000  H
  O45      1.0000 0.08109  0.79248  0.61529  Biso   1.000  O
  O46      1.0000 0.98098  0.78203  0.52533  Biso   1.000  O
  O47      1.0000 0.05811  0.82835  0.58757  Biso   1.000  O
  O48      1.0000 0.96741  0.72480  0.52494  Biso   1.000  O
  C174     1.0000 0.02547  0.77297  0.56377  Biso   1.000  C
  H101     1.0000 0.01980  0.79570  0.55910  Biso   1.000  H
  C175     1.0000 0.06311  0.79863  0.59640  Biso   1.000  C
  N28      1.0000 0.05343  0.67109  0.58339  Biso   1.000  N
  C176     1.0000 0.01057  0.74477  0.55182  Biso   1.000  C
  C177     1.0000 0.98339  0.75088  0.53203  Biso   1.000  C
  C178     1.0000 0.01947  0.71098  0.55819  Biso   1.000  C
  H102     1.0000 0.00980  0.69200  0.55000  Biso   1.000  H
  C179     1.0000 0.04876  0.76737  0.58264  Biso   1.000  C
  C180     1.0000 0.12624  0.60825  0.62182  Biso   1.000  C
  H103     1.0000 0.12970  0.63200  0.62480  Biso   1.000  H
  N29      1.0000 0.05037  0.61579  0.58400  Biso   1.000  N
  C181     1.0000 0.26969  0.53604  0.73693  Biso   1.000  C
  C182     1.0000 0.05804  0.73363  0.58934  Biso   1.000  C
  H104     1.0000 0.07390  0.72980  0.60190  Biso   1.000  H
  C183     1.0000 0.04320  0.70580  0.57700  Biso   1.000  C
  C184     1.0000 0.23089  0.51784  0.69609  Biso   1.000  C
  C185     1.0000 0.16686  0.52295  0.64380  Biso   1.000  C
  C186     1.0000 0.18777  0.53205  0.66281  Biso   1.000  C
  H105     1.0000 0.18770  0.55520  0.66810  Biso   1.000  H
  C187     1.0000 0.25993  0.50480  0.73351  Biso   1.000  C
  H106     1.0000 0.26570  0.48790  0.74500  Biso   1.000  H
  C188     1.0000 0.07961  0.65978  0.59707  Biso   1.000  C
  H107     1.0000 0.09650  0.67350  0.60470  Biso   1.000  H
  C189     1.0000 0.20921  0.50798  0.67461  Biso   1.000  C
  C190     1.0000 0.10095  0.59891  0.60887  Biso   1.000  C
  C191     1.0000 0.11350  0.53972  0.62064  Biso   1.000  C
  H108     1.0000 0.10740  0.51610  0.62040  Biso   1.000  H
  C192     1.0000 0.14343  0.54888  0.63190  Biso   1.000  C
  C193     1.0000 0.24210  0.55064  0.69952  Biso   1.000  C
  H109     1.0000 0.23570  0.56790  0.68850  Biso   1.000  H
  C194     1.0000 0.07712  0.62459  0.59779  Biso   1.000  C
  C195     1.0000 0.24083  0.49466  0.71312  Biso   1.000  C
  H110     1.0000 0.23480  0.47120  0.71120  Biso   1.000  H
  C196     1.0000 0.26290  0.55961  0.71879  Biso   1.000  C
  H111     1.0000 0.27250  0.58200  0.71960  Biso   1.000  H
  C197     1.0000 0.15048  0.58304  0.63242  Biso   1.000  C
  H112     1.0000 0.17110  0.59090  0.63960  Biso   1.000  H
  C198     1.0000 0.09070  0.56375  0.60917  Biso   1.000  C
  H113     1.0000 0.06980  0.55650  0.60210  Biso   1.000  H
  N30      1.0000 0.03532  0.64365  0.57577  Biso   1.000  N
  C199     1.0000 0.12741  0.21802  0.55513  Biso   1.000  C
  C200     1.0000 0.13064  0.18482  0.56465  Biso   1.000  C
  H114     1.0000 0.11970  0.16590  0.55720  Biso   1.000  H
  C201     1.0000 0.15044  0.17996  0.58561  Biso   1.000  C
  C202     1.0000 0.10364  0.22442  0.53345  Biso   1.000  C
  N31      1.0000 0.17975  0.27054  0.59859  Biso   1.000  N
  C203     1.0000 0.16325  0.24094  0.58649  Biso   1.000  C
  C204     1.0000 0.16844  0.30326  0.59874  Biso   1.000  C
  H115     1.0000 0.14890  0.31220  0.59080  Biso   1.000  H
  C205     1.0000 0.19191  0.32126  0.61313  Biso   1.000  C
  N32      1.0000 0.21570  0.29692  0.62126  Biso   1.000  N
  N33      1.0000 0.32052  0.54917  0.79107  Biso   1.000  N
  C206     1.0000 0.30266  0.52766  0.77727  Biso   1.000  C
  H116     1.0000 0.29940  0.50380  0.78000  Biso   1.000  H
  C207     1.0000 0.29009  0.54608  0.75873  Biso   1.000  C
  N34      1.0000 0.32060  0.58018  0.78106  Biso   1.000  N
  N35      1.0000 0.30250  0.57903  0.76134  Biso   1.000  N
  O49      1.0000 0.08819  0.19863  0.52522  Biso   1.000  O
  O50      1.0000 0.10180  0.25520  0.52554  Biso   1.000  O
  C208     1.0000 0.33795  0.51127  0.82419  Biso   1.000  C
  H117     1.0000 0.32610  0.49290  0.81670  Biso   1.000  H
  C209     1.0000 0.35487  0.57198  0.82451  Biso   1.000  C
  H118     1.0000 0.35410  0.59400  0.81730  Biso   1.000  H
  C210     1.0000 0.33845  0.54353  0.81381  Biso   1.000  C
  C211     1.0000 0.37278  0.53411  0.85688  Biso   1.000  C
  H119     1.0000 0.38470  0.53070  0.87140  Biso   1.000  H
  C212     1.0000 0.37246  0.56664  0.84631  Biso   1.000  C
  C213     1.0000 0.35526  0.50584  0.84599  Biso   1.000  C
  C214     1.0000 0.15201  0.14407  0.59792  Biso   1.000  C
  C215     1.0000 0.35356  0.47119  0.85877  Biso   1.000  C
  C216     1.0000 0.38864  0.59784  0.85879  Biso   1.000  C
  N36      1.0000 0.20751  0.26630  0.61258  Biso   1.000  N
  O51      1.0000 0.37225  0.46755  0.87742  Biso   1.000  O
  O52      1.0000 0.13511  0.12041  0.58690  Biso   1.000  O
  O53      1.0000 0.16890  0.14219  0.61665  Biso   1.000  O
  O54      1.0000 0.40480  0.59075  0.87801  Biso   1.000  O
  O55      1.0000 0.33486  0.44798  0.84938  Biso   1.000  O
  O56      1.0000 0.38616  0.62643  0.84859  Biso   1.000  O
  H120     1.0000 0.20310  0.36510  0.60690  Biso   1.000  H
  C217     1.0000 0.74628  0.35535  0.06578  Biso   1.000  C
  H121     1.0000 0.76850  0.35650  0.05880  Biso   1.000  H
  C218     1.0000 0.70770  0.33255  0.09638  Biso   1.000  C
  H122     1.0000 0.70430  0.31850  0.11000  Biso   1.000  H
  C219     1.0000 0.85707  0.30849  0.12177  Biso   1.000  C
  C220     1.0000 0.87863  0.33719  0.11709  Biso   1.000  C
  H123     1.0000 0.87000  0.35740  0.10980  Biso   1.000  H
  C221     1.0000 0.87003  0.28230  0.13526  Biso   1.000  C
  H124     1.0000 0.85580  0.26370  0.13980  Biso   1.000  H
  C222     1.0000 0.91362  0.33433  0.12379  Biso   1.000  C
  H125     1.0000 0.92900  0.35140  0.11810  Biso   1.000  H
  C223     1.0000 0.90568  0.28320  0.14261  Biso   1.000  C
  H126     1.0000 0.91450  0.26440  0.15140  Biso   1.000  H
  C224     1.0000 0.92661  0.30917  0.13763  Biso   1.000  C
  C225     1.0000 0.96343  0.30961  0.14630  Biso   1.000  C
  C226     1.0000 0.97312  0.28982  0.16661  Biso   1.000  C
  H127     1.0000 0.95660  0.27620  0.17470  Biso   1.000  H
  C227     1.0000 0.98816  0.33198  0.13550  Biso   1.000  C
  H128     1.0000 0.98140  0.34620  0.12260  Biso   1.000  H
  Zn9      1.0000 0.37169  0.42579  0.10213  Biso   1.000  Zn
  Zn10     1.0000 0.32949  0.40114  0.13618  Biso   1.000  Zn
  O57      1.0000 0.29577  0.38111  0.16402  Biso   1.000  O
  H129     1.0000 0.30360  0.36250  0.16900  Biso   1.000  H
  O58      1.0000 0.40552  0.44667  0.07431  Biso   1.000  O
  H130     1.0000 0.39980  0.46690  0.07130  Biso   1.000  H
  O59      1.0000 0.29248  0.41891  0.11529  Biso   1.000  O
  O60      1.0000 0.28203  0.51902  0.02533  Biso   1.000  O
  O61      1.0000 0.32835  0.44189  0.08757  Biso   1.000  O
  O62      1.0000 0.22480  0.53259  0.02494  Biso   1.000  O
  C228     1.0000 0.27297  0.47453  0.06377  Biso   1.000  C
  H131     1.0000 0.29570  0.48020  0.05910  Biso   1.000  H
  C229     1.0000 0.29863  0.43689  0.09640  Biso   1.000  C
  N37      1.0000 0.17109  0.44657  0.08339  Biso   1.000  N
  C230     1.0000 0.24477  0.48943  0.05182  Biso   1.000  C
  C231     1.0000 0.25088  0.51661  0.03203  Biso   1.000  C
  C232     1.0000 0.21098  0.48053  0.05819  Biso   1.000  C
  H132     1.0000 0.19200  0.49020  0.05000  Biso   1.000  H
  C233     1.0000 0.26737  0.45124  0.08264  Biso   1.000  C
  C234     1.0000 0.10825  0.37376  0.12182  Biso   1.000  C
  H133     1.0000 0.13200  0.37030  0.12480  Biso   1.000  H
  N38      1.0000 0.11579  0.44963  0.08400  Biso   1.000  N
  C235     1.0000 0.03604  0.23031  0.23693  Biso   1.000  C
  C236     1.0000 0.23363  0.44196  0.08934  Biso   1.000  C
  H134     1.0000 0.22980  0.42610  0.10190  Biso   1.000  H
  C237     1.0000 0.20580  0.45680  0.07700  Biso   1.000  C
  C238     1.0000 0.01784  0.26911  0.19609  Biso   1.000  C
  C239     1.0000 0.02295  0.33314  0.14380  Biso   1.000  C
  C240     1.0000 0.03205  0.31223  0.16281  Biso   1.000  C
  H135     1.0000 0.05520  0.31230  0.16810  Biso   1.000  H
  C241     1.0000 0.00480  0.24007  0.23351  Biso   1.000  C
  H136     1.0000 0.98790  0.23430  0.24500  Biso   1.000  H
  C242     1.0000 0.15978  0.42039  0.09707  Biso   1.000  C
  H137     1.0000 0.17350  0.40350  0.10470  Biso   1.000  H
  C243     1.0000 0.00798  0.29079  0.17461  Biso   1.000  C
  C244     1.0000 0.09891  0.39905  0.10887  Biso   1.000  C
  C245     1.0000 0.03972  0.38650  0.12064  Biso   1.000  C
  H138     1.0000 0.01610  0.39260  0.12040  Biso   1.000  H
  C246     1.0000 0.04888  0.35657  0.13190  Biso   1.000  C
  C247     1.0000 0.05064  0.25790  0.19952  Biso   1.000  C
  H139     1.0000 0.06790  0.26430  0.18850  Biso   1.000  H
  C248     1.0000 0.12459  0.42288  0.09779  Biso   1.000  C
  C249     1.0000 0.99466  0.25917  0.21312  Biso   1.000  C
  H140     1.0000 0.97120  0.26520  0.21120  Biso   1.000  H
  C250     1.0000 0.05961  0.23710  0.21879  Biso   1.000  C
  H141     1.0000 0.08200  0.22750  0.21960  Biso   1.000  H
  C251     1.0000 0.08304  0.34952  0.13242  Biso   1.000  C
  H142     1.0000 0.09090  0.32890  0.13960  Biso   1.000  H
  C252     1.0000 0.06375  0.40930  0.10917  Biso   1.000  C
  H143     1.0000 0.05650  0.43020  0.10210  Biso   1.000  H
  N39      1.0000 0.14365  0.46468  0.07577  Biso   1.000  N
  C253     1.0000 0.71802  0.37259  0.05513  Biso   1.000  C
  C254     1.0000 0.68482  0.36936  0.06465  Biso   1.000  C
  H144     1.0000 0.66590  0.38030  0.05720  Biso   1.000  H
  C255     1.0000 0.67996  0.34956  0.08561  Biso   1.000  C
  C256     1.0000 0.72442  0.39636  0.03345  Biso   1.000  C
  N40      1.0000 0.77054  0.32025  0.09859  Biso   1.000  N
  C257     1.0000 0.74094  0.33675  0.08649  Biso   1.000  C
  C258     1.0000 0.80326  0.33156  0.09874  Biso   1.000  C
  H145     1.0000 0.81220  0.35110  0.09080  Biso   1.000  H
  C259     1.0000 0.82126  0.30809  0.11313  Biso   1.000  C
  N41      1.0000 0.79692  0.28430  0.12126  Biso   1.000  N
  N42      1.0000 0.04917  0.17948  0.29107  Biso   1.000  N
  C260     1.0000 0.02766  0.19734  0.27727  Biso   1.000  C
  H146     1.0000 0.00380  0.20060  0.28000  Biso   1.000  H
  C261     1.0000 0.04608  0.20991  0.25873  Biso   1.000  C
  N43      1.0000 0.08018  0.17940  0.28106  Biso   1.000  N
  N44      1.0000 0.07903  0.19750  0.26134  Biso   1.000  N
  O63      1.0000 0.69863  0.41181  0.02522  Biso   1.000  O
  O64      1.0000 0.75520  0.39820  0.02554  Biso   1.000  O
  C262     1.0000 0.01127  0.16205  0.32419  Biso   1.000  C
  H147     1.0000 0.99290  0.17390  0.31670  Biso   1.000  H
  C263     1.0000 0.07198  0.14513  0.32451  Biso   1.000  C
  H148     1.0000 0.09400  0.14590  0.31730  Biso   1.000  H
  C264     1.0000 0.04353  0.16155  0.31381  Biso   1.000  C
  C265     1.0000 0.03411  0.12722  0.35688  Biso   1.000  C
  H149     1.0000 0.03070  0.11530  0.37140  Biso   1.000  H
  C266     1.0000 0.06664  0.12754  0.34631  Biso   1.000  C
  C267     1.0000 0.00584  0.14474  0.34599  Biso   1.000  C
  C268     1.0000 0.64407  0.34799  0.09792  Biso   1.000  C
  C269     1.0000 0.97119  0.14644  0.35877  Biso   1.000  C
  C270     1.0000 0.09784  0.11136  0.35879  Biso   1.000  C
  N45      1.0000 0.76630  0.29249  0.11258  Biso   1.000  N
  O65      1.0000 0.96755  0.12775  0.37742  Biso   1.000  O
  O66      1.0000 0.62041  0.36489  0.08690  Biso   1.000  O
  O67      1.0000 0.64219  0.33110  0.11665  Biso   1.000  O
  O68      1.0000 0.09075  0.09520  0.37801  Biso   1.000  O
  O69      1.0000 0.94798  0.16514  0.34938  Biso   1.000  O
  O70      1.0000 0.12643  0.11384  0.34859  Biso   1.000  O
  H150     1.0000 0.86510  0.29690  0.10690  Biso   1.000  H
  C271     1.0000 0.24628  0.85535  0.56578  Biso   1.000  C
  H151     1.0000 0.26850  0.85650  0.55880  Biso   1.000  H
  C272     1.0000 0.20770  0.83255  0.59638  Biso   1.000  C
  H152     1.0000 0.20430  0.81850  0.61000  Biso   1.000  H
  C273     1.0000 0.35707  0.80849  0.62177  Biso   1.000  C
  C274     1.0000 0.37863  0.83719  0.61709  Biso   1.000  C
  H153     1.0000 0.37000  0.85740  0.60980  Biso   1.000  H
  C275     1.0000 0.37003  0.78230  0.63526  Biso   1.000  C
  H154     1.0000 0.35580  0.76370  0.63980  Biso   1.000  H
  C276     1.0000 0.41362  0.83433  0.62379  Biso   1.000  C
  H155     1.0000 0.42900  0.85140  0.61810  Biso   1.000  H
  C277     1.0000 0.40568  0.78320  0.64261  Biso   1.000  C
  H156     1.0000 0.41450  0.76440  0.65140  Biso   1.000  H
  C278     1.0000 0.42661  0.80917  0.63763  Biso   1.000  C
  C279     1.0000 0.46343  0.80961  0.64630  Biso   1.000  C
  C280     1.0000 0.47312  0.78982  0.66661  Biso   1.000  C
  H157     1.0000 0.45660  0.77620  0.67470  Biso   1.000  H
  C281     1.0000 0.48816  0.83198  0.63550  Biso   1.000  C
  H158     1.0000 0.48140  0.84620  0.62260  Biso   1.000  H
  Zn11     1.0000 0.87169  0.92579  0.60213  Biso   1.000  Zn
  Zn12     1.0000 0.82949  0.90114  0.63618  Biso   1.000  Zn
  O71      1.0000 0.79577  0.88111  0.66402  Biso   1.000  O
  H159     1.0000 0.80360  0.86250  0.66900  Biso   1.000  H
  O72      1.0000 0.90552  0.94667  0.57431  Biso   1.000  O
  H160     1.0000 0.89980  0.96690  0.57130  Biso   1.000  H
  O73      1.0000 0.79248  0.91891  0.61529  Biso   1.000  O
  O74      1.0000 0.78203  0.01902  0.52533  Biso   1.000  O
  O75      1.0000 0.82835  0.94189  0.58757  Biso   1.000  O
  O76      1.0000 0.72480  0.03259  0.52494  Biso   1.000  O
  C282     1.0000 0.77297  0.97453  0.56377  Biso   1.000  C
  H161     1.0000 0.79570  0.98020  0.55910  Biso   1.000  H
  C283     1.0000 0.79863  0.93689  0.59640  Biso   1.000  C
  N46      1.0000 0.67109  0.94657  0.58339  Biso   1.000  N
  C284     1.0000 0.74477  0.98943  0.55182  Biso   1.000  C
  C285     1.0000 0.75088  0.01661  0.53203  Biso   1.000  C
  C286     1.0000 0.71098  0.98053  0.55819  Biso   1.000  C
  H162     1.0000 0.69200  0.99020  0.55000  Biso   1.000  H
  C287     1.0000 0.76737  0.95124  0.58264  Biso   1.000  C
  C288     1.0000 0.60825  0.87376  0.62182  Biso   1.000  C
  H163     1.0000 0.63200  0.87030  0.62480  Biso   1.000  H
  N47      1.0000 0.61579  0.94963  0.58400  Biso   1.000  N
  C289     1.0000 0.53604  0.73031  0.73693  Biso   1.000  C
  C290     1.0000 0.73363  0.94196  0.58934  Biso   1.000  C
  H164     1.0000 0.72980  0.92610  0.60190  Biso   1.000  H
  C291     1.0000 0.70580  0.95680  0.57700  Biso   1.000  C
  C292     1.0000 0.51784  0.76911  0.69609  Biso   1.000  C
  C293     1.0000 0.52295  0.83314  0.64380  Biso   1.000  C
  C294     1.0000 0.53205  0.81223  0.66281  Biso   1.000  C
  H165     1.0000 0.55520  0.81230  0.66810  Biso   1.000  H
  C295     1.0000 0.50480  0.74007  0.73351  Biso   1.000  C
  H166     1.0000 0.48790  0.73430  0.74500  Biso   1.000  H
  C296     1.0000 0.65978  0.92039  0.59707  Biso   1.000  C
  H167     1.0000 0.67350  0.90350  0.60470  Biso   1.000  H
  C297     1.0000 0.50798  0.79079  0.67461  Biso   1.000  C
  C298     1.0000 0.59891  0.89905  0.60887  Biso   1.000  C
  C299     1.0000 0.53972  0.88650  0.62064  Biso   1.000  C
  H168     1.0000 0.51610  0.89260  0.62040  Biso   1.000  H
  C300     1.0000 0.54888  0.85657  0.63190  Biso   1.000  C
  C301     1.0000 0.55064  0.75790  0.69952  Biso   1.000  C
  H169     1.0000 0.56790  0.76430  0.68850  Biso   1.000  H
  C302     1.0000 0.62459  0.92288  0.59779  Biso   1.000  C
  C303     1.0000 0.49466  0.75917  0.71312  Biso   1.000  C
  H170     1.0000 0.47120  0.76520  0.71120  Biso   1.000  H
  C304     1.0000 0.55961  0.73710  0.71879  Biso   1.000  C
  H171     1.0000 0.58200  0.72750  0.71960  Biso   1.000  H
  C305     1.0000 0.58304  0.84952  0.63242  Biso   1.000  C
  H172     1.0000 0.59090  0.82890  0.63960  Biso   1.000  H
  C306     1.0000 0.56375  0.90930  0.60917  Biso   1.000  C
  H173     1.0000 0.55650  0.93020  0.60210  Biso   1.000  H
  N48      1.0000 0.64365  0.96468  0.57577  Biso   1.000  N
  C307     1.0000 0.21802  0.87259  0.55513  Biso   1.000  C
  C308     1.0000 0.18482  0.86936  0.56465  Biso   1.000  C
  H174     1.0000 0.16590  0.88030  0.55720  Biso   1.000  H
  C309     1.0000 0.17996  0.84956  0.58561  Biso   1.000  C
  C310     1.0000 0.22442  0.89636  0.53345  Biso   1.000  C
  N49      1.0000 0.27054  0.82025  0.59859  Biso   1.000  N
  C311     1.0000 0.24094  0.83675  0.58649  Biso   1.000  C
  C312     1.0000 0.30326  0.83156  0.59874  Biso   1.000  C
  H175     1.0000 0.31220  0.85110  0.59080  Biso   1.000  H
  C313     1.0000 0.32126  0.80809  0.61313  Biso   1.000  C
  N50      1.0000 0.29692  0.78430  0.62126  Biso   1.000  N
  N51      1.0000 0.54917  0.67948  0.79107  Biso   1.000  N
  C314     1.0000 0.52766  0.69734  0.77727  Biso   1.000  C
  H176     1.0000 0.50380  0.70060  0.78000  Biso   1.000  H
  C315     1.0000 0.54608  0.70991  0.75873  Biso   1.000  C
  N52      1.0000 0.58018  0.67940  0.78106  Biso   1.000  N
  N53      1.0000 0.57903  0.69750  0.76134  Biso   1.000  N
  O77      1.0000 0.19863  0.91181  0.52522  Biso   1.000  O
  O78      1.0000 0.25520  0.89820  0.52554  Biso   1.000  O
  C316     1.0000 0.51127  0.66205  0.82419  Biso   1.000  C
  H177     1.0000 0.49290  0.67390  0.81670  Biso   1.000  H
  C317     1.0000 0.57198  0.64513  0.82451  Biso   1.000  C
  H178     1.0000 0.59400  0.64590  0.81730  Biso   1.000  H
  C318     1.0000 0.54353  0.66155  0.81381  Biso   1.000  C
  C319     1.0000 0.53411  0.62722  0.85688  Biso   1.000  C
  H179     1.0000 0.53070  0.61530  0.87140  Biso   1.000  H
  C320     1.0000 0.56664  0.62754  0.84631  Biso   1.000  C
  C321     1.0000 0.50584  0.64474  0.84599  Biso   1.000  C
  C322     1.0000 0.14407  0.84799  0.59792  Biso   1.000  C
  C323     1.0000 0.47119  0.64644  0.85877  Biso   1.000  C
  C324     1.0000 0.59784  0.61136  0.85879  Biso   1.000  C
  N54      1.0000 0.26630  0.79249  0.61258  Biso   1.000  N
  O79      1.0000 0.46755  0.62775  0.87742  Biso   1.000  O
  O80      1.0000 0.12041  0.86489  0.58690  Biso   1.000  O
  O81      1.0000 0.14219  0.83110  0.61665  Biso   1.000  O
  O82      1.0000 0.59075  0.59520  0.87801  Biso   1.000  O
  O83      1.0000 0.44798  0.66514  0.84938  Biso   1.000  O
  O84      1.0000 0.62643  0.61384  0.84859  Biso   1.000  O
  H180     1.0000 0.36510  0.79690  0.60690  Biso   1.000  H
  C325     1.0000 0.25372  0.64465  0.06578  Biso   1.000  C
  H181     1.0000 0.23150  0.64350  0.05880  Biso   1.000  H
  C326     1.0000 0.29230  0.66745  0.09638  Biso   1.000  C
  H182     1.0000 0.29570  0.68150  0.11000  Biso   1.000  H
  C327     1.0000 0.14293  0.69151  0.12177  Biso   1.000  C
  C328     1.0000 0.12137  0.66281  0.11709  Biso   1.000  C
  H183     1.0000 0.13000  0.64260  0.10980  Biso   1.000  H
  C329     1.0000 0.12997  0.71770  0.13526  Biso   1.000  C
  H184     1.0000 0.14420  0.73630  0.13980  Biso   1.000  H
  C330     1.0000 0.08638  0.66567  0.12379  Biso   1.000  C
  H185     1.0000 0.07100  0.64860  0.11810  Biso   1.000  H
  C331     1.0000 0.09432  0.71680  0.14261  Biso   1.000  C
  H186     1.0000 0.08550  0.73560  0.15140  Biso   1.000  H
  C332     1.0000 0.07339  0.69083  0.13763  Biso   1.000  C
  C333     1.0000 0.03657  0.69039  0.14630  Biso   1.000  C
  C334     1.0000 0.02688  0.71018  0.16661  Biso   1.000  C
  H187     1.0000 0.04340  0.72380  0.17470  Biso   1.000  H
  C335     1.0000 0.01184  0.66802  0.13550  Biso   1.000  C
  H188     1.0000 0.01860  0.65380  0.12260  Biso   1.000  H
  Zn13     1.0000 0.62831  0.57421  0.10213  Biso   1.000  Zn
  Zn14     1.0000 0.67051  0.59886  0.13618  Biso   1.000  Zn
  O85      1.0000 0.70423  0.61889  0.16402  Biso   1.000  O
  H189     1.0000 0.69640  0.63750  0.16900  Biso   1.000  H
  O86      1.0000 0.59448  0.55333  0.07431  Biso   1.000  O
  H190     1.0000 0.60020  0.53310  0.07130  Biso   1.000  H
  O87      1.0000 0.70752  0.58109  0.11529  Biso   1.000  O
  O88      1.0000 0.71797  0.48098  0.02533  Biso   1.000  O
  O89      1.0000 0.67165  0.55811  0.08757  Biso   1.000  O
  O90      1.0000 0.77520  0.46741  0.02494  Biso   1.000  O
  C336     1.0000 0.72703  0.52547  0.06377  Biso   1.000  C
  H191     1.0000 0.70430  0.51980  0.05910  Biso   1.000  H
  C337     1.0000 0.70137  0.56311  0.09640  Biso   1.000  C
  N55      1.0000 0.82891  0.55343  0.08339  Biso   1.000  N
  C338     1.0000 0.75523  0.51057  0.05182  Biso   1.000  C
  C339     1.0000 0.74912  0.48339  0.03203  Biso   1.000  C
  C340     1.0000 0.78902  0.51947  0.05819  Biso   1.000  C
  H192     1.0000 0.80800  0.50980  0.05000  Biso   1.000  H
  C341     1.0000 0.73263  0.54876  0.08264  Biso   1.000  C
  C342     1.0000 0.89175  0.62624  0.12182  Biso   1.000  C
  H193     1.0000 0.86800  0.62970  0.12480  Biso   1.000  H
  N56      1.0000 0.88421  0.55037  0.08400  Biso   1.000  N
  C343     1.0000 0.96396  0.76969  0.23693  Biso   1.000  C
  C344     1.0000 0.76637  0.55804  0.08934  Biso   1.000  C
  H194     1.0000 0.77020  0.57390  0.10190  Biso   1.000  H
  C345     1.0000 0.79420  0.54320  0.07700  Biso   1.000  C
  C346     1.0000 0.98216  0.73089  0.19609  Biso   1.000  C
  C347     1.0000 0.97705  0.66686  0.14380  Biso   1.000  C
  C348     1.0000 0.96795  0.68777  0.16281  Biso   1.000  C
  H195     1.0000 0.94480  0.68770  0.16810  Biso   1.000  H
  C349     1.0000 0.99520  0.75993  0.23351  Biso   1.000  C
  H196     1.0000 0.01210  0.76570  0.24500  Biso   1.000  H
  C350     1.0000 0.84022  0.57961  0.09707  Biso   1.000  C
  H197     1.0000 0.82650  0.59650  0.10470  Biso   1.000  H
  C351     1.0000 0.99202  0.70921  0.17461  Biso   1.000  C
  C352     1.0000 0.90109  0.60095  0.10887  Biso   1.000  C
  C353     1.0000 0.96028  0.61350  0.12064  Biso   1.000  C
  H198     1.0000 0.98390  0.60740  0.12040  Biso   1.000  H
  C354     1.0000 0.95112  0.64343  0.13190  Biso   1.000  C
  C355     1.0000 0.94936  0.74210  0.19952  Biso   1.000  C
  H199     1.0000 0.93210  0.73570  0.18850  Biso   1.000  H
  C356     1.0000 0.87541  0.57712  0.09779  Biso   1.000  C
  C357     1.0000 0.00534  0.74083  0.21312  Biso   1.000  C
  H200     1.0000 0.02880  0.73480  0.21120  Biso   1.000  H
  C358     1.0000 0.94039  0.76290  0.21879  Biso   1.000  C
  H201     1.0000 0.91800  0.77250  0.21960  Biso   1.000  H
  C359     1.0000 0.91696  0.65048  0.13242  Biso   1.000  C
  H202     1.0000 0.90910  0.67110  0.13960  Biso   1.000  H
  C360     1.0000 0.93625  0.59070  0.10917  Biso   1.000  C
  H203     1.0000 0.94350  0.56980  0.10210  Biso   1.000  H
  N57      1.0000 0.85635  0.53532  0.07577  Biso   1.000  N
  C361     1.0000 0.28198  0.62741  0.05513  Biso   1.000  C
  C362     1.0000 0.31518  0.63064  0.06465  Biso   1.000  C
  H204     1.0000 0.33410  0.61970  0.05720  Biso   1.000  H
  C363     1.0000 0.32004  0.65044  0.08561  Biso   1.000  C
  C364     1.0000 0.27558  0.60364  0.03345  Biso   1.000  C
  N58      1.0000 0.22946  0.67975  0.09859  Biso   1.000  N
  C365     1.0000 0.25906  0.66325  0.08649  Biso   1.000  C
  C366     1.0000 0.19674  0.66844  0.09874  Biso   1.000  C
  H205     1.0000 0.18780  0.64890  0.09080  Biso   1.000  H
  C367     1.0000 0.17874  0.69191  0.11313  Biso   1.000  C
  N59      1.0000 0.20308  0.71570  0.12126  Biso   1.000  N
  N60      1.0000 0.95083  0.82052  0.29107  Biso   1.000  N
  C368     1.0000 0.97234  0.80266  0.27727  Biso   1.000  C
  H206     1.0000 0.99620  0.79940  0.28000  Biso   1.000  H
  C369     1.0000 0.95392  0.79009  0.25873  Biso   1.000  C
  N61      1.0000 0.91982  0.82060  0.28106  Biso   1.000  N
  N62      1.0000 0.92097  0.80250  0.26134  Biso   1.000  N
  O91      1.0000 0.30137  0.58819  0.02522  Biso   1.000  O
  O92      1.0000 0.24480  0.60180  0.02554  Biso   1.000  O
  C370     1.0000 0.98873  0.83795  0.32419  Biso   1.000  C
  H207     1.0000 0.00710  0.82610  0.31670  Biso   1.000  H
  C371     1.0000 0.92802  0.85487  0.32451  Biso   1.000  C
  H208     1.0000 0.90600  0.85410  0.31730  Biso   1.000  H
  C372     1.0000 0.95647  0.83845  0.31381  Biso   1.000  C
  C373     1.0000 0.96589  0.87278  0.35688  Biso   1.000  C
  H209     1.0000 0.96930  0.88470  0.37140  Biso   1.000  H
  C374     1.0000 0.93336  0.87246  0.34631  Biso   1.000  C
  C375     1.0000 0.99416  0.85526  0.34599  Biso   1.000  C
  C376     1.0000 0.35593  0.65201  0.09792  Biso   1.000  C
  C377     1.0000 0.02881  0.85356  0.35877  Biso   1.000  C
  C378     1.0000 0.90216  0.88864  0.35879  Biso   1.000  C
  N63      1.0000 0.23370  0.70751  0.11258  Biso   1.000  N
  O93      1.0000 0.03245  0.87225  0.37742  Biso   1.000  O
  O94      1.0000 0.37959  0.63511  0.08690  Biso   1.000  O
  O95      1.0000 0.35781  0.66890  0.11665  Biso   1.000  O
  O96      1.0000 0.90925  0.90480  0.37801  Biso   1.000  O
  O97      1.0000 0.05202  0.83486  0.34938  Biso   1.000  O
  O98      1.0000 0.87357  0.88616  0.34859  Biso   1.000  O
  H210     1.0000 0.13490  0.70310  0.10690  Biso   1.000  H
  C379     1.0000 0.75372  0.14465  0.56578  Biso   1.000  C
  H211     1.0000 0.73150  0.14350  0.55880  Biso   1.000  H
  C380     1.0000 0.79230  0.16745  0.59638  Biso   1.000  C
  H212     1.0000 0.79570  0.18150  0.61000  Biso   1.000  H
  C381     1.0000 0.64293  0.19151  0.62177  Biso   1.000  C
  C382     1.0000 0.62137  0.16281  0.61709  Biso   1.000  C
  H213     1.0000 0.63000  0.14260  0.60980  Biso   1.000  H
  C383     1.0000 0.62997  0.21770  0.63526  Biso   1.000  C
  H214     1.0000 0.64420  0.23630  0.63980  Biso   1.000  H
  C384     1.0000 0.58638  0.16567  0.62379  Biso   1.000  C
  H215     1.0000 0.57100  0.14860  0.61810  Biso   1.000  H
  C385     1.0000 0.59432  0.21680  0.64261  Biso   1.000  C
  H216     1.0000 0.58550  0.23560  0.65140  Biso   1.000  H
  C386     1.0000 0.57339  0.19083  0.63763  Biso   1.000  C
  C387     1.0000 0.53657  0.19039  0.64630  Biso   1.000  C
  C388     1.0000 0.52688  0.21018  0.66661  Biso   1.000  C
  H217     1.0000 0.54340  0.22380  0.67470  Biso   1.000  H
  C389     1.0000 0.51184  0.16802  0.63550  Biso   1.000  C
  H218     1.0000 0.51860  0.15380  0.62260  Biso   1.000  H
  Zn15     1.0000 0.12831  0.07421  0.60213  Biso   1.000  Zn
  Zn16     1.0000 0.17051  0.09886  0.63618  Biso   1.000  Zn
  O99      1.0000 0.20423  0.11889  0.66402  Biso   1.000  O
  H219     1.0000 0.19640  0.13750  0.66900  Biso   1.000  H
  O100     1.0000 0.09448  0.05333  0.57431  Biso   1.000  O
  H220     1.0000 0.10020  0.03310  0.57130  Biso   1.000  H
  O101     1.0000 0.20752  0.08109  0.61529  Biso   1.000  O
  O102     1.0000 0.21797  0.98098  0.52533  Biso   1.000  O
  O103     1.0000 0.17165  0.05811  0.58757  Biso   1.000  O
  O104     1.0000 0.27520  0.96741  0.52494  Biso   1.000  O
  C390     1.0000 0.22703  0.02547  0.56377  Biso   1.000  C
  H221     1.0000 0.20430  0.01980  0.55910  Biso   1.000  H
  C391     1.0000 0.20137  0.06311  0.59640  Biso   1.000  C
  N64      1.0000 0.32891  0.05343  0.58339  Biso   1.000  N
  C392     1.0000 0.25523  0.01057  0.55182  Biso   1.000  C
  C393     1.0000 0.24912  0.98339  0.53203  Biso   1.000  C
  C394     1.0000 0.28902  0.01947  0.55819  Biso   1.000  C
  H222     1.0000 0.30800  0.00980  0.55000  Biso   1.000  H
  C395     1.0000 0.23263  0.04876  0.58264  Biso   1.000  C
  C396     1.0000 0.39175  0.12624  0.62182  Biso   1.000  C
  H223     1.0000 0.36800  0.12970  0.62480  Biso   1.000  H
  N65      1.0000 0.38421  0.05037  0.58400  Biso   1.000  N
  C397     1.0000 0.46396  0.26969  0.73693  Biso   1.000  C
  C398     1.0000 0.26637  0.05804  0.58934  Biso   1.000  C
  H224     1.0000 0.27020  0.07390  0.60190  Biso   1.000  H
  C399     1.0000 0.29420  0.04320  0.57700  Biso   1.000  C
  C400     1.0000 0.48216  0.23089  0.69609  Biso   1.000  C
  C401     1.0000 0.47705  0.16686  0.64380  Biso   1.000  C
  C402     1.0000 0.46795  0.18777  0.66281  Biso   1.000  C
  H225     1.0000 0.44480  0.18770  0.66810  Biso   1.000  H
  C403     1.0000 0.49520  0.25993  0.73351  Biso   1.000  C
  H226     1.0000 0.51210  0.26570  0.74500  Biso   1.000  H
  C404     1.0000 0.34022  0.07961  0.59707  Biso   1.000  C
  H227     1.0000 0.32650  0.09650  0.60470  Biso   1.000  H
  C405     1.0000 0.49202  0.20921  0.67461  Biso   1.000  C
  C406     1.0000 0.40109  0.10095  0.60887  Biso   1.000  C
  C407     1.0000 0.46028  0.11350  0.62064  Biso   1.000  C
  H228     1.0000 0.48390  0.10740  0.62040  Biso   1.000  H
  C408     1.0000 0.45112  0.14343  0.63190  Biso   1.000  C
  C409     1.0000 0.44936  0.24210  0.69952  Biso   1.000  C
  H229     1.0000 0.43210  0.23570  0.68850  Biso   1.000  H
  C410     1.0000 0.37541  0.07712  0.59779  Biso   1.000  C
  C411     1.0000 0.50534  0.24083  0.71312  Biso   1.000  C
  H230     1.0000 0.52880  0.23480  0.71120  Biso   1.000  H
  C412     1.0000 0.44039  0.26290  0.71879  Biso   1.000  C
  H231     1.0000 0.41800  0.27250  0.71960  Biso   1.000  H
  C413     1.0000 0.41696  0.15048  0.63242  Biso   1.000  C
  H232     1.0000 0.40910  0.17110  0.63960  Biso   1.000  H
  C414     1.0000 0.43625  0.09070  0.60917  Biso   1.000  C
  H233     1.0000 0.44350  0.06980  0.60210  Biso   1.000  H
  N66      1.0000 0.35635  0.03532  0.57577  Biso   1.000  N
  C415     1.0000 0.78198  0.12741  0.55513  Biso   1.000  C
  C416     1.0000 0.81518  0.13064  0.56465  Biso   1.000  C
  H234     1.0000 0.83410  0.11970  0.55720  Biso   1.000  H
  C417     1.0000 0.82004  0.15044  0.58561  Biso   1.000  C
  C418     1.0000 0.77558  0.10364  0.53345  Biso   1.000  C
  N67      1.0000 0.72946  0.17975  0.59859  Biso   1.000  N
  C419     1.0000 0.75906  0.16325  0.58649  Biso   1.000  C
  C420     1.0000 0.69674  0.16844  0.59874  Biso   1.000  C
  H235     1.0000 0.68780  0.14890  0.59080  Biso   1.000  H
  C421     1.0000 0.67874  0.19191  0.61313  Biso   1.000  C
  N68      1.0000 0.70308  0.21570  0.62126  Biso   1.000  N
  N69      1.0000 0.45083  0.32052  0.79107  Biso   1.000  N
  C422     1.0000 0.47234  0.30266  0.77727  Biso   1.000  C
  H236     1.0000 0.49620  0.29940  0.78000  Biso   1.000  H
  C423     1.0000 0.45392  0.29009  0.75873  Biso   1.000  C
  N70      1.0000 0.41982  0.32060  0.78106  Biso   1.000  N
  N71      1.0000 0.42097  0.30250  0.76134  Biso   1.000  N
  O105     1.0000 0.80137  0.08819  0.52522  Biso   1.000  O
  O106     1.0000 0.74480  0.10180  0.52554  Biso   1.000  O
  C424     1.0000 0.48873  0.33795  0.82419  Biso   1.000  C
  H237     1.0000 0.50710  0.32610  0.81670  Biso   1.000  H
  C425     1.0000 0.42802  0.35487  0.82451  Biso   1.000  C
  H238     1.0000 0.40600  0.35410  0.81730  Biso   1.000  H
  C426     1.0000 0.45647  0.33845  0.81381  Biso   1.000  C
  C427     1.0000 0.46589  0.37278  0.85688  Biso   1.000  C
  H239     1.0000 0.46930  0.38470  0.87140  Biso   1.000  H
  C428     1.0000 0.43336  0.37246  0.84631  Biso   1.000  C
  C429     1.0000 0.49416  0.35526  0.84599  Biso   1.000  C
  C430     1.0000 0.85593  0.15201  0.59792  Biso   1.000  C
  C431     1.0000 0.52881  0.35356  0.85877  Biso   1.000  C
  C432     1.0000 0.40216  0.38864  0.85879  Biso   1.000  C
  N72      1.0000 0.73370  0.20751  0.61258  Biso   1.000  N
  O107     1.0000 0.53245  0.37225  0.87742  Biso   1.000  O
  O108     1.0000 0.87959  0.13511  0.58690  Biso   1.000  O
  O109     1.0000 0.85781  0.16890  0.61665  Biso   1.000  O
  O110     1.0000 0.40925  0.40480  0.87801  Biso   1.000  O
  O111     1.0000 0.55202  0.33486  0.84938  Biso   1.000  O
  O112     1.0000 0.37357  0.38616  0.84859  Biso   1.000  O
  H240     1.0000 0.63490  0.20310  0.60690  Biso   1.000  H
  C433     1.0000 0.64465  0.74628  0.93422  Biso   1.000  C
  H241     1.0000 0.64350  0.76850  0.94120  Biso   1.000  H
  C434     1.0000 0.66745  0.70770  0.90362  Biso   1.000  C
  H242     1.0000 0.68150  0.70430  0.89000  Biso   1.000  H
  C435     1.0000 0.69151  0.85707  0.87823  Biso   1.000  C
  C436     1.0000 0.66281  0.87863  0.88291  Biso   1.000  C
  H243     1.0000 0.64260  0.87000  0.89020  Biso   1.000  H
  C437     1.0000 0.71770  0.87003  0.86474  Biso   1.000  C
  H244     1.0000 0.73630  0.85580  0.86020  Biso   1.000  H
  C438     1.0000 0.66567  0.91362  0.87621  Biso   1.000  C
  H245     1.0000 0.64860  0.92900  0.88190  Biso   1.000  H
  C439     1.0000 0.71680  0.90568  0.85739  Biso   1.000  C
  H246     1.0000 0.73560  0.91450  0.84860  Biso   1.000  H
  C440     1.0000 0.69083  0.92661  0.86237  Biso   1.000  C
  C441     1.0000 0.69039  0.96343  0.85370  Biso   1.000  C
  C442     1.0000 0.71018  0.97312  0.83339  Biso   1.000  C
  H247     1.0000 0.72380  0.95660  0.82530  Biso   1.000  H
  C443     1.0000 0.66802  0.98816  0.86450  Biso   1.000  C
  H248     1.0000 0.65380  0.98140  0.87740  Biso   1.000  H
  Zn17     1.0000 0.57421  0.37169  0.89787  Biso   1.000  Zn
  Zn18     1.0000 0.59886  0.32949  0.86382  Biso   1.000  Zn
  O113     1.0000 0.61889  0.29577  0.83598  Biso   1.000  O
  H249     1.0000 0.63750  0.30360  0.83100  Biso   1.000  H
  O114     1.0000 0.55333  0.40552  0.92569  Biso   1.000  O
  H250     1.0000 0.53310  0.39980  0.92870  Biso   1.000  H
  O115     1.0000 0.58109  0.29248  0.88471  Biso   1.000  O
  O116     1.0000 0.48098  0.28203  0.97467  Biso   1.000  O
  O117     1.0000 0.55811  0.32835  0.91243  Biso   1.000  O
  O118     1.0000 0.46741  0.22480  0.97506  Biso   1.000  O
  C444     1.0000 0.52547  0.27297  0.93623  Biso   1.000  C
  H251     1.0000 0.51980  0.29570  0.94090  Biso   1.000  H
  C445     1.0000 0.56311  0.29863  0.90360  Biso   1.000  C
  N73      1.0000 0.55343  0.17109  0.91661  Biso   1.000  N
  C446     1.0000 0.51057  0.24477  0.94818  Biso   1.000  C
  C447     1.0000 0.48339  0.25088  0.96797  Biso   1.000  C
  C448     1.0000 0.51947  0.21098  0.94181  Biso   1.000  C
  H252     1.0000 0.50980  0.19200  0.95000  Biso   1.000  H
  C449     1.0000 0.54876  0.26737  0.91736  Biso   1.000  C
  C450     1.0000 0.62624  0.10825  0.87818  Biso   1.000  C
  H253     1.0000 0.62970  0.13200  0.87520  Biso   1.000  H
  N74      1.0000 0.55037  0.11579  0.91600  Biso   1.000  N
  C451     1.0000 0.76969  0.03604  0.76307  Biso   1.000  C
  C452     1.0000 0.55804  0.23363  0.91066  Biso   1.000  C
  H254     1.0000 0.57390  0.22980  0.89810  Biso   1.000  H
  C453     1.0000 0.54320  0.20580  0.92300  Biso   1.000  C
  C454     1.0000 0.73089  0.01784  0.80391  Biso   1.000  C
  C455     1.0000 0.66686  0.02295  0.85620  Biso   1.000  C
  C456     1.0000 0.68777  0.03205  0.83719  Biso   1.000  C
  H255     1.0000 0.68770  0.05520  0.83190  Biso   1.000  H
  C457     1.0000 0.75993  0.00480  0.76649  Biso   1.000  C
  H256     1.0000 0.76570  0.98790  0.75500  Biso   1.000  H
  C458     1.0000 0.57961  0.15978  0.90293  Biso   1.000  C
  H257     1.0000 0.59650  0.17350  0.89530  Biso   1.000  H
  C459     1.0000 0.70921  0.00798  0.82539  Biso   1.000  C
  C460     1.0000 0.60095  0.09891  0.89113  Biso   1.000  C
  C461     1.0000 0.61350  0.03972  0.87936  Biso   1.000  C
  H258     1.0000 0.60740  0.01610  0.87960  Biso   1.000  H
  C462     1.0000 0.64343  0.04888  0.86810  Biso   1.000  C
  C463     1.0000 0.74210  0.05064  0.80048  Biso   1.000  C
  H259     1.0000 0.73570  0.06790  0.81150  Biso   1.000  H
  C464     1.0000 0.57712  0.12459  0.90221  Biso   1.000  C
  C465     1.0000 0.74083  0.99466  0.78688  Biso   1.000  C
  H260     1.0000 0.73480  0.97120  0.78880  Biso   1.000  H
  C466     1.0000 0.76290  0.05961  0.78121  Biso   1.000  C
  H261     1.0000 0.77250  0.08200  0.78040  Biso   1.000  H
  C467     1.0000 0.65048  0.08304  0.86758  Biso   1.000  C
  H262     1.0000 0.67110  0.09090  0.86040  Biso   1.000  H
  C468     1.0000 0.59070  0.06375  0.89083  Biso   1.000  C
  H263     1.0000 0.56980  0.05650  0.89790  Biso   1.000  H
  N75      1.0000 0.53532  0.14365  0.92423  Biso   1.000  N
  C469     1.0000 0.62741  0.71802  0.94487  Biso   1.000  C
  C470     1.0000 0.63064  0.68482  0.93535  Biso   1.000  C
  H264     1.0000 0.61970  0.66590  0.94280  Biso   1.000  H
  C471     1.0000 0.65044  0.67996  0.91439  Biso   1.000  C
  C472     1.0000 0.60364  0.72442  0.96655  Biso   1.000  C
  N76      1.0000 0.67975  0.77054  0.90141  Biso   1.000  N
  C473     1.0000 0.66325  0.74094  0.91351  Biso   1.000  C
  C474     1.0000 0.66844  0.80326  0.90126  Biso   1.000  C
  H265     1.0000 0.64890  0.81220  0.90920  Biso   1.000  H
  C475     1.0000 0.69191  0.82126  0.88687  Biso   1.000  C
  N77      1.0000 0.71570  0.79692  0.87874  Biso   1.000  N
  N78      1.0000 0.82052  0.04917  0.70893  Biso   1.000  N
  C476     1.0000 0.80266  0.02766  0.72273  Biso   1.000  C
  H266     1.0000 0.79940  0.00380  0.72000  Biso   1.000  H
  C477     1.0000 0.79009  0.04608  0.74127  Biso   1.000  C
  N79      1.0000 0.82060  0.08018  0.71894  Biso   1.000  N
  N80      1.0000 0.80250  0.07903  0.73866  Biso   1.000  N
  O119     1.0000 0.58819  0.69863  0.97478  Biso   1.000  O
  O120     1.0000 0.60180  0.75520  0.97446  Biso   1.000  O
  C478     1.0000 0.83795  0.01127  0.67581  Biso   1.000  C
  H267     1.0000 0.82610  0.99290  0.68330  Biso   1.000  H
  C479     1.0000 0.85487  0.07198  0.67549  Biso   1.000  C
  H268     1.0000 0.85410  0.09400  0.68270  Biso   1.000  H
  C480     1.0000 0.83845  0.04353  0.68619  Biso   1.000  C
  C481     1.0000 0.87278  0.03411  0.64312  Biso   1.000  C
  H269     1.0000 0.88470  0.03070  0.62860  Biso   1.000  H
  C482     1.0000 0.87246  0.06664  0.65369  Biso   1.000  C
  C483     1.0000 0.85526  0.00584  0.65401  Biso   1.000  C
  C484     1.0000 0.65201  0.64407  0.90208  Biso   1.000  C
  C485     1.0000 0.85356  0.97119  0.64123  Biso   1.000  C
  C486     1.0000 0.88864  0.09784  0.64121  Biso   1.000  C
  N81      1.0000 0.70751  0.76630  0.88742  Biso   1.000  N
  O121     1.0000 0.87225  0.96755  0.62258  Biso   1.000  O
  O122     1.0000 0.63511  0.62041  0.91310  Biso   1.000  O
  O123     1.0000 0.66890  0.64219  0.88335  Biso   1.000  O
  O124     1.0000 0.90480  0.09075  0.62199  Biso   1.000  O
  O125     1.0000 0.83486  0.94798  0.65062  Biso   1.000  O
  O126     1.0000 0.88616  0.12643  0.65141  Biso   1.000  O
  H270     1.0000 0.70310  0.86510  0.89310  Biso   1.000  H
  C487     1.0000 0.14465  0.24628  0.43422  Biso   1.000  C
  H271     1.0000 0.14350  0.26850  0.44120  Biso   1.000  H
  C488     1.0000 0.16745  0.20770  0.40362  Biso   1.000  C
  H272     1.0000 0.18150  0.20430  0.39000  Biso   1.000  H
  C489     1.0000 0.19151  0.35707  0.37823  Biso   1.000  C
  C490     1.0000 0.16281  0.37863  0.38291  Biso   1.000  C
  H273     1.0000 0.14260  0.37000  0.39020  Biso   1.000  H
  C491     1.0000 0.21770  0.37003  0.36474  Biso   1.000  C
  H274     1.0000 0.23630  0.35580  0.36020  Biso   1.000  H
  C492     1.0000 0.16567  0.41362  0.37621  Biso   1.000  C
  H275     1.0000 0.14860  0.42900  0.38190  Biso   1.000  H
  C493     1.0000 0.21680  0.40568  0.35739  Biso   1.000  C
  H276     1.0000 0.23560  0.41450  0.34860  Biso   1.000  H
  C494     1.0000 0.19083  0.42661  0.36237  Biso   1.000  C
  C495     1.0000 0.19039  0.46343  0.35370  Biso   1.000  C
  C496     1.0000 0.21018  0.47312  0.33339  Biso   1.000  C
  H277     1.0000 0.22380  0.45660  0.32530  Biso   1.000  H
  C497     1.0000 0.16802  0.48816  0.36450  Biso   1.000  C
  H278     1.0000 0.15380  0.48140  0.37740  Biso   1.000  H
  Zn19     1.0000 0.07421  0.87169  0.39787  Biso   1.000  Zn
  Zn20     1.0000 0.09886  0.82949  0.36382  Biso   1.000  Zn
  O127     1.0000 0.11889  0.79577  0.33598  Biso   1.000  O
  H279     1.0000 0.13750  0.80360  0.33100  Biso   1.000  H
  O128     1.0000 0.05333  0.90552  0.42569  Biso   1.000  O
  H280     1.0000 0.03310  0.89980  0.42870  Biso   1.000  H
  O129     1.0000 0.08109  0.79248  0.38471  Biso   1.000  O
  O130     1.0000 0.98098  0.78203  0.47467  Biso   1.000  O
  O131     1.0000 0.05811  0.82835  0.41243  Biso   1.000  O
  O132     1.0000 0.96741  0.72480  0.47506  Biso   1.000  O
  C498     1.0000 0.02547  0.77297  0.43623  Biso   1.000  C
  H281     1.0000 0.01980  0.79570  0.44090  Biso   1.000  H
  C499     1.0000 0.06311  0.79863  0.40360  Biso   1.000  C
  N82      1.0000 0.05343  0.67109  0.41661  Biso   1.000  N
  C500     1.0000 0.01057  0.74477  0.44818  Biso   1.000  C
  C501     1.0000 0.98339  0.75088  0.46797  Biso   1.000  C
  C502     1.0000 0.01947  0.71098  0.44181  Biso   1.000  C
  H282     1.0000 0.00980  0.69200  0.45000  Biso   1.000  H
  C503     1.0000 0.04876  0.76737  0.41736  Biso   1.000  C
  C504     1.0000 0.12624  0.60825  0.37818  Biso   1.000  C
  H283     1.0000 0.12970  0.63200  0.37520  Biso   1.000  H
  N83      1.0000 0.05037  0.61579  0.41600  Biso   1.000  N
  C505     1.0000 0.26969  0.53604  0.26307  Biso   1.000  C
  C506     1.0000 0.05804  0.73363  0.41066  Biso   1.000  C
  H284     1.0000 0.07390  0.72980  0.39810  Biso   1.000  H
  C507     1.0000 0.04320  0.70580  0.42300  Biso   1.000  C
  C508     1.0000 0.23089  0.51784  0.30391  Biso   1.000  C
  C509     1.0000 0.16686  0.52295  0.35620  Biso   1.000  C
  C510     1.0000 0.18777  0.53205  0.33719  Biso   1.000  C
  H285     1.0000 0.18770  0.55520  0.33190  Biso   1.000  H
  C511     1.0000 0.25993  0.50480  0.26649  Biso   1.000  C
  H286     1.0000 0.26570  0.48790  0.25500  Biso   1.000  H
  C512     1.0000 0.07961  0.65978  0.40293  Biso   1.000  C
  H287     1.0000 0.09650  0.67350  0.39530  Biso   1.000  H
  C513     1.0000 0.20921  0.50798  0.32539  Biso   1.000  C
  C514     1.0000 0.10095  0.59891  0.39113  Biso   1.000  C
  C515     1.0000 0.11350  0.53972  0.37936  Biso   1.000  C
  H288     1.0000 0.10740  0.51610  0.37960  Biso   1.000  H
  C516     1.0000 0.14343  0.54888  0.36810  Biso   1.000  C
  C517     1.0000 0.24210  0.55064  0.30048  Biso   1.000  C
  H289     1.0000 0.23570  0.56790  0.31150  Biso   1.000  H
  C518     1.0000 0.07712  0.62459  0.40221  Biso   1.000  C
  C519     1.0000 0.24083  0.49466  0.28688  Biso   1.000  C
  H290     1.0000 0.23480  0.47120  0.28880  Biso   1.000  H
  C520     1.0000 0.26290  0.55961  0.28121  Biso   1.000  C
  H291     1.0000 0.27250  0.58200  0.28040  Biso   1.000  H
  C521     1.0000 0.15048  0.58304  0.36758  Biso   1.000  C
  H292     1.0000 0.17110  0.59090  0.36040  Biso   1.000  H
  C522     1.0000 0.09070  0.56375  0.39083  Biso   1.000  C
  H293     1.0000 0.06980  0.55650  0.39790  Biso   1.000  H
  N84      1.0000 0.03532  0.64365  0.42423  Biso   1.000  N
  C523     1.0000 0.12741  0.21802  0.44487  Biso   1.000  C
  C524     1.0000 0.13064  0.18482  0.43535  Biso   1.000  C
  H294     1.0000 0.11970  0.16590  0.44280  Biso   1.000  H
  C525     1.0000 0.15044  0.17996  0.41439  Biso   1.000  C
  C526     1.0000 0.10364  0.22442  0.46655  Biso   1.000  C
  N85      1.0000 0.17975  0.27054  0.40141  Biso   1.000  N
  C527     1.0000 0.16325  0.24094  0.41351  Biso   1.000  C
  C528     1.0000 0.16844  0.30326  0.40126  Biso   1.000  C
  H295     1.0000 0.14890  0.31220  0.40920  Biso   1.000  H
  C529     1.0000 0.19191  0.32126  0.38687  Biso   1.000  C
  N86      1.0000 0.21570  0.29692  0.37874  Biso   1.000  N
  N87      1.0000 0.32052  0.54917  0.20893  Biso   1.000  N
  C530     1.0000 0.30266  0.52766  0.22273  Biso   1.000  C
  H296     1.0000 0.29940  0.50380  0.22000  Biso   1.000  H
  C531     1.0000 0.29009  0.54608  0.24127  Biso   1.000  C
  N88      1.0000 0.32060  0.58018  0.21894  Biso   1.000  N
  N89      1.0000 0.30250  0.57903  0.23866  Biso   1.000  N
  O133     1.0000 0.08819  0.19863  0.47478  Biso   1.000  O
  O134     1.0000 0.10180  0.25520  0.47446  Biso   1.000  O
  C532     1.0000 0.33795  0.51127  0.17581  Biso   1.000  C
  H297     1.0000 0.32610  0.49290  0.18330  Biso   1.000  H
  C533     1.0000 0.35487  0.57198  0.17549  Biso   1.000  C
  H298     1.0000 0.35410  0.59400  0.18270  Biso   1.000  H
  C534     1.0000 0.33845  0.54353  0.18619  Biso   1.000  C
  C535     1.0000 0.37278  0.53411  0.14312  Biso   1.000  C
  H299     1.0000 0.38470  0.53070  0.12860  Biso   1.000  H
  C536     1.0000 0.37246  0.56664  0.15369  Biso   1.000  C
  C537     1.0000 0.35526  0.50584  0.15401  Biso   1.000  C
  C538     1.0000 0.15201  0.14407  0.40208  Biso   1.000  C
  C539     1.0000 0.35356  0.47119  0.14123  Biso   1.000  C
  C540     1.0000 0.38864  0.59784  0.14121  Biso   1.000  C
  N90      1.0000 0.20751  0.26630  0.38742  Biso   1.000  N
  O135     1.0000 0.37225  0.46755  0.12258  Biso   1.000  O
  O136     1.0000 0.13511  0.12041  0.41310  Biso   1.000  O
  O137     1.0000 0.16890  0.14219  0.38335  Biso   1.000  O
  O138     1.0000 0.40480  0.59075  0.12199  Biso   1.000  O
  O139     1.0000 0.33486  0.44798  0.15062  Biso   1.000  O
  O140     1.0000 0.38616  0.62643  0.15141  Biso   1.000  O
  H300     1.0000 0.20310  0.36510  0.39310  Biso   1.000  H
  C541     1.0000 0.35535  0.25372  0.93422  Biso   1.000  C
  H301     1.0000 0.35650  0.23150  0.94120  Biso   1.000  H
  C542     1.0000 0.33255  0.29230  0.90362  Biso   1.000  C
  H302     1.0000 0.31850  0.29570  0.89000  Biso   1.000  H
  C543     1.0000 0.30849  0.14293  0.87823  Biso   1.000  C
  C544     1.0000 0.33719  0.12137  0.88291  Biso   1.000  C
  H303     1.0000 0.35740  0.13000  0.89020  Biso   1.000  H
  C545     1.0000 0.28230  0.12997  0.86474  Biso   1.000  C
  H304     1.0000 0.26370  0.14420  0.86020  Biso   1.000  H
  C546     1.0000 0.33433  0.08638  0.87621  Biso   1.000  C
  H305     1.0000 0.35140  0.07100  0.88190  Biso   1.000  H
  C547     1.0000 0.28320  0.09432  0.85739  Biso   1.000  C
  H306     1.0000 0.26440  0.08550  0.84860  Biso   1.000  H
  C548     1.0000 0.30917  0.07339  0.86237  Biso   1.000  C
  C549     1.0000 0.30961  0.03657  0.85370  Biso   1.000  C
  C550     1.0000 0.28982  0.02688  0.83339  Biso   1.000  C
  H307     1.0000 0.27620  0.04340  0.82530  Biso   1.000  H
  C551     1.0000 0.33198  0.01184  0.86450  Biso   1.000  C
  H308     1.0000 0.34620  0.01860  0.87740  Biso   1.000  H
  Zn21     1.0000 0.42579  0.62831  0.89787  Biso   1.000  Zn
  Zn22     1.0000 0.40114  0.67051  0.86382  Biso   1.000  Zn
  O141     1.0000 0.38111  0.70423  0.83598  Biso   1.000  O
  H309     1.0000 0.36250  0.69640  0.83100  Biso   1.000  H
  O142     1.0000 0.44667  0.59448  0.92569  Biso   1.000  O
  H310     1.0000 0.46690  0.60020  0.92870  Biso   1.000  H
  O143     1.0000 0.41891  0.70752  0.88471  Biso   1.000  O
  O144     1.0000 0.51902  0.71797  0.97467  Biso   1.000  O
  O145     1.0000 0.44189  0.67165  0.91243  Biso   1.000  O
  O146     1.0000 0.53259  0.77520  0.97506  Biso   1.000  O
  C552     1.0000 0.47453  0.72703  0.93623  Biso   1.000  C
  H311     1.0000 0.48020  0.70430  0.94090  Biso   1.000  H
  C553     1.0000 0.43689  0.70137  0.90360  Biso   1.000  C
  N91      1.0000 0.44657  0.82891  0.91661  Biso   1.000  N
  C554     1.0000 0.48943  0.75523  0.94818  Biso   1.000  C
  C555     1.0000 0.51661  0.74912  0.96797  Biso   1.000  C
  C556     1.0000 0.48053  0.78902  0.94181  Biso   1.000  C
  H312     1.0000 0.49020  0.80800  0.95000  Biso   1.000  H
  C557     1.0000 0.45124  0.73263  0.91736  Biso   1.000  C
  C558     1.0000 0.37376  0.89175  0.87818  Biso   1.000  C
  H313     1.0000 0.37030  0.86800  0.87520  Biso   1.000  H
  N92      1.0000 0.44963  0.88421  0.91600  Biso   1.000  N
  C559     1.0000 0.23031  0.96396  0.76307  Biso   1.000  C
  C560     1.0000 0.44196  0.76637  0.91066  Biso   1.000  C
  H314     1.0000 0.42610  0.77020  0.89810  Biso   1.000  H
  C561     1.0000 0.45680  0.79420  0.92300  Biso   1.000  C
  C562     1.0000 0.26911  0.98216  0.80391  Biso   1.000  C
  C563     1.0000 0.33314  0.97705  0.85620  Biso   1.000  C
  C564     1.0000 0.31223  0.96795  0.83719  Biso   1.000  C
  H315     1.0000 0.31230  0.94480  0.83190  Biso   1.000  H
  C565     1.0000 0.24007  0.99520  0.76649  Biso   1.000  C
  H316     1.0000 0.23430  0.01210  0.75500  Biso   1.000  H
  C566     1.0000 0.42039  0.84022  0.90293  Biso   1.000  C
  H317     1.0000 0.40350  0.82650  0.89530  Biso   1.000  H
  C567     1.0000 0.29079  0.99202  0.82539  Biso   1.000  C
  C568     1.0000 0.39905  0.90109  0.89113  Biso   1.000  C
  C569     1.0000 0.38650  0.96028  0.87936  Biso   1.000  C
  H318     1.0000 0.39260  0.98390  0.87960  Biso   1.000  H
  C570     1.0000 0.35657  0.95112  0.86810  Biso   1.000  C
  C571     1.0000 0.25790  0.94936  0.80048  Biso   1.000  C
  H319     1.0000 0.26430  0.93210  0.81150  Biso   1.000  H
  C572     1.0000 0.42288  0.87541  0.90221  Biso   1.000  C
  C573     1.0000 0.25917  0.00534  0.78688  Biso   1.000  C
  H320     1.0000 0.26520  0.02880  0.78880  Biso   1.000  H
  C574     1.0000 0.23710  0.94039  0.78121  Biso   1.000  C
  H321     1.0000 0.22750  0.91800  0.78040  Biso   1.000  H
  C575     1.0000 0.34952  0.91696  0.86758  Biso   1.000  C
  H322     1.0000 0.32890  0.90910  0.86040  Biso   1.000  H
  C576     1.0000 0.40930  0.93625  0.89083  Biso   1.000  C
  H323     1.0000 0.43020  0.94350  0.89790  Biso   1.000  H
  N93      1.0000 0.46468  0.85635  0.92423  Biso   1.000  N
  C577     1.0000 0.37259  0.28198  0.94487  Biso   1.000  C
  C578     1.0000 0.36936  0.31518  0.93535  Biso   1.000  C
  H324     1.0000 0.38030  0.33410  0.94280  Biso   1.000  H
  C579     1.0000 0.34956  0.32004  0.91439  Biso   1.000  C
  C580     1.0000 0.39636  0.27558  0.96655  Biso   1.000  C
  N94      1.0000 0.32025  0.22946  0.90141  Biso   1.000  N
  C581     1.0000 0.33675  0.25906  0.91351  Biso   1.000  C
  C582     1.0000 0.33156  0.19674  0.90126  Biso   1.000  C
  H325     1.0000 0.35110  0.18780  0.90920  Biso   1.000  H
  C583     1.0000 0.30809  0.17874  0.88687  Biso   1.000  C
  N95      1.0000 0.28430  0.20308  0.87874  Biso   1.000  N
  N96      1.0000 0.17948  0.95083  0.70893  Biso   1.000  N
  C584     1.0000 0.19734  0.97234  0.72273  Biso   1.000  C
  H326     1.0000 0.20060  0.99620  0.72000  Biso   1.000  H
  C585     1.0000 0.20991  0.95392  0.74127  Biso   1.000  C
  N97      1.0000 0.17940  0.91982  0.71894  Biso   1.000  N
  N98      1.0000 0.19750  0.92097  0.73866  Biso   1.000  N
  O147     1.0000 0.41181  0.30137  0.97478  Biso   1.000  O
  O148     1.0000 0.39820  0.24480  0.97446  Biso   1.000  O
  C586     1.0000 0.16205  0.98873  0.67581  Biso   1.000  C
  H327     1.0000 0.17390  0.00710  0.68330  Biso   1.000  H
  C587     1.0000 0.14513  0.92802  0.67549  Biso   1.000  C
  H328     1.0000 0.14590  0.90600  0.68270  Biso   1.000  H
  C588     1.0000 0.16155  0.95647  0.68619  Biso   1.000  C
  C589     1.0000 0.12722  0.96589  0.64312  Biso   1.000  C
  H329     1.0000 0.11530  0.96930  0.62860  Biso   1.000  H
  C590     1.0000 0.12754  0.93336  0.65369  Biso   1.000  C
  C591     1.0000 0.14474  0.99416  0.65401  Biso   1.000  C
  C592     1.0000 0.34799  0.35593  0.90208  Biso   1.000  C
  C593     1.0000 0.14644  0.02881  0.64123  Biso   1.000  C
  C594     1.0000 0.11136  0.90216  0.64121  Biso   1.000  C
  N99      1.0000 0.29249  0.23370  0.88742  Biso   1.000  N
  O149     1.0000 0.12775  0.03245  0.62258  Biso   1.000  O
  O150     1.0000 0.36489  0.37959  0.91310  Biso   1.000  O
  O151     1.0000 0.33110  0.35781  0.88335  Biso   1.000  O
  O152     1.0000 0.09520  0.90925  0.62199  Biso   1.000  O
  O153     1.0000 0.16514  0.05202  0.65062  Biso   1.000  O
  O154     1.0000 0.11384  0.87357  0.65141  Biso   1.000  O
  H330     1.0000 0.29690  0.13490  0.89310  Biso   1.000  H
  C595     1.0000 0.85535  0.75372  0.43422  Biso   1.000  C
  H331     1.0000 0.85650  0.73150  0.44120  Biso   1.000  H
  C596     1.0000 0.83255  0.79230  0.40362  Biso   1.000  C
  H332     1.0000 0.81850  0.79570  0.39000  Biso   1.000  H
  C597     1.0000 0.80849  0.64293  0.37823  Biso   1.000  C
  C598     1.0000 0.83719  0.62137  0.38291  Biso   1.000  C
  H333     1.0000 0.85740  0.63000  0.39020  Biso   1.000  H
  C599     1.0000 0.78230  0.62997  0.36474  Biso   1.000  C
  H334     1.0000 0.76370  0.64420  0.36020  Biso   1.000  H
  C600     1.0000 0.83433  0.58638  0.37621  Biso   1.000  C
  H335     1.0000 0.85140  0.57100  0.38190  Biso   1.000  H
  C601     1.0000 0.78320  0.59432  0.35739  Biso   1.000  C
  H336     1.0000 0.76440  0.58550  0.34860  Biso   1.000  H
  C602     1.0000 0.80917  0.57339  0.36237  Biso   1.000  C
  C603     1.0000 0.80961  0.53657  0.35370  Biso   1.000  C
  C604     1.0000 0.78982  0.52688  0.33339  Biso   1.000  C
  H337     1.0000 0.77620  0.54340  0.32530  Biso   1.000  H
  C605     1.0000 0.83198  0.51184  0.36450  Biso   1.000  C
  H338     1.0000 0.84620  0.51860  0.37740  Biso   1.000  H
  Zn23     1.0000 0.92579  0.12831  0.39787  Biso   1.000  Zn
  Zn24     1.0000 0.90114  0.17051  0.36382  Biso   1.000  Zn
  O155     1.0000 0.88111  0.20423  0.33598  Biso   1.000  O
  H339     1.0000 0.86250  0.19640  0.33100  Biso   1.000  H
  O156     1.0000 0.94667  0.09448  0.42569  Biso   1.000  O
  H340     1.0000 0.96690  0.10020  0.42870  Biso   1.000  H
  O157     1.0000 0.91891  0.20752  0.38471  Biso   1.000  O
  O158     1.0000 0.01902  0.21797  0.47467  Biso   1.000  O
  O159     1.0000 0.94189  0.17165  0.41243  Biso   1.000  O
  O160     1.0000 0.03259  0.27520  0.47506  Biso   1.000  O
  C606     1.0000 0.97453  0.22703  0.43623  Biso   1.000  C
  H341     1.0000 0.98020  0.20430  0.44090  Biso   1.000  H
  C607     1.0000 0.93689  0.20137  0.40360  Biso   1.000  C
  N100     1.0000 0.94657  0.32891  0.41661  Biso   1.000  N
  C608     1.0000 0.98943  0.25523  0.44818  Biso   1.000  C
  C609     1.0000 0.01661  0.24912  0.46797  Biso   1.000  C
  C610     1.0000 0.98053  0.28902  0.44181  Biso   1.000  C
  H342     1.0000 0.99020  0.30800  0.45000  Biso   1.000  H
  C611     1.0000 0.95124  0.23263  0.41736  Biso   1.000  C
  C612     1.0000 0.87376  0.39175  0.37818  Biso   1.000  C
  H343     1.0000 0.87030  0.36800  0.37520  Biso   1.000  H
  N101     1.0000 0.94963  0.38421  0.41600  Biso   1.000  N
  C613     1.0000 0.73031  0.46396  0.26307  Biso   1.000  C
  C614     1.0000 0.94196  0.26637  0.41066  Biso   1.000  C
  H344     1.0000 0.92610  0.27020  0.39810  Biso   1.000  H
  C615     1.0000 0.95680  0.29420  0.42300  Biso   1.000  C
  C616     1.0000 0.76911  0.48216  0.30391  Biso   1.000  C
  C617     1.0000 0.83314  0.47705  0.35620  Biso   1.000  C
  C618     1.0000 0.81223  0.46795  0.33719  Biso   1.000  C
  H345     1.0000 0.81230  0.44480  0.33190  Biso   1.000  H
  C619     1.0000 0.74007  0.49520  0.26649  Biso   1.000  C
  H346     1.0000 0.73430  0.51210  0.25500  Biso   1.000  H
  C620     1.0000 0.92039  0.34022  0.40293  Biso   1.000  C
  H347     1.0000 0.90350  0.32650  0.39530  Biso   1.000  H
  C621     1.0000 0.79079  0.49202  0.32539  Biso   1.000  C
  C622     1.0000 0.89905  0.40109  0.39113  Biso   1.000  C
  C623     1.0000 0.88650  0.46028  0.37936  Biso   1.000  C
  H348     1.0000 0.89260  0.48390  0.37960  Biso   1.000  H
  C624     1.0000 0.85657  0.45112  0.36810  Biso   1.000  C
  C625     1.0000 0.75790  0.44936  0.30048  Biso   1.000  C
  H349     1.0000 0.76430  0.43210  0.31150  Biso   1.000  H
  C626     1.0000 0.92288  0.37541  0.40221  Biso   1.000  C
  C627     1.0000 0.75917  0.50534  0.28688  Biso   1.000  C
  H350     1.0000 0.76520  0.52880  0.28880  Biso   1.000  H
  C628     1.0000 0.73710  0.44039  0.28121  Biso   1.000  C
  H351     1.0000 0.72750  0.41800  0.28040  Biso   1.000  H
  C629     1.0000 0.84952  0.41696  0.36758  Biso   1.000  C
  H352     1.0000 0.82890  0.40910  0.36040  Biso   1.000  H
  C630     1.0000 0.90930  0.43625  0.39083  Biso   1.000  C
  H353     1.0000 0.93020  0.44350  0.39790  Biso   1.000  H
  N102     1.0000 0.96468  0.35635  0.42423  Biso   1.000  N
  C631     1.0000 0.87259  0.78198  0.44487  Biso   1.000  C
  C632     1.0000 0.86936  0.81518  0.43535  Biso   1.000  C
  H354     1.0000 0.88030  0.83410  0.44280  Biso   1.000  H
  C633     1.0000 0.84956  0.82004  0.41439  Biso   1.000  C
  C634     1.0000 0.89636  0.77558  0.46655  Biso   1.000  C
  N103     1.0000 0.82025  0.72946  0.40141  Biso   1.000  N
  C635     1.0000 0.83675  0.75906  0.41351  Biso   1.000  C
  C636     1.0000 0.83156  0.69674  0.40126  Biso   1.000  C
  H355     1.0000 0.85110  0.68780  0.40920  Biso   1.000  H
  C637     1.0000 0.80809  0.67874  0.38687  Biso   1.000  C
  N104     1.0000 0.78430  0.70308  0.37874  Biso   1.000  N
  N105     1.0000 0.67948  0.45083  0.20893  Biso   1.000  N
  C638     1.0000 0.69734  0.47234  0.22273  Biso   1.000  C
  H356     1.0000 0.70060  0.49620  0.22000  Biso   1.000  H
  C639     1.0000 0.70991  0.45392  0.24127  Biso   1.000  C
  N106     1.0000 0.67940  0.41982  0.21894  Biso   1.000  N
  N107     1.0000 0.69750  0.42097  0.23866  Biso   1.000  N
  O161     1.0000 0.91181  0.80137  0.47478  Biso   1.000  O
  O162     1.0000 0.89820  0.74480  0.47446  Biso   1.000  O
  C640     1.0000 0.66205  0.48873  0.17581  Biso   1.000  C
  H357     1.0000 0.67390  0.50710  0.18330  Biso   1.000  H
  C641     1.0000 0.64513  0.42802  0.17549  Biso   1.000  C
  H358     1.0000 0.64590  0.40600  0.18270  Biso   1.000  H
  C642     1.0000 0.66155  0.45647  0.18619  Biso   1.000  C
  C643     1.0000 0.62722  0.46589  0.14312  Biso   1.000  C
  H359     1.0000 0.61530  0.46930  0.12860  Biso   1.000  H
  C644     1.0000 0.62754  0.43336  0.15369  Biso   1.000  C
  C645     1.0000 0.64474  0.49416  0.15401  Biso   1.000  C
  C646     1.0000 0.84799  0.85593  0.40208  Biso   1.000  C
  C647     1.0000 0.64644  0.52881  0.14123  Biso   1.000  C
  C648     1.0000 0.61136  0.40216  0.14121  Biso   1.000  C
  N108     1.0000 0.79249  0.73370  0.38742  Biso   1.000  N
  O163     1.0000 0.62775  0.53245  0.12258  Biso   1.000  O
  O164     1.0000 0.86489  0.87959  0.41310  Biso   1.000  O
  O165     1.0000 0.83110  0.85781  0.38335  Biso   1.000  O
  O166     1.0000 0.59520  0.40925  0.12199  Biso   1.000  O
  O167     1.0000 0.66514  0.55202  0.15062  Biso   1.000  O
  O168     1.0000 0.61384  0.37357  0.15141  Biso   1.000  O
  H360     1.0000 0.79690  0.63490  0.39310  Biso   1.000  H
  C649     1.0000 0.25372  0.64465  0.93422  Biso   1.000  C
  H361     1.0000 0.23150  0.64350  0.94120  Biso   1.000  H
  C650     1.0000 0.29230  0.66745  0.90362  Biso   1.000  C
  H362     1.0000 0.29570  0.68150  0.89000  Biso   1.000  H
  C651     1.0000 0.14293  0.69151  0.87823  Biso   1.000  C
  C652     1.0000 0.12137  0.66281  0.88291  Biso   1.000  C
  H363     1.0000 0.13000  0.64260  0.89020  Biso   1.000  H
  C653     1.0000 0.12997  0.71770  0.86474  Biso   1.000  C
  H364     1.0000 0.14420  0.73630  0.86020  Biso   1.000  H
  C654     1.0000 0.08638  0.66567  0.87621  Biso   1.000  C
  H365     1.0000 0.07100  0.64860  0.88190  Biso   1.000  H
  C655     1.0000 0.09432  0.71680  0.85739  Biso   1.000  C
  H366     1.0000 0.08550  0.73560  0.84860  Biso   1.000  H
  C656     1.0000 0.07339  0.69083  0.86237  Biso   1.000  C
  C657     1.0000 0.03657  0.69039  0.85370  Biso   1.000  C
  C658     1.0000 0.02688  0.71018  0.83339  Biso   1.000  C
  H367     1.0000 0.04340  0.72380  0.82530  Biso   1.000  H
  C659     1.0000 0.01184  0.66802  0.86450  Biso   1.000  C
  H368     1.0000 0.01860  0.65380  0.87740  Biso   1.000  H
  Zn25     1.0000 0.62831  0.57421  0.89787  Biso   1.000  Zn
  Zn26     1.0000 0.67051  0.59886  0.86382  Biso   1.000  Zn
  O169     1.0000 0.70423  0.61889  0.83598  Biso   1.000  O
  H369     1.0000 0.69640  0.63750  0.83100  Biso   1.000  H
  O170     1.0000 0.59448  0.55333  0.92569  Biso   1.000  O
  H370     1.0000 0.60020  0.53310  0.92870  Biso   1.000  H
  O171     1.0000 0.70752  0.58109  0.88471  Biso   1.000  O
  O172     1.0000 0.71797  0.48098  0.97467  Biso   1.000  O
  O173     1.0000 0.67165  0.55811  0.91243  Biso   1.000  O
  O174     1.0000 0.77520  0.46741  0.97506  Biso   1.000  O
  C660     1.0000 0.72703  0.52547  0.93623  Biso   1.000  C
  H371     1.0000 0.70430  0.51980  0.94090  Biso   1.000  H
  C661     1.0000 0.70137  0.56311  0.90360  Biso   1.000  C
  N109     1.0000 0.82891  0.55343  0.91661  Biso   1.000  N
  C662     1.0000 0.75523  0.51057  0.94818  Biso   1.000  C
  C663     1.0000 0.74912  0.48339  0.96797  Biso   1.000  C
  C664     1.0000 0.78902  0.51947  0.94181  Biso   1.000  C
  H372     1.0000 0.80800  0.50980  0.95000  Biso   1.000  H
  C665     1.0000 0.73263  0.54876  0.91736  Biso   1.000  C
  C666     1.0000 0.89175  0.62624  0.87818  Biso   1.000  C
  H373     1.0000 0.86800  0.62970  0.87520  Biso   1.000  H
  N110     1.0000 0.88421  0.55037  0.91600  Biso   1.000  N
  C667     1.0000 0.96396  0.76969  0.76307  Biso   1.000  C
  C668     1.0000 0.76637  0.55804  0.91066  Biso   1.000  C
  H374     1.0000 0.77020  0.57390  0.89810  Biso   1.000  H
  C669     1.0000 0.79420  0.54320  0.92300  Biso   1.000  C
  C670     1.0000 0.98216  0.73089  0.80391  Biso   1.000  C
  C671     1.0000 0.97705  0.66686  0.85620  Biso   1.000  C
  C672     1.0000 0.96795  0.68777  0.83719  Biso   1.000  C
  H375     1.0000 0.94480  0.68770  0.83190  Biso   1.000  H
  C673     1.0000 0.99520  0.75993  0.76649  Biso   1.000  C
  H376     1.0000 0.01210  0.76570  0.75500  Biso   1.000  H
  C674     1.0000 0.84022  0.57961  0.90293  Biso   1.000  C
  H377     1.0000 0.82650  0.59650  0.89530  Biso   1.000  H
  C675     1.0000 0.99202  0.70921  0.82539  Biso   1.000  C
  C676     1.0000 0.90109  0.60095  0.89113  Biso   1.000  C
  C677     1.0000 0.96028  0.61350  0.87936  Biso   1.000  C
  H378     1.0000 0.98390  0.60740  0.87960  Biso   1.000  H
  C678     1.0000 0.95112  0.64343  0.86810  Biso   1.000  C
  C679     1.0000 0.94936  0.74210  0.80048  Biso   1.000  C
  H379     1.0000 0.93210  0.73570  0.81150  Biso   1.000  H
  C680     1.0000 0.87541  0.57712  0.90221  Biso   1.000  C
  C681     1.0000 0.00534  0.74083  0.78688  Biso   1.000  C
  H380     1.0000 0.02880  0.73480  0.78880  Biso   1.000  H
  C682     1.0000 0.94039  0.76290  0.78121  Biso   1.000  C
  H381     1.0000 0.91800  0.77250  0.78040  Biso   1.000  H
  C683     1.0000 0.91696  0.65048  0.86758  Biso   1.000  C
  H382     1.0000 0.90910  0.67110  0.86040  Biso   1.000  H
  C684     1.0000 0.93625  0.59070  0.89083  Biso   1.000  C
  H383     1.0000 0.94350  0.56980  0.89790  Biso   1.000  H
  N111     1.0000 0.85635  0.53532  0.92423  Biso   1.000  N
  C685     1.0000 0.28198  0.62741  0.94487  Biso   1.000  C
  C686     1.0000 0.31518  0.63064  0.93535  Biso   1.000  C
  H384     1.0000 0.33410  0.61970  0.94280  Biso   1.000  H
  C687     1.0000 0.32004  0.65044  0.91439  Biso   1.000  C
  C688     1.0000 0.27558  0.60364  0.96655  Biso   1.000  C
  N112     1.0000 0.22946  0.67975  0.90141  Biso   1.000  N
  C689     1.0000 0.25906  0.66325  0.91351  Biso   1.000  C
  C690     1.0000 0.19674  0.66844  0.90126  Biso   1.000  C
  H385     1.0000 0.18780  0.64890  0.90920  Biso   1.000  H
  C691     1.0000 0.17874  0.69191  0.88687  Biso   1.000  C
  N113     1.0000 0.20308  0.71570  0.87874  Biso   1.000  N
  N114     1.0000 0.95083  0.82052  0.70893  Biso   1.000  N
  C692     1.0000 0.97234  0.80266  0.72273  Biso   1.000  C
  H386     1.0000 0.99620  0.79940  0.72000  Biso   1.000  H
  C693     1.0000 0.95392  0.79009  0.74127  Biso   1.000  C
  N115     1.0000 0.91982  0.82060  0.71894  Biso   1.000  N
  N116     1.0000 0.92097  0.80250  0.73866  Biso   1.000  N
  O175     1.0000 0.30137  0.58819  0.97478  Biso   1.000  O
  O176     1.0000 0.24480  0.60180  0.97446  Biso   1.000  O
  C694     1.0000 0.98873  0.83795  0.67581  Biso   1.000  C
  H387     1.0000 0.00710  0.82610  0.68330  Biso   1.000  H
  C695     1.0000 0.92802  0.85487  0.67549  Biso   1.000  C
  H388     1.0000 0.90600  0.85410  0.68270  Biso   1.000  H
  C696     1.0000 0.95647  0.83845  0.68619  Biso   1.000  C
  C697     1.0000 0.96589  0.87278  0.64312  Biso   1.000  C
  H389     1.0000 0.96930  0.88470  0.62860  Biso   1.000  H
  C698     1.0000 0.93336  0.87246  0.65369  Biso   1.000  C
  C699     1.0000 0.99416  0.85526  0.65401  Biso   1.000  C
  C700     1.0000 0.35593  0.65201  0.90208  Biso   1.000  C
  C701     1.0000 0.02881  0.85356  0.64123  Biso   1.000  C
  C702     1.0000 0.90216  0.88864  0.64121  Biso   1.000  C
  N117     1.0000 0.23370  0.70751  0.88742  Biso   1.000  N
  O177     1.0000 0.03245  0.87225  0.62258  Biso   1.000  O
  O178     1.0000 0.37959  0.63511  0.91310  Biso   1.000  O
  O179     1.0000 0.35781  0.66890  0.88335  Biso   1.000  O
  O180     1.0000 0.90925  0.90480  0.62199  Biso   1.000  O
  O181     1.0000 0.05202  0.83486  0.65062  Biso   1.000  O
  O182     1.0000 0.87357  0.88616  0.65141  Biso   1.000  O
  H390     1.0000 0.13490  0.70310  0.89310  Biso   1.000  H
  C703     1.0000 0.75372  0.14465  0.43422  Biso   1.000  C
  H391     1.0000 0.73150  0.14350  0.44120  Biso   1.000  H
  C704     1.0000 0.79230  0.16745  0.40362  Biso   1.000  C
  H392     1.0000 0.79570  0.18150  0.39000  Biso   1.000  H
  C705     1.0000 0.64293  0.19151  0.37823  Biso   1.000  C
  C706     1.0000 0.62137  0.16281  0.38291  Biso   1.000  C
  H393     1.0000 0.63000  0.14260  0.39020  Biso   1.000  H
  C707     1.0000 0.62997  0.21770  0.36474  Biso   1.000  C
  H394     1.0000 0.64420  0.23630  0.36020  Biso   1.000  H
  C708     1.0000 0.58638  0.16567  0.37621  Biso   1.000  C
  H395     1.0000 0.57100  0.14860  0.38190  Biso   1.000  H
  C709     1.0000 0.59432  0.21680  0.35739  Biso   1.000  C
  H396     1.0000 0.58550  0.23560  0.34860  Biso   1.000  H
  C710     1.0000 0.57339  0.19083  0.36237  Biso   1.000  C
  C711     1.0000 0.53657  0.19039  0.35370  Biso   1.000  C
  C712     1.0000 0.52688  0.21018  0.33339  Biso   1.000  C
  H397     1.0000 0.54340  0.22380  0.32530  Biso   1.000  H
  C713     1.0000 0.51184  0.16802  0.36450  Biso   1.000  C
  H398     1.0000 0.51860  0.15380  0.37740  Biso   1.000  H
  Zn27     1.0000 0.12831  0.07421  0.39787  Biso   1.000  Zn
  Zn28     1.0000 0.17051  0.09886  0.36382  Biso   1.000  Zn
  O183     1.0000 0.20423  0.11889  0.33598  Biso   1.000  O
  H399     1.0000 0.19640  0.13750  0.33100  Biso   1.000  H
  O184     1.0000 0.09448  0.05333  0.42569  Biso   1.000  O
  H400     1.0000 0.10020  0.03310  0.42870  Biso   1.000  H
  O185     1.0000 0.20752  0.08109  0.38471  Biso   1.000  O
  O186     1.0000 0.21797  0.98098  0.47467  Biso   1.000  O
  O187     1.0000 0.17165  0.05811  0.41243  Biso   1.000  O
  O188     1.0000 0.27520  0.96741  0.47506  Biso   1.000  O
  C714     1.0000 0.22703  0.02547  0.43623  Biso   1.000  C
  H401     1.0000 0.20430  0.01980  0.44090  Biso   1.000  H
  C715     1.0000 0.20137  0.06311  0.40360  Biso   1.000  C
  N118     1.0000 0.32891  0.05343  0.41661  Biso   1.000  N
  C716     1.0000 0.25523  0.01057  0.44818  Biso   1.000  C
  C717     1.0000 0.24912  0.98339  0.46797  Biso   1.000  C
  C718     1.0000 0.28902  0.01947  0.44181  Biso   1.000  C
  H402     1.0000 0.30800  0.00980  0.45000  Biso   1.000  H
  C719     1.0000 0.23263  0.04876  0.41736  Biso   1.000  C
  C720     1.0000 0.39175  0.12624  0.37818  Biso   1.000  C
  H403     1.0000 0.36800  0.12970  0.37520  Biso   1.000  H
  N119     1.0000 0.38421  0.05037  0.41600  Biso   1.000  N
  C721     1.0000 0.46396  0.26969  0.26307  Biso   1.000  C
  C722     1.0000 0.26637  0.05804  0.41066  Biso   1.000  C
  H404     1.0000 0.27020  0.07390  0.39810  Biso   1.000  H
  C723     1.0000 0.29420  0.04320  0.42300  Biso   1.000  C
  C724     1.0000 0.48216  0.23089  0.30391  Biso   1.000  C
  C725     1.0000 0.47705  0.16686  0.35620  Biso   1.000  C
  C726     1.0000 0.46795  0.18777  0.33719  Biso   1.000  C
  H405     1.0000 0.44480  0.18770  0.33190  Biso   1.000  H
  C727     1.0000 0.49520  0.25993  0.26649  Biso   1.000  C
  H406     1.0000 0.51210  0.26570  0.25500  Biso   1.000  H
  C728     1.0000 0.34022  0.07961  0.40293  Biso   1.000  C
  H407     1.0000 0.32650  0.09650  0.39530  Biso   1.000  H
  C729     1.0000 0.49202  0.20921  0.32539  Biso   1.000  C
  C730     1.0000 0.40109  0.10095  0.39113  Biso   1.000  C
  C731     1.0000 0.46028  0.11350  0.37936  Biso   1.000  C
  H408     1.0000 0.48390  0.10740  0.37960  Biso   1.000  H
  C732     1.0000 0.45112  0.14343  0.36810  Biso   1.000  C
  C733     1.0000 0.44936  0.24210  0.30048  Biso   1.000  C
  H409     1.0000 0.43210  0.23570  0.31150  Biso   1.000  H
  C734     1.0000 0.37541  0.07712  0.40221  Biso   1.000  C
  C735     1.0000 0.50534  0.24083  0.28688  Biso   1.000  C
  H410     1.0000 0.52880  0.23480  0.28880  Biso   1.000  H
  C736     1.0000 0.44039  0.26290  0.28121  Biso   1.000  C
  H411     1.0000 0.41800  0.27250  0.28040  Biso   1.000  H
  C737     1.0000 0.41696  0.15048  0.36758  Biso   1.000  C
  H412     1.0000 0.40910  0.17110  0.36040  Biso   1.000  H
  C738     1.0000 0.43625  0.09070  0.39083  Biso   1.000  C
  H413     1.0000 0.44350  0.06980  0.39790  Biso   1.000  H
  N120     1.0000 0.35635  0.03532  0.42423  Biso   1.000  N
  C739     1.0000 0.78198  0.12741  0.44487  Biso   1.000  C
  C740     1.0000 0.81518  0.13064  0.43535  Biso   1.000  C
  H414     1.0000 0.83410  0.11970  0.44280  Biso   1.000  H
  C741     1.0000 0.82004  0.15044  0.41439  Biso   1.000  C
  C742     1.0000 0.77558  0.10364  0.46655  Biso   1.000  C
  N121     1.0000 0.72946  0.17975  0.40141  Biso   1.000  N
  C743     1.0000 0.75906  0.16325  0.41351  Biso   1.000  C
  C744     1.0000 0.69674  0.16844  0.40126  Biso   1.000  C
  H415     1.0000 0.68780  0.14890  0.40920  Biso   1.000  H
  C745     1.0000 0.67874  0.19191  0.38687  Biso   1.000  C
  N122     1.0000 0.70308  0.21570  0.37874  Biso   1.000  N
  N123     1.0000 0.45083  0.32052  0.20893  Biso   1.000  N
  C746     1.0000 0.47234  0.30266  0.22273  Biso   1.000  C
  H416     1.0000 0.49620  0.29940  0.22000  Biso   1.000  H
  C747     1.0000 0.45392  0.29009  0.24127  Biso   1.000  C
  N124     1.0000 0.41982  0.32060  0.21894  Biso   1.000  N
  N125     1.0000 0.42097  0.30250  0.23866  Biso   1.000  N
  O189     1.0000 0.80137  0.08819  0.47478  Biso   1.000  O
  O190     1.0000 0.74480  0.10180  0.47446  Biso   1.000  O
  C748     1.0000 0.48873  0.33795  0.17581  Biso   1.000  C
  H417     1.0000 0.50710  0.32610  0.18330  Biso   1.000  H
  C749     1.0000 0.42802  0.35487  0.17549  Biso   1.000  C
  H418     1.0000 0.40600  0.35410  0.18270  Biso   1.000  H
  C750     1.0000 0.45647  0.33845  0.18619  Biso   1.000  C
  C751     1.0000 0.46589  0.37278  0.14312  Biso   1.000  C
  H419     1.0000 0.46930  0.38470  0.12860  Biso   1.000  H
  C752     1.0000 0.43336  0.37246  0.15369  Biso   1.000  C
  C753     1.0000 0.49416  0.35526  0.15401  Biso   1.000  C
  C754     1.0000 0.85593  0.15201  0.40208  Biso   1.000  C
  C755     1.0000 0.52881  0.35356  0.14123  Biso   1.000  C
  C756     1.0000 0.40216  0.38864  0.14121  Biso   1.000  C
  N126     1.0000 0.73370  0.20751  0.38742  Biso   1.000  N
  O191     1.0000 0.53245  0.37225  0.12258  Biso   1.000  O
  O192     1.0000 0.87959  0.13511  0.41310  Biso   1.000  O
  O193     1.0000 0.85781  0.16890  0.38335  Biso   1.000  O
  O194     1.0000 0.40925  0.40480  0.12199  Biso   1.000  O
  O195     1.0000 0.55202  0.33486  0.15062  Biso   1.000  O
  O196     1.0000 0.37357  0.38616  0.15141  Biso   1.000  O
  H420     1.0000 0.63490  0.20310  0.39310  Biso   1.000  H
  C757     1.0000 0.74628  0.35535  0.93422  Biso   1.000  C
  H421     1.0000 0.76850  0.35650  0.94120  Biso   1.000  H
  C758     1.0000 0.70770  0.33255  0.90362  Biso   1.000  C
  H422     1.0000 0.70430  0.31850  0.89000  Biso   1.000  H
  C759     1.0000 0.85707  0.30849  0.87823  Biso   1.000  C
  C760     1.0000 0.87863  0.33719  0.88291  Biso   1.000  C
  H423     1.0000 0.87000  0.35740  0.89020  Biso   1.000  H
  C761     1.0000 0.87003  0.28230  0.86474  Biso   1.000  C
  H424     1.0000 0.85580  0.26370  0.86020  Biso   1.000  H
  C762     1.0000 0.91362  0.33433  0.87621  Biso   1.000  C
  H425     1.0000 0.92900  0.35140  0.88190  Biso   1.000  H
  C763     1.0000 0.90568  0.28320  0.85739  Biso   1.000  C
  H426     1.0000 0.91450  0.26440  0.84860  Biso   1.000  H
  C764     1.0000 0.92661  0.30917  0.86237  Biso   1.000  C
  C765     1.0000 0.96343  0.30961  0.85370  Biso   1.000  C
  C766     1.0000 0.97312  0.28982  0.83339  Biso   1.000  C
  H427     1.0000 0.95660  0.27620  0.82530  Biso   1.000  H
  C767     1.0000 0.98816  0.33198  0.86450  Biso   1.000  C
  H428     1.0000 0.98140  0.34620  0.87740  Biso   1.000  H
  Zn29     1.0000 0.37169  0.42579  0.89787  Biso   1.000  Zn
  Zn30     1.0000 0.32949  0.40114  0.86382  Biso   1.000  Zn
  O197     1.0000 0.29577  0.38111  0.83598  Biso   1.000  O
  H429     1.0000 0.30360  0.36250  0.83100  Biso   1.000  H
  O198     1.0000 0.40552  0.44667  0.92569  Biso   1.000  O
  H430     1.0000 0.39980  0.46690  0.92870  Biso   1.000  H
  O199     1.0000 0.29248  0.41891  0.88471  Biso   1.000  O
  O200     1.0000 0.28203  0.51902  0.97467  Biso   1.000  O
  O201     1.0000 0.32835  0.44189  0.91243  Biso   1.000  O
  O202     1.0000 0.22480  0.53259  0.97506  Biso   1.000  O
  C768     1.0000 0.27297  0.47453  0.93623  Biso   1.000  C
  H431     1.0000 0.29570  0.48020  0.94090  Biso   1.000  H
  C769     1.0000 0.29863  0.43689  0.90360  Biso   1.000  C
  N127     1.0000 0.17109  0.44657  0.91661  Biso   1.000  N
  C770     1.0000 0.24477  0.48943  0.94818  Biso   1.000  C
  C771     1.0000 0.25088  0.51661  0.96797  Biso   1.000  C
  C772     1.0000 0.21098  0.48053  0.94181  Biso   1.000  C
  H432     1.0000 0.19200  0.49020  0.95000  Biso   1.000  H
  C773     1.0000 0.26737  0.45124  0.91736  Biso   1.000  C
  C774     1.0000 0.10825  0.37376  0.87818  Biso   1.000  C
  H433     1.0000 0.13200  0.37030  0.87520  Biso   1.000  H
  N128     1.0000 0.11579  0.44963  0.91600  Biso   1.000  N
  C775     1.0000 0.03604  0.23031  0.76307  Biso   1.000  C
  C776     1.0000 0.23363  0.44196  0.91066  Biso   1.000  C
  H434     1.0000 0.22980  0.42610  0.89810  Biso   1.000  H
  C777     1.0000 0.20580  0.45680  0.92300  Biso   1.000  C
  C778     1.0000 0.01784  0.26911  0.80391  Biso   1.000  C
  C779     1.0000 0.02295  0.33314  0.85620  Biso   1.000  C
  C780     1.0000 0.03205  0.31223  0.83719  Biso   1.000  C
  H435     1.0000 0.05520  0.31230  0.83190  Biso   1.000  H
  C781     1.0000 0.00480  0.24007  0.76649  Biso   1.000  C
  H436     1.0000 0.98790  0.23430  0.75500  Biso   1.000  H
  C782     1.0000 0.15978  0.42039  0.90293  Biso   1.000  C
  H437     1.0000 0.17350  0.40350  0.89530  Biso   1.000  H
  C783     1.0000 0.00798  0.29079  0.82539  Biso   1.000  C
  C784     1.0000 0.09891  0.39905  0.89113  Biso   1.000  C
  C785     1.0000 0.03972  0.38650  0.87936  Biso   1.000  C
  H438     1.0000 0.01610  0.39260  0.87960  Biso   1.000  H
  C786     1.0000 0.04888  0.35657  0.86810  Biso   1.000  C
  C787     1.0000 0.05064  0.25790  0.80048  Biso   1.000  C
  H439     1.0000 0.06790  0.26430  0.81150  Biso   1.000  H
  C788     1.0000 0.12459  0.42288  0.90221  Biso   1.000  C
  C789     1.0000 0.99466  0.25917  0.78688  Biso   1.000  C
  H440     1.0000 0.97120  0.26520  0.78880  Biso   1.000  H
  C790     1.0000 0.05961  0.23710  0.78121  Biso   1.000  C
  H441     1.0000 0.08200  0.22750  0.78040  Biso   1.000  H
  C791     1.0000 0.08304  0.34952  0.86758  Biso   1.000  C
  H442     1.0000 0.09090  0.32890  0.86040  Biso   1.000  H
  C792     1.0000 0.06375  0.40930  0.89083  Biso   1.000  C
  H443     1.0000 0.05650  0.43020  0.89790  Biso   1.000  H
  N129     1.0000 0.14365  0.46468  0.92423  Biso   1.000  N
  C793     1.0000 0.71802  0.37259  0.94487  Biso   1.000  C
  C794     1.0000 0.68482  0.36936  0.93535  Biso   1.000  C
  H444     1.0000 0.66590  0.38030  0.94280  Biso   1.000  H
  C795     1.0000 0.67996  0.34956  0.91439  Biso   1.000  C
  C796     1.0000 0.72442  0.39636  0.96655  Biso   1.000  C
  N130     1.0000 0.77054  0.32025  0.90141  Biso   1.000  N
  C797     1.0000 0.74094  0.33675  0.91351  Biso   1.000  C
  C798     1.0000 0.80326  0.33156  0.90126  Biso   1.000  C
  H445     1.0000 0.81220  0.35110  0.90920  Biso   1.000  H
  C799     1.0000 0.82126  0.30809  0.88687  Biso   1.000  C
  N131     1.0000 0.79692  0.28430  0.87874  Biso   1.000  N
  N132     1.0000 0.04917  0.17948  0.70893  Biso   1.000  N
  C800     1.0000 0.02766  0.19734  0.72273  Biso   1.000  C
  H446     1.0000 0.00380  0.20060  0.72000  Biso   1.000  H
  C801     1.0000 0.04608  0.20991  0.74127  Biso   1.000  C
  N133     1.0000 0.08018  0.17940  0.71894  Biso   1.000  N
  N134     1.0000 0.07903  0.19750  0.73866  Biso   1.000  N
  O203     1.0000 0.69863  0.41181  0.97478  Biso   1.000  O
  O204     1.0000 0.75520  0.39820  0.97446  Biso   1.000  O
  C802     1.0000 0.01127  0.16205  0.67581  Biso   1.000  C
  H447     1.0000 0.99290  0.17390  0.68330  Biso   1.000  H
  C803     1.0000 0.07198  0.14513  0.67549  Biso   1.000  C
  H448     1.0000 0.09400  0.14590  0.68270  Biso   1.000  H
  C804     1.0000 0.04353  0.16155  0.68619  Biso   1.000  C
  C805     1.0000 0.03411  0.12722  0.64312  Biso   1.000  C
  H449     1.0000 0.03070  0.11530  0.62860  Biso   1.000  H
  C806     1.0000 0.06664  0.12754  0.65369  Biso   1.000  C
  C807     1.0000 0.00584  0.14474  0.65401  Biso   1.000  C
  C808     1.0000 0.64407  0.34799  0.90208  Biso   1.000  C
  C809     1.0000 0.97119  0.14644  0.64123  Biso   1.000  C
  C810     1.0000 0.09784  0.11136  0.64121  Biso   1.000  C
  N135     1.0000 0.76630  0.29249  0.88742  Biso   1.000  N
  O205     1.0000 0.96755  0.12775  0.62258  Biso   1.000  O
  O206     1.0000 0.62041  0.36489  0.91310  Biso   1.000  O
  O207     1.0000 0.64219  0.33110  0.88335  Biso   1.000  O
  O208     1.0000 0.09075  0.09520  0.62199  Biso   1.000  O
  O209     1.0000 0.94798  0.16514  0.65062  Biso   1.000  O
  O210     1.0000 0.12643  0.11384  0.65141  Biso   1.000  O
  H450     1.0000 0.86510  0.29690  0.89310  Biso   1.000  H
  C811     1.0000 0.24628  0.85535  0.43422  Biso   1.000  C
  H451     1.0000 0.26850  0.85650  0.44120  Biso   1.000  H
  C812     1.0000 0.20770  0.83255  0.40362  Biso   1.000  C
  H452     1.0000 0.20430  0.81850  0.39000  Biso   1.000  H
  C813     1.0000 0.35707  0.80849  0.37823  Biso   1.000  C
  C814     1.0000 0.37863  0.83719  0.38291  Biso   1.000  C
  H453     1.0000 0.37000  0.85740  0.39020  Biso   1.000  H
  C815     1.0000 0.37003  0.78230  0.36474  Biso   1.000  C
  H454     1.0000 0.35580  0.76370  0.36020  Biso   1.000  H
  C816     1.0000 0.41362  0.83433  0.37621  Biso   1.000  C
  H455     1.0000 0.42900  0.85140  0.38190  Biso   1.000  H
  C817     1.0000 0.40568  0.78320  0.35739  Biso   1.000  C
  H456     1.0000 0.41450  0.76440  0.34860  Biso   1.000  H
  C818     1.0000 0.42661  0.80917  0.36237  Biso   1.000  C
  C819     1.0000 0.46343  0.80961  0.35370  Biso   1.000  C
  C820     1.0000 0.47312  0.78982  0.33339  Biso   1.000  C
  H457     1.0000 0.45660  0.77620  0.32530  Biso   1.000  H
  C821     1.0000 0.48816  0.83198  0.36450  Biso   1.000  C
  H458     1.0000 0.48140  0.84620  0.37740  Biso   1.000  H
  Zn31     1.0000 0.87169  0.92579  0.39787  Biso   1.000  Zn
  Zn32     1.0000 0.82949  0.90114  0.36382  Biso   1.000  Zn
  O211     1.0000 0.79577  0.88111  0.33598  Biso   1.000  O
  H459     1.0000 0.80360  0.86250  0.33100  Biso   1.000  H
  O212     1.0000 0.90552  0.94667  0.42569  Biso   1.000  O
  H460     1.0000 0.89980  0.96690  0.42870  Biso   1.000  H
  O213     1.0000 0.79248  0.91891  0.38471  Biso   1.000  O
  O214     1.0000 0.78203  0.01902  0.47467  Biso   1.000  O
  O215     1.0000 0.82835  0.94189  0.41243  Biso   1.000  O
  O216     1.0000 0.72480  0.03259  0.47506  Biso   1.000  O
  C822     1.0000 0.77297  0.97453  0.43623  Biso   1.000  C
  H461     1.0000 0.79570  0.98020  0.44090  Biso   1.000  H
  C823     1.0000 0.79863  0.93689  0.40360  Biso   1.000  C
  N136     1.0000 0.67109  0.94657  0.41661  Biso   1.000  N
  C824     1.0000 0.74477  0.98943  0.44818  Biso   1.000  C
  C825     1.0000 0.75088  0.01661  0.46797  Biso   1.000  C
  C826     1.0000 0.71098  0.98053  0.44181  Biso   1.000  C
  H462     1.0000 0.69200  0.99020  0.45000  Biso   1.000  H
  C827     1.0000 0.76737  0.95124  0.41736  Biso   1.000  C
  C828     1.0000 0.60825  0.87376  0.37818  Biso   1.000  C
  H463     1.0000 0.63200  0.87030  0.37520  Biso   1.000  H
  N137     1.0000 0.61579  0.94963  0.41600  Biso   1.000  N
  C829     1.0000 0.53604  0.73031  0.26307  Biso   1.000  C
  C830     1.0000 0.73363  0.94196  0.41066  Biso   1.000  C
  H464     1.0000 0.72980  0.92610  0.39810  Biso   1.000  H
  C831     1.0000 0.70580  0.95680  0.42300  Biso   1.000  C
  C832     1.0000 0.51784  0.76911  0.30391  Biso   1.000  C
  C833     1.0000 0.52295  0.83314  0.35620  Biso   1.000  C
  C834     1.0000 0.53205  0.81223  0.33719  Biso   1.000  C
  H465     1.0000 0.55520  0.81230  0.33190  Biso   1.000  H
  C835     1.0000 0.50480  0.74007  0.26649  Biso   1.000  C
  H466     1.0000 0.48790  0.73430  0.25500  Biso   1.000  H
  C836     1.0000 0.65978  0.92039  0.40293  Biso   1.000  C
  H467     1.0000 0.67350  0.90350  0.39530  Biso   1.000  H
  C837     1.0000 0.50798  0.79079  0.32539  Biso   1.000  C
  C838     1.0000 0.59891  0.89905  0.39113  Biso   1.000  C
  C839     1.0000 0.53972  0.88650  0.37936  Biso   1.000  C
  H468     1.0000 0.51610  0.89260  0.37960  Biso   1.000  H
  C840     1.0000 0.54888  0.85657  0.36810  Biso   1.000  C
  C841     1.0000 0.55064  0.75790  0.30048  Biso   1.000  C
  H469     1.0000 0.56790  0.76430  0.31150  Biso   1.000  H
  C842     1.0000 0.62459  0.92288  0.40221  Biso   1.000  C
  C843     1.0000 0.49466  0.75917  0.28688  Biso   1.000  C
  H470     1.0000 0.47120  0.76520  0.28880  Biso   1.000  H
  C844     1.0000 0.55961  0.73710  0.28121  Biso   1.000  C
  H471     1.0000 0.58200  0.72750  0.28040  Biso   1.000  H
  C845     1.0000 0.58304  0.84952  0.36758  Biso   1.000  C
  H472     1.0000 0.59090  0.82890  0.36040  Biso   1.000  H
  C846     1.0000 0.56375  0.90930  0.39083  Biso   1.000  C
  H473     1.0000 0.55650  0.93020  0.39790  Biso   1.000  H
  N138     1.0000 0.64365  0.96468  0.42423  Biso   1.000  N
  C847     1.0000 0.21802  0.87259  0.44487  Biso   1.000  C
  C848     1.0000 0.18482  0.86936  0.43535  Biso   1.000  C
  H474     1.0000 0.16590  0.88030  0.44280  Biso   1.000  H
  C849     1.0000 0.17996  0.84956  0.41439  Biso   1.000  C
  C850     1.0000 0.22442  0.89636  0.46655  Biso   1.000  C
  N139     1.0000 0.27054  0.82025  0.40141  Biso   1.000  N
  C851     1.0000 0.24094  0.83675  0.41351  Biso   1.000  C
  C852     1.0000 0.30326  0.83156  0.40126  Biso   1.000  C
  H475     1.0000 0.31220  0.85110  0.40920  Biso   1.000  H
  C853     1.0000 0.32126  0.80809  0.38687  Biso   1.000  C
  N140     1.0000 0.29692  0.78430  0.37874  Biso   1.000  N
  N141     1.0000 0.54917  0.67948  0.20893  Biso   1.000  N
  C854     1.0000 0.52766  0.69734  0.22273  Biso   1.000  C
  H476     1.0000 0.50380  0.70060  0.22000  Biso   1.000  H
  C855     1.0000 0.54608  0.70991  0.24127  Biso   1.000  C
  N142     1.0000 0.58018  0.67940  0.21894  Biso   1.000  N
  N143     1.0000 0.57903  0.69750  0.23866  Biso   1.000  N
  O217     1.0000 0.19863  0.91181  0.47478  Biso   1.000  O
  O218     1.0000 0.25520  0.89820  0.47446  Biso   1.000  O
  C856     1.0000 0.51127  0.66205  0.17581  Biso   1.000  C
  H477     1.0000 0.49290  0.67390  0.18330  Biso   1.000  H
  C857     1.0000 0.57198  0.64513  0.17549  Biso   1.000  C
  H478     1.0000 0.59400  0.64590  0.18270  Biso   1.000  H
  C858     1.0000 0.54353  0.66155  0.18619  Biso   1.000  C
  C859     1.0000 0.53411  0.62722  0.14312  Biso   1.000  C
  H479     1.0000 0.53070  0.61530  0.12860  Biso   1.000  H
  C860     1.0000 0.56664  0.62754  0.15369  Biso   1.000  C
  C861     1.0000 0.50584  0.64474  0.15401  Biso   1.000  C
  C862     1.0000 0.14407  0.84799  0.40208  Biso   1.000  C
  C863     1.0000 0.47119  0.64644  0.14123  Biso   1.000  C
  C864     1.0000 0.59784  0.61136  0.14121  Biso   1.000  C
  N144     1.0000 0.26630  0.79249  0.38742  Biso   1.000  N
  O219     1.0000 0.46755  0.62775  0.12258  Biso   1.000  O
  O220     1.0000 0.12041  0.86489  0.41310  Biso   1.000  O
  O221     1.0000 0.14219  0.83110  0.38335  Biso   1.000  O
  O222     1.0000 0.59075  0.59520  0.12199  Biso   1.000  O
  O223     1.0000 0.44798  0.66514  0.15062  Biso   1.000  O
  O224     1.0000 0.62643  0.61384  0.15141  Biso   1.000  O
  H480     1.0000 0.36510  0.79690  0.39310  Biso   1.000  H
  Zn33     1.0000 0.55223  0.70299  0.00000  Biso   1.000  Zn
  Zn34     1.0000 0.56930  0.77028  0.00000  Biso   1.000  Zn
  Zn35     1.0000 0.05223  0.20299  0.50000  Biso   1.000  Zn
  Zn36     1.0000 0.06930  0.27028  0.50000  Biso   1.000  Zn
  Zn37     1.0000 0.44777  0.29701  0.00000  Biso   1.000  Zn
  Zn38     1.0000 0.43070  0.22972  0.00000  Biso   1.000  Zn
  Zn39     1.0000 0.94777  0.79701  0.50000  Biso   1.000  Zn
  Zn40     1.0000 0.93070  0.72972  0.50000  Biso   1.000  Zn
  Zn41     1.0000 0.29701  0.55223  0.00000  Biso   1.000  Zn
  Zn42     1.0000 0.22972  0.56930  0.00000  Biso   1.000  Zn
  Zn43     1.0000 0.79701  0.05223  0.50000  Biso   1.000  Zn
  Zn44     1.0000 0.72972  0.06930  0.50000  Biso   1.000  Zn
  Zn45     1.0000 0.70299  0.44777  0.00000  Biso   1.000  Zn
  Zn46     1.0000 0.77028  0.43070  0.00000  Biso   1.000  Zn
  Zn47     1.0000 0.20299  0.94777  0.50000  Biso   1.000  Zn
  Zn48     1.0000 0.27028  0.93070  0.50000  Biso   1.000  Zn
