data_image0
_cell_length_a       31.4206
_cell_length_b       31.4206
_cell_length_c       44.8239
_cell_angle_alpha    90
_cell_angle_beta     90
_cell_angle_gamma    90

_symmetry_space_group_name_H-M    "P 1"
_symmetry_int_tables_number       1

loop_
  _symmetry_equiv_pos_as_xyz
  'x, y, z'

loop_
  _atom_site_label
  _atom_site_occupancy
  _atom_site_fract_x
  _atom_site_fract_y
  _atom_site_fract_z
  _atom_site_thermal_displace_type
  _atom_site_B_iso_or_equiv
  _atom_site_type_symbol
  Zn1      1.0000 0.64012  0.69410  0.33238  Biso   1.000  Zn
  Zn2      1.0000 0.60506  0.64592  0.37391  Biso   1.000  Zn
  O1       1.0000 0.69169  0.68691  0.35659  Biso   1.000  O
  O2       1.0000 0.66146  0.64857  0.39262  Biso   1.000  O
  O3       1.0000 0.75040  0.58274  0.46913  Biso   1.000  O
  O4       1.0000 0.82081  0.59269  0.46870  Biso   1.000  O
  O5       1.0000 0.57581  0.60782  0.40788  Biso   1.000  O
  H1       1.0000 0.55390  0.59710  0.40130  Biso   1.000  H
  O6       1.0000 0.66700  0.73413  0.29861  Biso   1.000  O
  H2       1.0000 0.68610  0.72130  0.29000  Biso   1.000  H
  C1       1.0000 0.77921  0.62783  0.43242  Biso   1.000  C
  C2       1.0000 0.78363  0.59873  0.45912  Biso   1.000  C
  C3       1.0000 0.73899  0.63524  0.42038  Biso   1.000  C
  H3       1.0000 0.71490  0.62390  0.42940  Biso   1.000  H
  C4       1.0000 0.73546  0.65987  0.39467  Biso   1.000  C
  C5       1.0000 0.69262  0.66594  0.38002  Biso   1.000  C
  C6       1.0000 0.77134  0.67662  0.38117  Biso   1.000  C
  H4       1.0000 0.76880  0.69270  0.36380  Biso   1.000  H
  C7       1.0000 0.81521  0.64481  0.41927  Biso   1.000  C
  H5       1.0000 0.84190  0.63980  0.42750  Biso   1.000  H
  C8       1.0000 0.81113  0.66936  0.39365  Biso   1.000  C
  N1       1.0000 0.84733  0.68514  0.37878  Biso   1.000  N
  N2       1.0000 0.84469  0.70970  0.35576  Biso   1.000  N
  N3       1.0000 0.88363  0.71940  0.34668  Biso   1.000  N
  C9       1.0000 0.88851  0.67289  0.38096  Biso   1.000  C
  H6       1.0000 0.89920  0.65220  0.39380  Biso   1.000  H
  C10      1.0000 0.91147  0.69610  0.36124  Biso   1.000  C
  C11      1.0000 0.97132  0.71597  0.32942  Biso   1.000  C
  H7       1.0000 0.95300  0.73320  0.31850  Biso   1.000  H
  C12      1.0000 0.95624  0.69277  0.35361  Biso   1.000  C
  C13      1.0000 0.98384  0.66765  0.37022  Biso   1.000  C
  H8       1.0000 0.97370  0.65250  0.38650  Biso   1.000  H
  C14      1.0000 0.01397  0.71323  0.32169  Biso   1.000  C
  C15      1.0000 0.04179  0.68934  0.33885  Biso   1.000  C
  H9       1.0000 0.07070  0.68950  0.33450  Biso   1.000  H
  C16      1.0000 0.05420  0.63866  0.38012  Biso   1.000  C
  C17      1.0000 0.02651  0.66518  0.36251  Biso   1.000  C
  C18      1.0000 0.00969  0.75734  0.27428  Biso   1.000  C
  H10      1.0000 0.98030  0.75950  0.27220  Biso   1.000  H
  C19      1.0000 0.03067  0.73680  0.29655  Biso   1.000  C
  N4       1.0000 0.03879  0.77382  0.25592  Biso   1.000  N
  N5       1.0000 0.07002  0.74010  0.29022  Biso   1.000  N
  N6       1.0000 0.07559  0.76140  0.26462  Biso   1.000  N
  C20      1.0000 0.09714  0.63338  0.37799  Biso   1.000  C
  H11      1.0000 0.11510  0.64700  0.36460  Biso   1.000  H
  N7       1.0000 0.10877  0.60479  0.39884  Biso   1.000  N
  N8       1.0000 0.07649  0.59720  0.41507  Biso   1.000  N
  N9       1.0000 0.04251  0.61460  0.40156  Biso   1.000  N
  C21      1.0000 0.98970  0.82410  0.18948  Biso   1.000  C
  C22      1.0000 0.99344  0.80153  0.21617  Biso   1.000  C
  H12      1.0000 0.96960  0.78950  0.22510  Biso   1.000  H
  C23      1.0000 0.06912  0.81517  0.21613  Biso   1.000  C
  H13      1.0000 0.09560  0.81210  0.22510  Biso   1.000  H
  C24      1.0000 0.03336  0.79748  0.22906  Biso   1.000  C
  C25      1.0000 0.19347  0.54412  0.43627  Biso   1.000  C
  C26      1.0000 0.15344  0.55880  0.42832  Biso   1.000  C
  H14      1.0000 0.12920  0.54870  0.43790  Biso   1.000  H
  C27      1.0000 0.15011  0.58880  0.40580  Biso   1.000  C
  C28      1.0000 0.22940  0.55858  0.42165  Biso   1.000  C
  H15      1.0000 0.25620  0.54900  0.42740  Biso   1.000  H
  C29      1.0000 0.02546  0.84244  0.17642  Biso   1.000  C
  H16      1.0000 0.02280  0.85790  0.15890  Biso   1.000  H
  C30      1.0000 0.94743  0.82713  0.17433  Biso   1.000  C
  C31      1.0000 0.22526  0.58749  0.39841  Biso   1.000  C
  C32      1.0000 0.06496  0.83762  0.18954  Biso   1.000  C
  C33      1.0000 0.10427  0.85463  0.17443  Biso   1.000  C
  C34      1.0000 0.18556  0.60246  0.39017  Biso   1.000  C
  H17      1.0000 0.18270  0.62140  0.37440  Biso   1.000  H
  C35      1.0000 0.19743  0.51089  0.46024  Biso   1.000  C
  C36      1.0000 0.26429  0.60150  0.38166  Biso   1.000  C
  O7       1.0000 0.13949  0.84703  0.18676  Biso   1.000  O
  O8       1.0000 0.91690  0.80669  0.18552  Biso   1.000  O
  O9       1.0000 0.94541  0.84979  0.15122  Biso   1.000  O
  O10      1.0000 0.16422  0.49400  0.46958  Biso   1.000  O
  O11      1.0000 0.09850  0.87430  0.15062  Biso   1.000  O
  O12      1.0000 0.23481  0.50335  0.46921  Biso   1.000  O
  O13      1.0000 0.29957  0.59051  0.39209  Biso   1.000  O
  O14      1.0000 0.25844  0.62279  0.35816  Biso   1.000  O
  Zn3      1.0000 0.14012  0.19410  0.83238  Biso   1.000  Zn
  Zn4      1.0000 0.10506  0.14592  0.87391  Biso   1.000  Zn
  O15      1.0000 0.19169  0.18691  0.85659  Biso   1.000  O
  O16      1.0000 0.16146  0.14857  0.89262  Biso   1.000  O
  O17      1.0000 0.25040  0.08274  0.96913  Biso   1.000  O
  O18      1.0000 0.32081  0.09269  0.96870  Biso   1.000  O
  O19      1.0000 0.07581  0.10782  0.90788  Biso   1.000  O
  H18      1.0000 0.05390  0.09710  0.90130  Biso   1.000  H
  O20      1.0000 0.16700  0.23413  0.79861  Biso   1.000  O
  H19      1.0000 0.18610  0.22130  0.79000  Biso   1.000  H
  C37      1.0000 0.27921  0.12783  0.93242  Biso   1.000  C
  C38      1.0000 0.28363  0.09873  0.95912  Biso   1.000  C
  C39      1.0000 0.23899  0.13524  0.92038  Biso   1.000  C
  H20      1.0000 0.21490  0.12390  0.92940  Biso   1.000  H
  C40      1.0000 0.23546  0.15987  0.89467  Biso   1.000  C
  C41      1.0000 0.19262  0.16594  0.88002  Biso   1.000  C
  C42      1.0000 0.27134  0.17662  0.88117  Biso   1.000  C
  H21      1.0000 0.26880  0.19270  0.86380  Biso   1.000  H
  C43      1.0000 0.31521  0.14481  0.91927  Biso   1.000  C
  H22      1.0000 0.34190  0.13980  0.92750  Biso   1.000  H
  C44      1.0000 0.31113  0.16936  0.89365  Biso   1.000  C
  N10      1.0000 0.34733  0.18514  0.87878  Biso   1.000  N
  N11      1.0000 0.34469  0.20970  0.85576  Biso   1.000  N
  N12      1.0000 0.38363  0.21940  0.84668  Biso   1.000  N
  C45      1.0000 0.38851  0.17289  0.88096  Biso   1.000  C
  H23      1.0000 0.39920  0.15220  0.89380  Biso   1.000  H
  C46      1.0000 0.41147  0.19610  0.86124  Biso   1.000  C
  C47      1.0000 0.47132  0.21597  0.82942  Biso   1.000  C
  H24      1.0000 0.45300  0.23320  0.81850  Biso   1.000  H
  C48      1.0000 0.45624  0.19277  0.85361  Biso   1.000  C
  C49      1.0000 0.48384  0.16765  0.87022  Biso   1.000  C
  H25      1.0000 0.47370  0.15250  0.88650  Biso   1.000  H
  C50      1.0000 0.51397  0.21323  0.82169  Biso   1.000  C
  C51      1.0000 0.54179  0.18934  0.83885  Biso   1.000  C
  H26      1.0000 0.57070  0.18950  0.83450  Biso   1.000  H
  C52      1.0000 0.55420  0.13866  0.88012  Biso   1.000  C
  C53      1.0000 0.52651  0.16518  0.86251  Biso   1.000  C
  C54      1.0000 0.50969  0.25734  0.77428  Biso   1.000  C
  H27      1.0000 0.48030  0.25950  0.77220  Biso   1.000  H
  C55      1.0000 0.53067  0.23680  0.79655  Biso   1.000  C
  N13      1.0000 0.53879  0.27382  0.75592  Biso   1.000  N
  N14      1.0000 0.57002  0.24010  0.79022  Biso   1.000  N
  N15      1.0000 0.57559  0.26140  0.76462  Biso   1.000  N
  C56      1.0000 0.59714  0.13338  0.87799  Biso   1.000  C
  H28      1.0000 0.61510  0.14700  0.86460  Biso   1.000  H
  N16      1.0000 0.60877  0.10479  0.89884  Biso   1.000  N
  N17      1.0000 0.57649  0.09720  0.91507  Biso   1.000  N
  N18      1.0000 0.54251  0.11460  0.90156  Biso   1.000  N
  C57      1.0000 0.48970  0.32410  0.68948  Biso   1.000  C
  C58      1.0000 0.49344  0.30153  0.71617  Biso   1.000  C
  H29      1.0000 0.46960  0.28950  0.72510  Biso   1.000  H
  C59      1.0000 0.56912  0.31517  0.71613  Biso   1.000  C
  H30      1.0000 0.59560  0.31210  0.72510  Biso   1.000  H
  C60      1.0000 0.53336  0.29748  0.72906  Biso   1.000  C
  C61      1.0000 0.69347  0.04412  0.93627  Biso   1.000  C
  C62      1.0000 0.65344  0.05880  0.92832  Biso   1.000  C
  H31      1.0000 0.62920  0.04870  0.93790  Biso   1.000  H
  C63      1.0000 0.65011  0.08880  0.90580  Biso   1.000  C
  C64      1.0000 0.72940  0.05858  0.92165  Biso   1.000  C
  H32      1.0000 0.75620  0.04900  0.92740  Biso   1.000  H
  C65      1.0000 0.52546  0.34244  0.67642  Biso   1.000  C
  H33      1.0000 0.52280  0.35790  0.65890  Biso   1.000  H
  C66      1.0000 0.44743  0.32713  0.67433  Biso   1.000  C
  C67      1.0000 0.72526  0.08749  0.89841  Biso   1.000  C
  C68      1.0000 0.56496  0.33762  0.68954  Biso   1.000  C
  C69      1.0000 0.60427  0.35463  0.67443  Biso   1.000  C
  C70      1.0000 0.68556  0.10246  0.89017  Biso   1.000  C
  H34      1.0000 0.68270  0.12140  0.87440  Biso   1.000  H
  C71      1.0000 0.69743  0.01089  0.96024  Biso   1.000  C
  C72      1.0000 0.76429  0.10150  0.88166  Biso   1.000  C
  O21      1.0000 0.63949  0.34703  0.68676  Biso   1.000  O
  O22      1.0000 0.41690  0.30669  0.68552  Biso   1.000  O
  O23      1.0000 0.44541  0.34979  0.65122  Biso   1.000  O
  O24      1.0000 0.66422  0.99400  0.96958  Biso   1.000  O
  O25      1.0000 0.59850  0.37430  0.65062  Biso   1.000  O
  O26      1.0000 0.73481  0.00335  0.96921  Biso   1.000  O
  O27      1.0000 0.79957  0.09051  0.89209  Biso   1.000  O
  O28      1.0000 0.75844  0.12279  0.85816  Biso   1.000  O
  Zn5      1.0000 0.35988  0.30590  0.33238  Biso   1.000  Zn
  Zn6      1.0000 0.39494  0.35408  0.37391  Biso   1.000  Zn
  O29      1.0000 0.30831  0.31309  0.35659  Biso   1.000  O
  O30      1.0000 0.33854  0.35143  0.39262  Biso   1.000  O
  O31      1.0000 0.24960  0.41726  0.46913  Biso   1.000  O
  O32      1.0000 0.17919  0.40731  0.46870  Biso   1.000  O
  O33      1.0000 0.42419  0.39218  0.40788  Biso   1.000  O
  H35      1.0000 0.44610  0.40290  0.40130  Biso   1.000  H
  O34      1.0000 0.33300  0.26587  0.29861  Biso   1.000  O
  H36      1.0000 0.31390  0.27870  0.29000  Biso   1.000  H
  C73      1.0000 0.22079  0.37217  0.43242  Biso   1.000  C
  C74      1.0000 0.21637  0.40127  0.45912  Biso   1.000  C
  C75      1.0000 0.26101  0.36476  0.42038  Biso   1.000  C
  H37      1.0000 0.28510  0.37610  0.42940  Biso   1.000  H
  C76      1.0000 0.26454  0.34013  0.39467  Biso   1.000  C
  C77      1.0000 0.30738  0.33406  0.38002  Biso   1.000  C
  C78      1.0000 0.22866  0.32338  0.38117  Biso   1.000  C
  H38      1.0000 0.23120  0.30730  0.36380  Biso   1.000  H
  C79      1.0000 0.18479  0.35519  0.41927  Biso   1.000  C
  H39      1.0000 0.15810  0.36020  0.42750  Biso   1.000  H
  C80      1.0000 0.18887  0.33064  0.39365  Biso   1.000  C
  N19      1.0000 0.15267  0.31486  0.37878  Biso   1.000  N
  N20      1.0000 0.15531  0.29030  0.35576  Biso   1.000  N
  N21      1.0000 0.11637  0.28060  0.34668  Biso   1.000  N
  C81      1.0000 0.11149  0.32711  0.38096  Biso   1.000  C
  H40      1.0000 0.10080  0.34780  0.39380  Biso   1.000  H
  C82      1.0000 0.08853  0.30390  0.36124  Biso   1.000  C
  C83      1.0000 0.02868  0.28403  0.32942  Biso   1.000  C
  H41      1.0000 0.04700  0.26680  0.31850  Biso   1.000  H
  C84      1.0000 0.04376  0.30723  0.35361  Biso   1.000  C
  C85      1.0000 0.01616  0.33235  0.37022  Biso   1.000  C
  H42      1.0000 0.02630  0.34750  0.38650  Biso   1.000  H
  C86      1.0000 0.98603  0.28677  0.32169  Biso   1.000  C
  C87      1.0000 0.95821  0.31066  0.33885  Biso   1.000  C
  H43      1.0000 0.92930  0.31050  0.33450  Biso   1.000  H
  C88      1.0000 0.94580  0.36134  0.38012  Biso   1.000  C
  C89      1.0000 0.97349  0.33482  0.36251  Biso   1.000  C
  C90      1.0000 0.99031  0.24266  0.27428  Biso   1.000  C
  H44      1.0000 0.01970  0.24050  0.27220  Biso   1.000  H
  C91      1.0000 0.96933  0.26320  0.29655  Biso   1.000  C
  N22      1.0000 0.96121  0.22618  0.25592  Biso   1.000  N
  N23      1.0000 0.92998  0.25990  0.29022  Biso   1.000  N
  N24      1.0000 0.92441  0.23860  0.26462  Biso   1.000  N
  C92      1.0000 0.90286  0.36662  0.37799  Biso   1.000  C
  H45      1.0000 0.88490  0.35300  0.36460  Biso   1.000  H
  N25      1.0000 0.89123  0.39521  0.39884  Biso   1.000  N
  N26      1.0000 0.92351  0.40280  0.41507  Biso   1.000  N
  N27      1.0000 0.95749  0.38540  0.40156  Biso   1.000  N
  C93      1.0000 0.01030  0.17590  0.18948  Biso   1.000  C
  C94      1.0000 0.00656  0.19847  0.21617  Biso   1.000  C
  H46      1.0000 0.03040  0.21050  0.22510  Biso   1.000  H
  C95      1.0000 0.93088  0.18483  0.21613  Biso   1.000  C
  H47      1.0000 0.90440  0.18790  0.22510  Biso   1.000  H
  C96      1.0000 0.96664  0.20252  0.22906  Biso   1.000  C
  C97      1.0000 0.80653  0.45588  0.43627  Biso   1.000  C
  C98      1.0000 0.84656  0.44120  0.42832  Biso   1.000  C
  H48      1.0000 0.87080  0.45130  0.43790  Biso   1.000  H
  C99      1.0000 0.84989  0.41120  0.40580  Biso   1.000  C
  C100     1.0000 0.77060  0.44142  0.42165  Biso   1.000  C
  H49      1.0000 0.74380  0.45100  0.42740  Biso   1.000  H
  C101     1.0000 0.97454  0.15756  0.17642  Biso   1.000  C
  H50      1.0000 0.97720  0.14210  0.15890  Biso   1.000  H
  C102     1.0000 0.05257  0.17287  0.17433  Biso   1.000  C
  C103     1.0000 0.77474  0.41251  0.39841  Biso   1.000  C
  C104     1.0000 0.93504  0.16238  0.18954  Biso   1.000  C
  C105     1.0000 0.89573  0.14537  0.17443  Biso   1.000  C
  C106     1.0000 0.81444  0.39754  0.39017  Biso   1.000  C
  H51      1.0000 0.81730  0.37860  0.37440  Biso   1.000  H
  C107     1.0000 0.80257  0.48911  0.46024  Biso   1.000  C
  C108     1.0000 0.73571  0.39850  0.38166  Biso   1.000  C
  O35      1.0000 0.86051  0.15297  0.18676  Biso   1.000  O
  O36      1.0000 0.08310  0.19331  0.18552  Biso   1.000  O
  O37      1.0000 0.05459  0.15021  0.15122  Biso   1.000  O
  O38      1.0000 0.83578  0.50600  0.46958  Biso   1.000  O
  O39      1.0000 0.90150  0.12570  0.15062  Biso   1.000  O
  O40      1.0000 0.76519  0.49665  0.46921  Biso   1.000  O
  O41      1.0000 0.70043  0.40949  0.39209  Biso   1.000  O
  O42      1.0000 0.74156  0.37721  0.35816  Biso   1.000  O
  Zn7      1.0000 0.85988  0.80590  0.83238  Biso   1.000  Zn
  Zn8      1.0000 0.89494  0.85408  0.87391  Biso   1.000  Zn
  O43      1.0000 0.80831  0.81309  0.85659  Biso   1.000  O
  O44      1.0000 0.83854  0.85143  0.89262  Biso   1.000  O
  O45      1.0000 0.74960  0.91726  0.96913  Biso   1.000  O
  O46      1.0000 0.67919  0.90731  0.96870  Biso   1.000  O
  O47      1.0000 0.92419  0.89218  0.90788  Biso   1.000  O
  H52      1.0000 0.94610  0.90290  0.90130  Biso   1.000  H
  O48      1.0000 0.83300  0.76587  0.79861  Biso   1.000  O
  H53      1.0000 0.81390  0.77870  0.79000  Biso   1.000  H
  C109     1.0000 0.72079  0.87217  0.93242  Biso   1.000  C
  C110     1.0000 0.71637  0.90127  0.95912  Biso   1.000  C
  C111     1.0000 0.76101  0.86476  0.92038  Biso   1.000  C
  H54      1.0000 0.78510  0.87610  0.92940  Biso   1.000  H
  C112     1.0000 0.76454  0.84013  0.89467  Biso   1.000  C
  C113     1.0000 0.80738  0.83406  0.88002  Biso   1.000  C
  C114     1.0000 0.72866  0.82338  0.88117  Biso   1.000  C
  H55      1.0000 0.73120  0.80730  0.86380  Biso   1.000  H
  C115     1.0000 0.68479  0.85519  0.91927  Biso   1.000  C
  H56      1.0000 0.65810  0.86020  0.92750  Biso   1.000  H
  C116     1.0000 0.68887  0.83064  0.89365  Biso   1.000  C
  N28      1.0000 0.65267  0.81486  0.87878  Biso   1.000  N
  N29      1.0000 0.65531  0.79030  0.85576  Biso   1.000  N
  N30      1.0000 0.61637  0.78060  0.84668  Biso   1.000  N
  C117     1.0000 0.61149  0.82711  0.88096  Biso   1.000  C
  H57      1.0000 0.60080  0.84780  0.89380  Biso   1.000  H
  C118     1.0000 0.58853  0.80390  0.86124  Biso   1.000  C
  C119     1.0000 0.52868  0.78403  0.82942  Biso   1.000  C
  H58      1.0000 0.54700  0.76680  0.81850  Biso   1.000  H
  C120     1.0000 0.54376  0.80723  0.85361  Biso   1.000  C
  C121     1.0000 0.51616  0.83235  0.87022  Biso   1.000  C
  H59      1.0000 0.52630  0.84750  0.88650  Biso   1.000  H
  C122     1.0000 0.48603  0.78677  0.82169  Biso   1.000  C
  C123     1.0000 0.45821  0.81066  0.83885  Biso   1.000  C
  H60      1.0000 0.42930  0.81050  0.83450  Biso   1.000  H
  C124     1.0000 0.44580  0.86134  0.88012  Biso   1.000  C
  C125     1.0000 0.47349  0.83482  0.86251  Biso   1.000  C
  C126     1.0000 0.49031  0.74266  0.77428  Biso   1.000  C
  H61      1.0000 0.51970  0.74050  0.77220  Biso   1.000  H
  C127     1.0000 0.46933  0.76320  0.79655  Biso   1.000  C
  N31      1.0000 0.46121  0.72618  0.75592  Biso   1.000  N
  N32      1.0000 0.42998  0.75990  0.79022  Biso   1.000  N
  N33      1.0000 0.42441  0.73860  0.76462  Biso   1.000  N
  C128     1.0000 0.40286  0.86662  0.87799  Biso   1.000  C
  H62      1.0000 0.38490  0.85300  0.86460  Biso   1.000  H
  N34      1.0000 0.39123  0.89521  0.89884  Biso   1.000  N
  N35      1.0000 0.42351  0.90280  0.91507  Biso   1.000  N
  N36      1.0000 0.45749  0.88540  0.90156  Biso   1.000  N
  C129     1.0000 0.51030  0.67590  0.68948  Biso   1.000  C
  C130     1.0000 0.50656  0.69847  0.71617  Biso   1.000  C
  H63      1.0000 0.53040  0.71050  0.72510  Biso   1.000  H
  C131     1.0000 0.43088  0.68483  0.71613  Biso   1.000  C
  H64      1.0000 0.40440  0.68790  0.72510  Biso   1.000  H
  C132     1.0000 0.46664  0.70252  0.72906  Biso   1.000  C
  C133     1.0000 0.30653  0.95588  0.93627  Biso   1.000  C
  C134     1.0000 0.34656  0.94120  0.92832  Biso   1.000  C
  H65      1.0000 0.37080  0.95130  0.93790  Biso   1.000  H
  C135     1.0000 0.34989  0.91120  0.90580  Biso   1.000  C
  C136     1.0000 0.27060  0.94142  0.92165  Biso   1.000  C
  H66      1.0000 0.24380  0.95100  0.92740  Biso   1.000  H
  C137     1.0000 0.47454  0.65756  0.67642  Biso   1.000  C
  H67      1.0000 0.47720  0.64210  0.65890  Biso   1.000  H
  C138     1.0000 0.55257  0.67287  0.67433  Biso   1.000  C
  C139     1.0000 0.27474  0.91251  0.89841  Biso   1.000  C
  C140     1.0000 0.43504  0.66238  0.68954  Biso   1.000  C
  C141     1.0000 0.39573  0.64537  0.67443  Biso   1.000  C
  C142     1.0000 0.31444  0.89754  0.89017  Biso   1.000  C
  H68      1.0000 0.31730  0.87860  0.87440  Biso   1.000  H
  C143     1.0000 0.30257  0.98911  0.96024  Biso   1.000  C
  C144     1.0000 0.23571  0.89850  0.88166  Biso   1.000  C
  O49      1.0000 0.36051  0.65297  0.68676  Biso   1.000  O
  O50      1.0000 0.58310  0.69331  0.68552  Biso   1.000  O
  O51      1.0000 0.55459  0.65021  0.65122  Biso   1.000  O
  O52      1.0000 0.33578  0.00600  0.96958  Biso   1.000  O
  O53      1.0000 0.40150  0.62570  0.65062  Biso   1.000  O
  O54      1.0000 0.26519  0.99665  0.96921  Biso   1.000  O
  O55      1.0000 0.20043  0.90949  0.89209  Biso   1.000  O
  O56      1.0000 0.24156  0.87721  0.85816  Biso   1.000  O
  Zn9      1.0000 0.30590  0.64012  0.33238  Biso   1.000  Zn
  Zn10     1.0000 0.35408  0.60506  0.37391  Biso   1.000  Zn
  O57      1.0000 0.31309  0.69169  0.35659  Biso   1.000  O
  O58      1.0000 0.35143  0.66146  0.39262  Biso   1.000  O
  O59      1.0000 0.41726  0.75040  0.46913  Biso   1.000  O
  O60      1.0000 0.40731  0.82081  0.46870  Biso   1.000  O
  O61      1.0000 0.39218  0.57581  0.40788  Biso   1.000  O
  H69      1.0000 0.40290  0.55390  0.40130  Biso   1.000  H
  O62      1.0000 0.26587  0.66700  0.29861  Biso   1.000  O
  H70      1.0000 0.27870  0.68610  0.29000  Biso   1.000  H
  C145     1.0000 0.37217  0.77921  0.43242  Biso   1.000  C
  C146     1.0000 0.40127  0.78363  0.45912  Biso   1.000  C
  C147     1.0000 0.36476  0.73899  0.42038  Biso   1.000  C
  H71      1.0000 0.37610  0.71490  0.42940  Biso   1.000  H
  C148     1.0000 0.34013  0.73546  0.39467  Biso   1.000  C
  C149     1.0000 0.33406  0.69262  0.38002  Biso   1.000  C
  C150     1.0000 0.32338  0.77134  0.38117  Biso   1.000  C
  H72      1.0000 0.30730  0.76880  0.36380  Biso   1.000  H
  C151     1.0000 0.35519  0.81521  0.41927  Biso   1.000  C
  H73      1.0000 0.36020  0.84190  0.42750  Biso   1.000  H
  C152     1.0000 0.33064  0.81113  0.39365  Biso   1.000  C
  N37      1.0000 0.31486  0.84733  0.37878  Biso   1.000  N
  N38      1.0000 0.29030  0.84469  0.35576  Biso   1.000  N
  N39      1.0000 0.28060  0.88363  0.34668  Biso   1.000  N
  C153     1.0000 0.32711  0.88851  0.38096  Biso   1.000  C
  H74      1.0000 0.34780  0.89920  0.39380  Biso   1.000  H
  C154     1.0000 0.30390  0.91147  0.36124  Biso   1.000  C
  C155     1.0000 0.28403  0.97132  0.32942  Biso   1.000  C
  H75      1.0000 0.26680  0.95300  0.31850  Biso   1.000  H
  C156     1.0000 0.30723  0.95624  0.35361  Biso   1.000  C
  C157     1.0000 0.33235  0.98384  0.37022  Biso   1.000  C
  H76      1.0000 0.34750  0.97370  0.38650  Biso   1.000  H
  C158     1.0000 0.28677  0.01397  0.32169  Biso   1.000  C
  C159     1.0000 0.31066  0.04179  0.33885  Biso   1.000  C
  H77      1.0000 0.31050  0.07070  0.33450  Biso   1.000  H
  C160     1.0000 0.36134  0.05420  0.38012  Biso   1.000  C
  C161     1.0000 0.33482  0.02651  0.36251  Biso   1.000  C
  C162     1.0000 0.24266  0.00969  0.27428  Biso   1.000  C
  H78      1.0000 0.24050  0.98030  0.27220  Biso   1.000  H
  C163     1.0000 0.26320  0.03067  0.29655  Biso   1.000  C
  N40      1.0000 0.22618  0.03879  0.25592  Biso   1.000  N
  N41      1.0000 0.25990  0.07002  0.29022  Biso   1.000  N
  N42      1.0000 0.23860  0.07559  0.26462  Biso   1.000  N
  C164     1.0000 0.36662  0.09714  0.37799  Biso   1.000  C
  H79      1.0000 0.35300  0.11510  0.36460  Biso   1.000  H
  N43      1.0000 0.39521  0.10877  0.39884  Biso   1.000  N
  N44      1.0000 0.40280  0.07649  0.41507  Biso   1.000  N
  N45      1.0000 0.38540  0.04251  0.40156  Biso   1.000  N
  C165     1.0000 0.17590  0.98970  0.18948  Biso   1.000  C
  C166     1.0000 0.19847  0.99344  0.21617  Biso   1.000  C
  H80      1.0000 0.21050  0.96960  0.22510  Biso   1.000  H
  C167     1.0000 0.18483  0.06912  0.21613  Biso   1.000  C
  H81      1.0000 0.18790  0.09560  0.22510  Biso   1.000  H
  C168     1.0000 0.20252  0.03336  0.22906  Biso   1.000  C
  C169     1.0000 0.45588  0.19347  0.43627  Biso   1.000  C
  C170     1.0000 0.44120  0.15344  0.42832  Biso   1.000  C
  H82      1.0000 0.45130  0.12920  0.43790  Biso   1.000  H
  C171     1.0000 0.41120  0.15011  0.40580  Biso   1.000  C
  C172     1.0000 0.44142  0.22940  0.42165  Biso   1.000  C
  H83      1.0000 0.45100  0.25620  0.42740  Biso   1.000  H
  C173     1.0000 0.15756  0.02546  0.17642  Biso   1.000  C
  H84      1.0000 0.14210  0.02280  0.15890  Biso   1.000  H
  C174     1.0000 0.17287  0.94743  0.17433  Biso   1.000  C
  C175     1.0000 0.41251  0.22526  0.39841  Biso   1.000  C
  C176     1.0000 0.16238  0.06496  0.18954  Biso   1.000  C
  C177     1.0000 0.14537  0.10427  0.17443  Biso   1.000  C
  C178     1.0000 0.39754  0.18556  0.39017  Biso   1.000  C
  H85      1.0000 0.37860  0.18270  0.37440  Biso   1.000  H
  C179     1.0000 0.48911  0.19743  0.46024  Biso   1.000  C
  C180     1.0000 0.39850  0.26429  0.38166  Biso   1.000  C
  O63      1.0000 0.15297  0.13949  0.18676  Biso   1.000  O
  O64      1.0000 0.19331  0.91690  0.18552  Biso   1.000  O
  O65      1.0000 0.15021  0.94541  0.15122  Biso   1.000  O
  O66      1.0000 0.50600  0.16422  0.46958  Biso   1.000  O
  O67      1.0000 0.12570  0.09850  0.15062  Biso   1.000  O
  O68      1.0000 0.49665  0.23481  0.46921  Biso   1.000  O
  O69      1.0000 0.40949  0.29957  0.39209  Biso   1.000  O
  O70      1.0000 0.37721  0.25844  0.35816  Biso   1.000  O
  Zn11     1.0000 0.80590  0.14012  0.83238  Biso   1.000  Zn
  Zn12     1.0000 0.85408  0.10506  0.87391  Biso   1.000  Zn
  O71      1.0000 0.81309  0.19169  0.85659  Biso   1.000  O
  O72      1.0000 0.85143  0.16146  0.89262  Biso   1.000  O
  O73      1.0000 0.91726  0.25040  0.96913  Biso   1.000  O
  O74      1.0000 0.90731  0.32081  0.96870  Biso   1.000  O
  O75      1.0000 0.89218  0.07581  0.90788  Biso   1.000  O
  H86      1.0000 0.90290  0.05390  0.90130  Biso   1.000  H
  O76      1.0000 0.76587  0.16700  0.79861  Biso   1.000  O
  H87      1.0000 0.77870  0.18610  0.79000  Biso   1.000  H
  C181     1.0000 0.87217  0.27921  0.93242  Biso   1.000  C
  C182     1.0000 0.90127  0.28363  0.95912  Biso   1.000  C
  C183     1.0000 0.86476  0.23899  0.92038  Biso   1.000  C
  H88      1.0000 0.87610  0.21490  0.92940  Biso   1.000  H
  C184     1.0000 0.84013  0.23546  0.89467  Biso   1.000  C
  C185     1.0000 0.83406  0.19262  0.88002  Biso   1.000  C
  C186     1.0000 0.82338  0.27134  0.88117  Biso   1.000  C
  H89      1.0000 0.80730  0.26880  0.86380  Biso   1.000  H
  C187     1.0000 0.85519  0.31521  0.91927  Biso   1.000  C
  H90      1.0000 0.86020  0.34190  0.92750  Biso   1.000  H
  C188     1.0000 0.83064  0.31113  0.89365  Biso   1.000  C
  N46      1.0000 0.81486  0.34733  0.87878  Biso   1.000  N
  N47      1.0000 0.79030  0.34469  0.85576  Biso   1.000  N
  N48      1.0000 0.78060  0.38363  0.84668  Biso   1.000  N
  C189     1.0000 0.82711  0.38851  0.88096  Biso   1.000  C
  H91      1.0000 0.84780  0.39920  0.89380  Biso   1.000  H
  C190     1.0000 0.80390  0.41147  0.86124  Biso   1.000  C
  C191     1.0000 0.78403  0.47132  0.82942  Biso   1.000  C
  H92      1.0000 0.76680  0.45300  0.81850  Biso   1.000  H
  C192     1.0000 0.80723  0.45624  0.85361  Biso   1.000  C
  C193     1.0000 0.83235  0.48384  0.87022  Biso   1.000  C
  H93      1.0000 0.84750  0.47370  0.88650  Biso   1.000  H
  C194     1.0000 0.78677  0.51397  0.82169  Biso   1.000  C
  C195     1.0000 0.81066  0.54179  0.83885  Biso   1.000  C
  H94      1.0000 0.81050  0.57070  0.83450  Biso   1.000  H
  C196     1.0000 0.86134  0.55420  0.88012  Biso   1.000  C
  C197     1.0000 0.83482  0.52651  0.86251  Biso   1.000  C
  C198     1.0000 0.74266  0.50969  0.77428  Biso   1.000  C
  H95      1.0000 0.74050  0.48030  0.77220  Biso   1.000  H
  C199     1.0000 0.76320  0.53067  0.79655  Biso   1.000  C
  N49      1.0000 0.72618  0.53879  0.75592  Biso   1.000  N
  N50      1.0000 0.75990  0.57002  0.79022  Biso   1.000  N
  N51      1.0000 0.73860  0.57559  0.76462  Biso   1.000  N
  C200     1.0000 0.86662  0.59714  0.87799  Biso   1.000  C
  H96      1.0000 0.85300  0.61510  0.86460  Biso   1.000  H
  N52      1.0000 0.89521  0.60877  0.89884  Biso   1.000  N
  N53      1.0000 0.90280  0.57649  0.91507  Biso   1.000  N
  N54      1.0000 0.88540  0.54251  0.90156  Biso   1.000  N
  C201     1.0000 0.67590  0.48970  0.68948  Biso   1.000  C
  C202     1.0000 0.69847  0.49344  0.71617  Biso   1.000  C
  H97      1.0000 0.71050  0.46960  0.72510  Biso   1.000  H
  C203     1.0000 0.68483  0.56912  0.71613  Biso   1.000  C
  H98      1.0000 0.68790  0.59560  0.72510  Biso   1.000  H
  C204     1.0000 0.70252  0.53336  0.72906  Biso   1.000  C
  C205     1.0000 0.95588  0.69347  0.93627  Biso   1.000  C
  C206     1.0000 0.94120  0.65344  0.92832  Biso   1.000  C
  H99      1.0000 0.95130  0.62920  0.93790  Biso   1.000  H
  C207     1.0000 0.91120  0.65011  0.90580  Biso   1.000  C
  C208     1.0000 0.94142  0.72940  0.92165  Biso   1.000  C
  H100     1.0000 0.95100  0.75620  0.92740  Biso   1.000  H
  C209     1.0000 0.65756  0.52546  0.67642  Biso   1.000  C
  H101     1.0000 0.64210  0.52280  0.65890  Biso   1.000  H
  C210     1.0000 0.67287  0.44743  0.67433  Biso   1.000  C
  C211     1.0000 0.91251  0.72526  0.89841  Biso   1.000  C
  C212     1.0000 0.66238  0.56496  0.68954  Biso   1.000  C
  C213     1.0000 0.64537  0.60427  0.67443  Biso   1.000  C
  C214     1.0000 0.89754  0.68556  0.89017  Biso   1.000  C
  H102     1.0000 0.87860  0.68270  0.87440  Biso   1.000  H
  C215     1.0000 0.98911  0.69743  0.96024  Biso   1.000  C
  C216     1.0000 0.89850  0.76429  0.88166  Biso   1.000  C
  O77      1.0000 0.65297  0.63949  0.68676  Biso   1.000  O
  O78      1.0000 0.69331  0.41690  0.68552  Biso   1.000  O
  O79      1.0000 0.65021  0.44541  0.65122  Biso   1.000  O
  O80      1.0000 0.00600  0.66422  0.96958  Biso   1.000  O
  O81      1.0000 0.62570  0.59850  0.65062  Biso   1.000  O
  O82      1.0000 0.99665  0.73481  0.96921  Biso   1.000  O
  O83      1.0000 0.90949  0.79957  0.89209  Biso   1.000  O
  O84      1.0000 0.87721  0.75844  0.85816  Biso   1.000  O
  Zn13     1.0000 0.69410  0.35988  0.33238  Biso   1.000  Zn
  Zn14     1.0000 0.64592  0.39494  0.37391  Biso   1.000  Zn
  O85      1.0000 0.68691  0.30831  0.35659  Biso   1.000  O
  O86      1.0000 0.64857  0.33854  0.39262  Biso   1.000  O
  O87      1.0000 0.58274  0.24960  0.46913  Biso   1.000  O
  O88      1.0000 0.59269  0.17919  0.46870  Biso   1.000  O
  O89      1.0000 0.60782  0.42419  0.40788  Biso   1.000  O
  H103     1.0000 0.59710  0.44610  0.40130  Biso   1.000  H
  O90      1.0000 0.73413  0.33300  0.29861  Biso   1.000  O
  H104     1.0000 0.72130  0.31390  0.29000  Biso   1.000  H
  C217     1.0000 0.62783  0.22079  0.43242  Biso   1.000  C
  C218     1.0000 0.59873  0.21637  0.45912  Biso   1.000  C
  C219     1.0000 0.63524  0.26101  0.42038  Biso   1.000  C
  H105     1.0000 0.62390  0.28510  0.42940  Biso   1.000  H
  C220     1.0000 0.65987  0.26454  0.39467  Biso   1.000  C
  C221     1.0000 0.66594  0.30738  0.38002  Biso   1.000  C
  C222     1.0000 0.67662  0.22866  0.38117  Biso   1.000  C
  H106     1.0000 0.69270  0.23120  0.36380  Biso   1.000  H
  C223     1.0000 0.64481  0.18479  0.41927  Biso   1.000  C
  H107     1.0000 0.63980  0.15810  0.42750  Biso   1.000  H
  C224     1.0000 0.66936  0.18887  0.39365  Biso   1.000  C
  N55      1.0000 0.68514  0.15267  0.37878  Biso   1.000  N
  N56      1.0000 0.70970  0.15531  0.35576  Biso   1.000  N
  N57      1.0000 0.71940  0.11637  0.34668  Biso   1.000  N
  C225     1.0000 0.67289  0.11149  0.38096  Biso   1.000  C
  H108     1.0000 0.65220  0.10080  0.39380  Biso   1.000  H
  C226     1.0000 0.69610  0.08853  0.36124  Biso   1.000  C
  C227     1.0000 0.71597  0.02868  0.32942  Biso   1.000  C
  H109     1.0000 0.73320  0.04700  0.31850  Biso   1.000  H
  C228     1.0000 0.69277  0.04376  0.35361  Biso   1.000  C
  C229     1.0000 0.66765  0.01616  0.37022  Biso   1.000  C
  H110     1.0000 0.65250  0.02630  0.38650  Biso   1.000  H
  C230     1.0000 0.71323  0.98603  0.32169  Biso   1.000  C
  C231     1.0000 0.68934  0.95821  0.33885  Biso   1.000  C
  H111     1.0000 0.68950  0.92930  0.33450  Biso   1.000  H
  C232     1.0000 0.63866  0.94580  0.38012  Biso   1.000  C
  C233     1.0000 0.66518  0.97349  0.36251  Biso   1.000  C
  C234     1.0000 0.75734  0.99031  0.27428  Biso   1.000  C
  H112     1.0000 0.75950  0.01970  0.27220  Biso   1.000  H
  C235     1.0000 0.73680  0.96933  0.29655  Biso   1.000  C
  N58      1.0000 0.77382  0.96121  0.25592  Biso   1.000  N
  N59      1.0000 0.74010  0.92998  0.29022  Biso   1.000  N
  N60      1.0000 0.76140  0.92441  0.26462  Biso   1.000  N
  C236     1.0000 0.63338  0.90286  0.37799  Biso   1.000  C
  H113     1.0000 0.64700  0.88490  0.36460  Biso   1.000  H
  N61      1.0000 0.60479  0.89123  0.39884  Biso   1.000  N
  N62      1.0000 0.59720  0.92351  0.41507  Biso   1.000  N
  N63      1.0000 0.61460  0.95749  0.40156  Biso   1.000  N
  C237     1.0000 0.82410  0.01030  0.18948  Biso   1.000  C
  C238     1.0000 0.80153  0.00656  0.21617  Biso   1.000  C
  H114     1.0000 0.78950  0.03040  0.22510  Biso   1.000  H
  C239     1.0000 0.81517  0.93088  0.21613  Biso   1.000  C
  H115     1.0000 0.81210  0.90440  0.22510  Biso   1.000  H
  C240     1.0000 0.79748  0.96664  0.22906  Biso   1.000  C
  C241     1.0000 0.54412  0.80653  0.43627  Biso   1.000  C
  C242     1.0000 0.55880  0.84656  0.42832  Biso   1.000  C
  H116     1.0000 0.54870  0.87080  0.43790  Biso   1.000  H
  C243     1.0000 0.58880  0.84989  0.40580  Biso   1.000  C
  C244     1.0000 0.55858  0.77060  0.42165  Biso   1.000  C
  H117     1.0000 0.54900  0.74380  0.42740  Biso   1.000  H
  C245     1.0000 0.84244  0.97454  0.17642  Biso   1.000  C
  H118     1.0000 0.85790  0.97720  0.15890  Biso   1.000  H
  C246     1.0000 0.82713  0.05257  0.17433  Biso   1.000  C
  C247     1.0000 0.58749  0.77474  0.39841  Biso   1.000  C
  C248     1.0000 0.83762  0.93504  0.18954  Biso   1.000  C
  C249     1.0000 0.85463  0.89573  0.17443  Biso   1.000  C
  C250     1.0000 0.60246  0.81444  0.39017  Biso   1.000  C
  H119     1.0000 0.62140  0.81730  0.37440  Biso   1.000  H
  C251     1.0000 0.51089  0.80257  0.46024  Biso   1.000  C
  C252     1.0000 0.60150  0.73571  0.38166  Biso   1.000  C
  O91      1.0000 0.84703  0.86051  0.18676  Biso   1.000  O
  O92      1.0000 0.80669  0.08310  0.18552  Biso   1.000  O
  O93      1.0000 0.84979  0.05459  0.15122  Biso   1.000  O
  O94      1.0000 0.49400  0.83578  0.46958  Biso   1.000  O
  O95      1.0000 0.87430  0.90150  0.15062  Biso   1.000  O
  O96      1.0000 0.50335  0.76519  0.46921  Biso   1.000  O
  O97      1.0000 0.59051  0.70043  0.39209  Biso   1.000  O
  O98      1.0000 0.62279  0.74156  0.35816  Biso   1.000  O
  Zn15     1.0000 0.19410  0.85988  0.83238  Biso   1.000  Zn
  Zn16     1.0000 0.14592  0.89494  0.87391  Biso   1.000  Zn
  O99      1.0000 0.18691  0.80831  0.85659  Biso   1.000  O
  O100     1.0000 0.14857  0.83854  0.89262  Biso   1.000  O
  O101     1.0000 0.08274  0.74960  0.96913  Biso   1.000  O
  O102     1.0000 0.09269  0.67919  0.96870  Biso   1.000  O
  O103     1.0000 0.10782  0.92419  0.90788  Biso   1.000  O
  H120     1.0000 0.09710  0.94610  0.90130  Biso   1.000  H
  O104     1.0000 0.23413  0.83300  0.79861  Biso   1.000  O
  H121     1.0000 0.22130  0.81390  0.79000  Biso   1.000  H
  C253     1.0000 0.12783  0.72079  0.93242  Biso   1.000  C
  C254     1.0000 0.09873  0.71637  0.95912  Biso   1.000  C
  C255     1.0000 0.13524  0.76101  0.92038  Biso   1.000  C
  H122     1.0000 0.12390  0.78510  0.92940  Biso   1.000  H
  C256     1.0000 0.15987  0.76454  0.89467  Biso   1.000  C
  C257     1.0000 0.16594  0.80738  0.88002  Biso   1.000  C
  C258     1.0000 0.17662  0.72866  0.88117  Biso   1.000  C
  H123     1.0000 0.19270  0.73120  0.86380  Biso   1.000  H
  C259     1.0000 0.14481  0.68479  0.91927  Biso   1.000  C
  H124     1.0000 0.13980  0.65810  0.92750  Biso   1.000  H
  C260     1.0000 0.16936  0.68887  0.89365  Biso   1.000  C
  N64      1.0000 0.18514  0.65267  0.87878  Biso   1.000  N
  N65      1.0000 0.20970  0.65531  0.85576  Biso   1.000  N
  N66      1.0000 0.21940  0.61637  0.84668  Biso   1.000  N
  C261     1.0000 0.17289  0.61149  0.88096  Biso   1.000  C
  H125     1.0000 0.15220  0.60080  0.89380  Biso   1.000  H
  C262     1.0000 0.19610  0.58853  0.86124  Biso   1.000  C
  C263     1.0000 0.21597  0.52868  0.82942  Biso   1.000  C
  H126     1.0000 0.23320  0.54700  0.81850  Biso   1.000  H
  C264     1.0000 0.19277  0.54376  0.85361  Biso   1.000  C
  C265     1.0000 0.16765  0.51616  0.87022  Biso   1.000  C
  H127     1.0000 0.15250  0.52630  0.88650  Biso   1.000  H
  C266     1.0000 0.21323  0.48603  0.82169  Biso   1.000  C
  C267     1.0000 0.18934  0.45821  0.83885  Biso   1.000  C
  H128     1.0000 0.18950  0.42930  0.83450  Biso   1.000  H
  C268     1.0000 0.13866  0.44580  0.88012  Biso   1.000  C
  C269     1.0000 0.16518  0.47349  0.86251  Biso   1.000  C
  C270     1.0000 0.25734  0.49031  0.77428  Biso   1.000  C
  H129     1.0000 0.25950  0.51970  0.77220  Biso   1.000  H
  C271     1.0000 0.23680  0.46933  0.79655  Biso   1.000  C
  N67      1.0000 0.27382  0.46121  0.75592  Biso   1.000  N
  N68      1.0000 0.24010  0.42998  0.79022  Biso   1.000  N
  N69      1.0000 0.26140  0.42441  0.76462  Biso   1.000  N
  C272     1.0000 0.13338  0.40286  0.87799  Biso   1.000  C
  H130     1.0000 0.14700  0.38490  0.86460  Biso   1.000  H
  N70      1.0000 0.10479  0.39123  0.89884  Biso   1.000  N
  N71      1.0000 0.09720  0.42351  0.91507  Biso   1.000  N
  N72      1.0000 0.11460  0.45749  0.90156  Biso   1.000  N
  C273     1.0000 0.32410  0.51030  0.68948  Biso   1.000  C
  C274     1.0000 0.30153  0.50656  0.71617  Biso   1.000  C
  H131     1.0000 0.28950  0.53040  0.72510  Biso   1.000  H
  C275     1.0000 0.31517  0.43088  0.71613  Biso   1.000  C
  H132     1.0000 0.31210  0.40440  0.72510  Biso   1.000  H
  C276     1.0000 0.29748  0.46664  0.72906  Biso   1.000  C
  C277     1.0000 0.04412  0.30653  0.93627  Biso   1.000  C
  C278     1.0000 0.05880  0.34656  0.92832  Biso   1.000  C
  H133     1.0000 0.04870  0.37080  0.93790  Biso   1.000  H
  C279     1.0000 0.08880  0.34989  0.90580  Biso   1.000  C
  C280     1.0000 0.05858  0.27060  0.92165  Biso   1.000  C
  H134     1.0000 0.04900  0.24380  0.92740  Biso   1.000  H
  C281     1.0000 0.34244  0.47454  0.67642  Biso   1.000  C
  H135     1.0000 0.35790  0.47720  0.65890  Biso   1.000  H
  C282     1.0000 0.32713  0.55257  0.67433  Biso   1.000  C
  C283     1.0000 0.08749  0.27474  0.89841  Biso   1.000  C
  C284     1.0000 0.33762  0.43504  0.68954  Biso   1.000  C
  C285     1.0000 0.35463  0.39573  0.67443  Biso   1.000  C
  C286     1.0000 0.10246  0.31444  0.89017  Biso   1.000  C
  H136     1.0000 0.12140  0.31730  0.87440  Biso   1.000  H
  C287     1.0000 0.01089  0.30257  0.96024  Biso   1.000  C
  C288     1.0000 0.10150  0.23571  0.88166  Biso   1.000  C
  O105     1.0000 0.34703  0.36051  0.68676  Biso   1.000  O
  O106     1.0000 0.30669  0.58310  0.68552  Biso   1.000  O
  O107     1.0000 0.34979  0.55459  0.65122  Biso   1.000  O
  O108     1.0000 0.99400  0.33578  0.96958  Biso   1.000  O
  O109     1.0000 0.37430  0.40150  0.65062  Biso   1.000  O
  O110     1.0000 0.00335  0.26519  0.96921  Biso   1.000  O
  O111     1.0000 0.09051  0.20043  0.89209  Biso   1.000  O
  O112     1.0000 0.12279  0.24156  0.85816  Biso   1.000  O
  Zn17     1.0000 0.35988  0.30590  0.66762  Biso   1.000  Zn
  Zn18     1.0000 0.39494  0.35408  0.62609  Biso   1.000  Zn
  O113     1.0000 0.30831  0.31309  0.64341  Biso   1.000  O
  O114     1.0000 0.33854  0.35143  0.60738  Biso   1.000  O
  O115     1.0000 0.24960  0.41726  0.53087  Biso   1.000  O
  O116     1.0000 0.17919  0.40731  0.53130  Biso   1.000  O
  O117     1.0000 0.42419  0.39218  0.59212  Biso   1.000  O
  H137     1.0000 0.44610  0.40290  0.59870  Biso   1.000  H
  O118     1.0000 0.33300  0.26587  0.70139  Biso   1.000  O
  H138     1.0000 0.31390  0.27870  0.71000  Biso   1.000  H
  C289     1.0000 0.22079  0.37217  0.56758  Biso   1.000  C
  C290     1.0000 0.21637  0.40127  0.54088  Biso   1.000  C
  C291     1.0000 0.26101  0.36476  0.57962  Biso   1.000  C
  H139     1.0000 0.28510  0.37610  0.57060  Biso   1.000  H
  C292     1.0000 0.26454  0.34013  0.60533  Biso   1.000  C
  C293     1.0000 0.30738  0.33406  0.61998  Biso   1.000  C
  C294     1.0000 0.22866  0.32338  0.61883  Biso   1.000  C
  H140     1.0000 0.23120  0.30730  0.63620  Biso   1.000  H
  C295     1.0000 0.18479  0.35519  0.58073  Biso   1.000  C
  H141     1.0000 0.15810  0.36020  0.57250  Biso   1.000  H
  C296     1.0000 0.18887  0.33064  0.60635  Biso   1.000  C
  N73      1.0000 0.15267  0.31486  0.62122  Biso   1.000  N
  N74      1.0000 0.15531  0.29030  0.64424  Biso   1.000  N
  N75      1.0000 0.11637  0.28060  0.65332  Biso   1.000  N
  C297     1.0000 0.11149  0.32711  0.61904  Biso   1.000  C
  H142     1.0000 0.10080  0.34780  0.60620  Biso   1.000  H
  C298     1.0000 0.08853  0.30390  0.63876  Biso   1.000  C
  C299     1.0000 0.02868  0.28403  0.67058  Biso   1.000  C
  H143     1.0000 0.04700  0.26680  0.68150  Biso   1.000  H
  C300     1.0000 0.04376  0.30723  0.64639  Biso   1.000  C
  C301     1.0000 0.01616  0.33235  0.62978  Biso   1.000  C
  H144     1.0000 0.02630  0.34750  0.61350  Biso   1.000  H
  C302     1.0000 0.98603  0.28677  0.67831  Biso   1.000  C
  C303     1.0000 0.95821  0.31066  0.66115  Biso   1.000  C
  H145     1.0000 0.92930  0.31050  0.66550  Biso   1.000  H
  C304     1.0000 0.94580  0.36134  0.61988  Biso   1.000  C
  C305     1.0000 0.97349  0.33482  0.63749  Biso   1.000  C
  C306     1.0000 0.99031  0.24266  0.72572  Biso   1.000  C
  H146     1.0000 0.01970  0.24050  0.72780  Biso   1.000  H
  C307     1.0000 0.96933  0.26320  0.70345  Biso   1.000  C
  N76      1.0000 0.96121  0.22618  0.74408  Biso   1.000  N
  N77      1.0000 0.92998  0.25990  0.70978  Biso   1.000  N
  N78      1.0000 0.92441  0.23860  0.73538  Biso   1.000  N
  C308     1.0000 0.90286  0.36662  0.62201  Biso   1.000  C
  H147     1.0000 0.88490  0.35300  0.63540  Biso   1.000  H
  N79      1.0000 0.89123  0.39521  0.60116  Biso   1.000  N
  N80      1.0000 0.92351  0.40280  0.58493  Biso   1.000  N
  N81      1.0000 0.95749  0.38540  0.59844  Biso   1.000  N
  C309     1.0000 0.01030  0.17590  0.81052  Biso   1.000  C
  C310     1.0000 0.00656  0.19847  0.78383  Biso   1.000  C
  H148     1.0000 0.03040  0.21050  0.77490  Biso   1.000  H
  C311     1.0000 0.93088  0.18483  0.78387  Biso   1.000  C
  H149     1.0000 0.90440  0.18790  0.77490  Biso   1.000  H
  C312     1.0000 0.96664  0.20252  0.77094  Biso   1.000  C
  C313     1.0000 0.80653  0.45588  0.56373  Biso   1.000  C
  C314     1.0000 0.84656  0.44120  0.57168  Biso   1.000  C
  H150     1.0000 0.87080  0.45130  0.56210  Biso   1.000  H
  C315     1.0000 0.84989  0.41120  0.59420  Biso   1.000  C
  C316     1.0000 0.77060  0.44142  0.57835  Biso   1.000  C
  H151     1.0000 0.74380  0.45100  0.57260  Biso   1.000  H
  C317     1.0000 0.97454  0.15756  0.82358  Biso   1.000  C
  H152     1.0000 0.97720  0.14210  0.84110  Biso   1.000  H
  C318     1.0000 0.05257  0.17287  0.82567  Biso   1.000  C
  C319     1.0000 0.77474  0.41251  0.60159  Biso   1.000  C
  C320     1.0000 0.93504  0.16238  0.81046  Biso   1.000  C
  C321     1.0000 0.89573  0.14537  0.82557  Biso   1.000  C
  C322     1.0000 0.81444  0.39754  0.60983  Biso   1.000  C
  H153     1.0000 0.81730  0.37860  0.62560  Biso   1.000  H
  C323     1.0000 0.80257  0.48911  0.53976  Biso   1.000  C
  C324     1.0000 0.73571  0.39850  0.61834  Biso   1.000  C
  O119     1.0000 0.86051  0.15297  0.81324  Biso   1.000  O
  O120     1.0000 0.08310  0.19331  0.81448  Biso   1.000  O
  O121     1.0000 0.05459  0.15021  0.84878  Biso   1.000  O
  O122     1.0000 0.83578  0.50600  0.53042  Biso   1.000  O
  O123     1.0000 0.90150  0.12570  0.84938  Biso   1.000  O
  O124     1.0000 0.76519  0.49665  0.53079  Biso   1.000  O
  O125     1.0000 0.70043  0.40949  0.60791  Biso   1.000  O
  O126     1.0000 0.74156  0.37721  0.64184  Biso   1.000  O
  Zn19     1.0000 0.85988  0.80590  0.16762  Biso   1.000  Zn
  Zn20     1.0000 0.89494  0.85408  0.12609  Biso   1.000  Zn
  O127     1.0000 0.80831  0.81309  0.14341  Biso   1.000  O
  O128     1.0000 0.83854  0.85143  0.10738  Biso   1.000  O
  O129     1.0000 0.74960  0.91726  0.03087  Biso   1.000  O
  O130     1.0000 0.67919  0.90731  0.03130  Biso   1.000  O
  O131     1.0000 0.92419  0.89218  0.09212  Biso   1.000  O
  H154     1.0000 0.94610  0.90290  0.09870  Biso   1.000  H
  O132     1.0000 0.83300  0.76587  0.20139  Biso   1.000  O
  H155     1.0000 0.81390  0.77870  0.21000  Biso   1.000  H
  C325     1.0000 0.72079  0.87217  0.06758  Biso   1.000  C
  C326     1.0000 0.71637  0.90127  0.04088  Biso   1.000  C
  C327     1.0000 0.76101  0.86476  0.07962  Biso   1.000  C
  H156     1.0000 0.78510  0.87610  0.07060  Biso   1.000  H
  C328     1.0000 0.76454  0.84013  0.10533  Biso   1.000  C
  C329     1.0000 0.80738  0.83406  0.11998  Biso   1.000  C
  C330     1.0000 0.72866  0.82338  0.11883  Biso   1.000  C
  H157     1.0000 0.73120  0.80730  0.13620  Biso   1.000  H
  C331     1.0000 0.68479  0.85519  0.08073  Biso   1.000  C
  H158     1.0000 0.65810  0.86020  0.07250  Biso   1.000  H
  C332     1.0000 0.68887  0.83064  0.10635  Biso   1.000  C
  N82      1.0000 0.65267  0.81486  0.12122  Biso   1.000  N
  N83      1.0000 0.65531  0.79030  0.14424  Biso   1.000  N
  N84      1.0000 0.61637  0.78060  0.15332  Biso   1.000  N
  C333     1.0000 0.61149  0.82711  0.11904  Biso   1.000  C
  H159     1.0000 0.60080  0.84780  0.10620  Biso   1.000  H
  C334     1.0000 0.58853  0.80390  0.13876  Biso   1.000  C
  C335     1.0000 0.52868  0.78403  0.17058  Biso   1.000  C
  H160     1.0000 0.54700  0.76680  0.18150  Biso   1.000  H
  C336     1.0000 0.54376  0.80723  0.14639  Biso   1.000  C
  C337     1.0000 0.51616  0.83235  0.12978  Biso   1.000  C
  H161     1.0000 0.52630  0.84750  0.11350  Biso   1.000  H
  C338     1.0000 0.48603  0.78677  0.17831  Biso   1.000  C
  C339     1.0000 0.45821  0.81066  0.16115  Biso   1.000  C
  H162     1.0000 0.42930  0.81050  0.16550  Biso   1.000  H
  C340     1.0000 0.44580  0.86134  0.11988  Biso   1.000  C
  C341     1.0000 0.47349  0.83482  0.13749  Biso   1.000  C
  C342     1.0000 0.49031  0.74266  0.22572  Biso   1.000  C
  H163     1.0000 0.51970  0.74050  0.22780  Biso   1.000  H
  C343     1.0000 0.46933  0.76320  0.20345  Biso   1.000  C
  N85      1.0000 0.46121  0.72618  0.24408  Biso   1.000  N
  N86      1.0000 0.42998  0.75990  0.20978  Biso   1.000  N
  N87      1.0000 0.42441  0.73860  0.23538  Biso   1.000  N
  C344     1.0000 0.40286  0.86662  0.12201  Biso   1.000  C
  H164     1.0000 0.38490  0.85300  0.13540  Biso   1.000  H
  N88      1.0000 0.39123  0.89521  0.10116  Biso   1.000  N
  N89      1.0000 0.42351  0.90280  0.08493  Biso   1.000  N
  N90      1.0000 0.45749  0.88540  0.09844  Biso   1.000  N
  C345     1.0000 0.51030  0.67590  0.31052  Biso   1.000  C
  C346     1.0000 0.50656  0.69847  0.28383  Biso   1.000  C
  H165     1.0000 0.53040  0.71050  0.27490  Biso   1.000  H
  C347     1.0000 0.43088  0.68483  0.28387  Biso   1.000  C
  H166     1.0000 0.40440  0.68790  0.27490  Biso   1.000  H
  C348     1.0000 0.46664  0.70252  0.27094  Biso   1.000  C
  C349     1.0000 0.30653  0.95588  0.06373  Biso   1.000  C
  C350     1.0000 0.34656  0.94120  0.07168  Biso   1.000  C
  H167     1.0000 0.37080  0.95130  0.06210  Biso   1.000  H
  C351     1.0000 0.34989  0.91120  0.09420  Biso   1.000  C
  C352     1.0000 0.27060  0.94142  0.07835  Biso   1.000  C
  H168     1.0000 0.24380  0.95100  0.07260  Biso   1.000  H
  C353     1.0000 0.47454  0.65756  0.32358  Biso   1.000  C
  H169     1.0000 0.47720  0.64210  0.34110  Biso   1.000  H
  C354     1.0000 0.55257  0.67287  0.32567  Biso   1.000  C
  C355     1.0000 0.27474  0.91251  0.10159  Biso   1.000  C
  C356     1.0000 0.43504  0.66238  0.31046  Biso   1.000  C
  C357     1.0000 0.39573  0.64537  0.32557  Biso   1.000  C
  C358     1.0000 0.31444  0.89754  0.10983  Biso   1.000  C
  H170     1.0000 0.31730  0.87860  0.12560  Biso   1.000  H
  C359     1.0000 0.30257  0.98911  0.03976  Biso   1.000  C
  C360     1.0000 0.23571  0.89850  0.11834  Biso   1.000  C
  O133     1.0000 0.36051  0.65297  0.31324  Biso   1.000  O
  O134     1.0000 0.58310  0.69331  0.31448  Biso   1.000  O
  O135     1.0000 0.55459  0.65021  0.34878  Biso   1.000  O
  O136     1.0000 0.33578  0.00600  0.03042  Biso   1.000  O
  O137     1.0000 0.40150  0.62570  0.34938  Biso   1.000  O
  O138     1.0000 0.26519  0.99665  0.03079  Biso   1.000  O
  O139     1.0000 0.20043  0.90949  0.10791  Biso   1.000  O
  O140     1.0000 0.24156  0.87721  0.14184  Biso   1.000  O
  Zn21     1.0000 0.64012  0.69410  0.66762  Biso   1.000  Zn
  Zn22     1.0000 0.60506  0.64592  0.62609  Biso   1.000  Zn
  O141     1.0000 0.69169  0.68691  0.64341  Biso   1.000  O
  O142     1.0000 0.66146  0.64857  0.60738  Biso   1.000  O
  O143     1.0000 0.75040  0.58274  0.53087  Biso   1.000  O
  O144     1.0000 0.82081  0.59269  0.53130  Biso   1.000  O
  O145     1.0000 0.57581  0.60782  0.59212  Biso   1.000  O
  H171     1.0000 0.55390  0.59710  0.59870  Biso   1.000  H
  O146     1.0000 0.66700  0.73413  0.70139  Biso   1.000  O
  H172     1.0000 0.68610  0.72130  0.71000  Biso   1.000  H
  C361     1.0000 0.77921  0.62783  0.56758  Biso   1.000  C
  C362     1.0000 0.78363  0.59873  0.54088  Biso   1.000  C
  C363     1.0000 0.73899  0.63524  0.57962  Biso   1.000  C
  H173     1.0000 0.71490  0.62390  0.57060  Biso   1.000  H
  C364     1.0000 0.73546  0.65987  0.60533  Biso   1.000  C
  C365     1.0000 0.69262  0.66594  0.61998  Biso   1.000  C
  C366     1.0000 0.77134  0.67662  0.61883  Biso   1.000  C
  H174     1.0000 0.76880  0.69270  0.63620  Biso   1.000  H
  C367     1.0000 0.81521  0.64481  0.58073  Biso   1.000  C
  H175     1.0000 0.84190  0.63980  0.57250  Biso   1.000  H
  C368     1.0000 0.81113  0.66936  0.60635  Biso   1.000  C
  N91      1.0000 0.84733  0.68514  0.62122  Biso   1.000  N
  N92      1.0000 0.84469  0.70970  0.64424  Biso   1.000  N
  N93      1.0000 0.88363  0.71940  0.65332  Biso   1.000  N
  C369     1.0000 0.88851  0.67289  0.61904  Biso   1.000  C
  H176     1.0000 0.89920  0.65220  0.60620  Biso   1.000  H
  C370     1.0000 0.91147  0.69610  0.63876  Biso   1.000  C
  C371     1.0000 0.97132  0.71597  0.67058  Biso   1.000  C
  H177     1.0000 0.95300  0.73320  0.68150  Biso   1.000  H
  C372     1.0000 0.95624  0.69277  0.64639  Biso   1.000  C
  C373     1.0000 0.98384  0.66765  0.62978  Biso   1.000  C
  H178     1.0000 0.97370  0.65250  0.61350  Biso   1.000  H
  C374     1.0000 0.01397  0.71323  0.67831  Biso   1.000  C
  C375     1.0000 0.04179  0.68934  0.66115  Biso   1.000  C
  H179     1.0000 0.07070  0.68950  0.66550  Biso   1.000  H
  C376     1.0000 0.05420  0.63866  0.61988  Biso   1.000  C
  C377     1.0000 0.02651  0.66518  0.63749  Biso   1.000  C
  C378     1.0000 0.00969  0.75734  0.72572  Biso   1.000  C
  H180     1.0000 0.98030  0.75950  0.72780  Biso   1.000  H
  C379     1.0000 0.03067  0.73680  0.70345  Biso   1.000  C
  N94      1.0000 0.03879  0.77382  0.74408  Biso   1.000  N
  N95      1.0000 0.07002  0.74010  0.70978  Biso   1.000  N
  N96      1.0000 0.07559  0.76140  0.73538  Biso   1.000  N
  C380     1.0000 0.09714  0.63338  0.62201  Biso   1.000  C
  H181     1.0000 0.11510  0.64700  0.63540  Biso   1.000  H
  N97      1.0000 0.10877  0.60479  0.60116  Biso   1.000  N
  N98      1.0000 0.07649  0.59720  0.58493  Biso   1.000  N
  N99      1.0000 0.04251  0.61460  0.59844  Biso   1.000  N
  C381     1.0000 0.98970  0.82410  0.81052  Biso   1.000  C
  C382     1.0000 0.99344  0.80153  0.78383  Biso   1.000  C
  H182     1.0000 0.96960  0.78950  0.77490  Biso   1.000  H
  C383     1.0000 0.06912  0.81517  0.78387  Biso   1.000  C
  H183     1.0000 0.09560  0.81210  0.77490  Biso   1.000  H
  C384     1.0000 0.03336  0.79748  0.77094  Biso   1.000  C
  C385     1.0000 0.19347  0.54412  0.56373  Biso   1.000  C
  C386     1.0000 0.15344  0.55880  0.57168  Biso   1.000  C
  H184     1.0000 0.12920  0.54870  0.56210  Biso   1.000  H
  C387     1.0000 0.15011  0.58880  0.59420  Biso   1.000  C
  C388     1.0000 0.22940  0.55858  0.57835  Biso   1.000  C
  H185     1.0000 0.25620  0.54900  0.57260  Biso   1.000  H
  C389     1.0000 0.02546  0.84244  0.82358  Biso   1.000  C
  H186     1.0000 0.02280  0.85790  0.84110  Biso   1.000  H
  C390     1.0000 0.94743  0.82713  0.82567  Biso   1.000  C
  C391     1.0000 0.22526  0.58749  0.60159  Biso   1.000  C
  C392     1.0000 0.06496  0.83762  0.81046  Biso   1.000  C
  C393     1.0000 0.10427  0.85463  0.82557  Biso   1.000  C
  C394     1.0000 0.18556  0.60246  0.60983  Biso   1.000  C
  H187     1.0000 0.18270  0.62140  0.62560  Biso   1.000  H
  C395     1.0000 0.19743  0.51089  0.53976  Biso   1.000  C
  C396     1.0000 0.26429  0.60150  0.61834  Biso   1.000  C
  O147     1.0000 0.13949  0.84703  0.81324  Biso   1.000  O
  O148     1.0000 0.91690  0.80669  0.81448  Biso   1.000  O
  O149     1.0000 0.94541  0.84979  0.84878  Biso   1.000  O
  O150     1.0000 0.16422  0.49400  0.53042  Biso   1.000  O
  O151     1.0000 0.09850  0.87430  0.84938  Biso   1.000  O
  O152     1.0000 0.23481  0.50335  0.53079  Biso   1.000  O
  O153     1.0000 0.29957  0.59051  0.60791  Biso   1.000  O
  O154     1.0000 0.25844  0.62279  0.64184  Biso   1.000  O
  Zn23     1.0000 0.14012  0.19410  0.16762  Biso   1.000  Zn
  Zn24     1.0000 0.10506  0.14592  0.12609  Biso   1.000  Zn
  O155     1.0000 0.19169  0.18691  0.14341  Biso   1.000  O
  O156     1.0000 0.16146  0.14857  0.10738  Biso   1.000  O
  O157     1.0000 0.25040  0.08274  0.03087  Biso   1.000  O
  O158     1.0000 0.32081  0.09269  0.03130  Biso   1.000  O
  O159     1.0000 0.07581  0.10782  0.09212  Biso   1.000  O
  H188     1.0000 0.05390  0.09710  0.09870  Biso   1.000  H
  O160     1.0000 0.16700  0.23413  0.20139  Biso   1.000  O
  H189     1.0000 0.18610  0.22130  0.21000  Biso   1.000  H
  C397     1.0000 0.27921  0.12783  0.06758  Biso   1.000  C
  C398     1.0000 0.28363  0.09873  0.04088  Biso   1.000  C
  C399     1.0000 0.23899  0.13524  0.07962  Biso   1.000  C
  H190     1.0000 0.21490  0.12390  0.07060  Biso   1.000  H
  C400     1.0000 0.23546  0.15987  0.10533  Biso   1.000  C
  C401     1.0000 0.19262  0.16594  0.11998  Biso   1.000  C
  C402     1.0000 0.27134  0.17662  0.11883  Biso   1.000  C
  H191     1.0000 0.26880  0.19270  0.13620  Biso   1.000  H
  C403     1.0000 0.31521  0.14481  0.08073  Biso   1.000  C
  H192     1.0000 0.34190  0.13980  0.07250  Biso   1.000  H
  C404     1.0000 0.31113  0.16936  0.10635  Biso   1.000  C
  N100     1.0000 0.34733  0.18514  0.12122  Biso   1.000  N
  N101     1.0000 0.34469  0.20970  0.14424  Biso   1.000  N
  N102     1.0000 0.38363  0.21940  0.15332  Biso   1.000  N
  C405     1.0000 0.38851  0.17289  0.11904  Biso   1.000  C
  H193     1.0000 0.39920  0.15220  0.10620  Biso   1.000  H
  C406     1.0000 0.41147  0.19610  0.13876  Biso   1.000  C
  C407     1.0000 0.47132  0.21597  0.17058  Biso   1.000  C
  H194     1.0000 0.45300  0.23320  0.18150  Biso   1.000  H
  C408     1.0000 0.45624  0.19277  0.14639  Biso   1.000  C
  C409     1.0000 0.48384  0.16765  0.12978  Biso   1.000  C
  H195     1.0000 0.47370  0.15250  0.11350  Biso   1.000  H
  C410     1.0000 0.51397  0.21323  0.17831  Biso   1.000  C
  C411     1.0000 0.54179  0.18934  0.16115  Biso   1.000  C
  H196     1.0000 0.57070  0.18950  0.16550  Biso   1.000  H
  C412     1.0000 0.55420  0.13866  0.11988  Biso   1.000  C
  C413     1.0000 0.52651  0.16518  0.13749  Biso   1.000  C
  C414     1.0000 0.50969  0.25734  0.22572  Biso   1.000  C
  H197     1.0000 0.48030  0.25950  0.22780  Biso   1.000  H
  C415     1.0000 0.53067  0.23680  0.20345  Biso   1.000  C
  N103     1.0000 0.53879  0.27382  0.24408  Biso   1.000  N
  N104     1.0000 0.57002  0.24010  0.20978  Biso   1.000  N
  N105     1.0000 0.57559  0.26140  0.23538  Biso   1.000  N
  C416     1.0000 0.59714  0.13338  0.12201  Biso   1.000  C
  H198     1.0000 0.61510  0.14700  0.13540  Biso   1.000  H
  N106     1.0000 0.60877  0.10479  0.10116  Biso   1.000  N
  N107     1.0000 0.57649  0.09720  0.08493  Biso   1.000  N
  N108     1.0000 0.54251  0.11460  0.09844  Biso   1.000  N
  C417     1.0000 0.48970  0.32410  0.31052  Biso   1.000  C
  C418     1.0000 0.49344  0.30153  0.28383  Biso   1.000  C
  H199     1.0000 0.46960  0.28950  0.27490  Biso   1.000  H
  C419     1.0000 0.56912  0.31517  0.28387  Biso   1.000  C
  H200     1.0000 0.59560  0.31210  0.27490  Biso   1.000  H
  C420     1.0000 0.53336  0.29748  0.27094  Biso   1.000  C
  C421     1.0000 0.69347  0.04412  0.06373  Biso   1.000  C
  C422     1.0000 0.65344  0.05880  0.07168  Biso   1.000  C
  H201     1.0000 0.62920  0.04870  0.06210  Biso   1.000  H
  C423     1.0000 0.65011  0.08880  0.09420  Biso   1.000  C
  C424     1.0000 0.72940  0.05858  0.07835  Biso   1.000  C
  H202     1.0000 0.75620  0.04900  0.07260  Biso   1.000  H
  C425     1.0000 0.52546  0.34244  0.32358  Biso   1.000  C
  H203     1.0000 0.52280  0.35790  0.34110  Biso   1.000  H
  C426     1.0000 0.44743  0.32713  0.32567  Biso   1.000  C
  C427     1.0000 0.72526  0.08749  0.10159  Biso   1.000  C
  C428     1.0000 0.56496  0.33762  0.31046  Biso   1.000  C
  C429     1.0000 0.60427  0.35463  0.32557  Biso   1.000  C
  C430     1.0000 0.68556  0.10246  0.10983  Biso   1.000  C
  H204     1.0000 0.68270  0.12140  0.12560  Biso   1.000  H
  C431     1.0000 0.69743  0.01089  0.03976  Biso   1.000  C
  C432     1.0000 0.76429  0.10150  0.11834  Biso   1.000  C
  O161     1.0000 0.63949  0.34703  0.31324  Biso   1.000  O
  O162     1.0000 0.41690  0.30669  0.31448  Biso   1.000  O
  O163     1.0000 0.44541  0.34979  0.34878  Biso   1.000  O
  O164     1.0000 0.66422  0.99400  0.03042  Biso   1.000  O
  O165     1.0000 0.59850  0.37430  0.34938  Biso   1.000  O
  O166     1.0000 0.73481  0.00335  0.03079  Biso   1.000  O
  O167     1.0000 0.79957  0.09051  0.10791  Biso   1.000  O
  O168     1.0000 0.75844  0.12279  0.14184  Biso   1.000  O
  Zn25     1.0000 0.69410  0.35988  0.66762  Biso   1.000  Zn
  Zn26     1.0000 0.64592  0.39494  0.62609  Biso   1.000  Zn
  O169     1.0000 0.68691  0.30831  0.64341  Biso   1.000  O
  O170     1.0000 0.64857  0.33854  0.60738  Biso   1.000  O
  O171     1.0000 0.58274  0.24960  0.53087  Biso   1.000  O
  O172     1.0000 0.59269  0.17919  0.53130  Biso   1.000  O
  O173     1.0000 0.60782  0.42419  0.59212  Biso   1.000  O
  H205     1.0000 0.59710  0.44610  0.59870  Biso   1.000  H
  O174     1.0000 0.73413  0.33300  0.70139  Biso   1.000  O
  H206     1.0000 0.72130  0.31390  0.71000  Biso   1.000  H
  C433     1.0000 0.62783  0.22079  0.56758  Biso   1.000  C
  C434     1.0000 0.59873  0.21637  0.54088  Biso   1.000  C
  C435     1.0000 0.63524  0.26101  0.57962  Biso   1.000  C
  H207     1.0000 0.62390  0.28510  0.57060  Biso   1.000  H
  C436     1.0000 0.65987  0.26454  0.60533  Biso   1.000  C
  C437     1.0000 0.66594  0.30738  0.61998  Biso   1.000  C
  C438     1.0000 0.67662  0.22866  0.61883  Biso   1.000  C
  H208     1.0000 0.69270  0.23120  0.63620  Biso   1.000  H
  C439     1.0000 0.64481  0.18479  0.58073  Biso   1.000  C
  H209     1.0000 0.63980  0.15810  0.57250  Biso   1.000  H
  C440     1.0000 0.66936  0.18887  0.60635  Biso   1.000  C
  N109     1.0000 0.68514  0.15267  0.62122  Biso   1.000  N
  N110     1.0000 0.70970  0.15531  0.64424  Biso   1.000  N
  N111     1.0000 0.71940  0.11637  0.65332  Biso   1.000  N
  C441     1.0000 0.67289  0.11149  0.61904  Biso   1.000  C
  H210     1.0000 0.65220  0.10080  0.60620  Biso   1.000  H
  C442     1.0000 0.69610  0.08853  0.63876  Biso   1.000  C
  C443     1.0000 0.71597  0.02868  0.67058  Biso   1.000  C
  H211     1.0000 0.73320  0.04700  0.68150  Biso   1.000  H
  C444     1.0000 0.69277  0.04376  0.64639  Biso   1.000  C
  C445     1.0000 0.66765  0.01616  0.62978  Biso   1.000  C
  H212     1.0000 0.65250  0.02630  0.61350  Biso   1.000  H
  C446     1.0000 0.71323  0.98603  0.67831  Biso   1.000  C
  C447     1.0000 0.68934  0.95821  0.66115  Biso   1.000  C
  H213     1.0000 0.68950  0.92930  0.66550  Biso   1.000  H
  C448     1.0000 0.63866  0.94580  0.61988  Biso   1.000  C
  C449     1.0000 0.66518  0.97349  0.63749  Biso   1.000  C
  C450     1.0000 0.75734  0.99031  0.72572  Biso   1.000  C
  H214     1.0000 0.75950  0.01970  0.72780  Biso   1.000  H
  C451     1.0000 0.73680  0.96933  0.70345  Biso   1.000  C
  N112     1.0000 0.77382  0.96121  0.74408  Biso   1.000  N
  N113     1.0000 0.74010  0.92998  0.70978  Biso   1.000  N
  N114     1.0000 0.76140  0.92441  0.73538  Biso   1.000  N
  C452     1.0000 0.63338  0.90286  0.62201  Biso   1.000  C
  H215     1.0000 0.64700  0.88490  0.63540  Biso   1.000  H
  N115     1.0000 0.60479  0.89123  0.60116  Biso   1.000  N
  N116     1.0000 0.59720  0.92351  0.58493  Biso   1.000  N
  N117     1.0000 0.61460  0.95749  0.59844  Biso   1.000  N
  C453     1.0000 0.82410  0.01030  0.81052  Biso   1.000  C
  C454     1.0000 0.80153  0.00656  0.78383  Biso   1.000  C
  H216     1.0000 0.78950  0.03040  0.77490  Biso   1.000  H
  C455     1.0000 0.81517  0.93088  0.78387  Biso   1.000  C
  H217     1.0000 0.81210  0.90440  0.77490  Biso   1.000  H
  C456     1.0000 0.79748  0.96664  0.77094  Biso   1.000  C
  C457     1.0000 0.54412  0.80653  0.56373  Biso   1.000  C
  C458     1.0000 0.55880  0.84656  0.57168  Biso   1.000  C
  H218     1.0000 0.54870  0.87080  0.56210  Biso   1.000  H
  C459     1.0000 0.58880  0.84989  0.59420  Biso   1.000  C
  C460     1.0000 0.55858  0.77060  0.57835  Biso   1.000  C
  H219     1.0000 0.54900  0.74380  0.57260  Biso   1.000  H
  C461     1.0000 0.84244  0.97454  0.82358  Biso   1.000  C
  H220     1.0000 0.85790  0.97720  0.84110  Biso   1.000  H
  C462     1.0000 0.82713  0.05257  0.82567  Biso   1.000  C
  C463     1.0000 0.58749  0.77474  0.60159  Biso   1.000  C
  C464     1.0000 0.83762  0.93504  0.81046  Biso   1.000  C
  C465     1.0000 0.85463  0.89573  0.82557  Biso   1.000  C
  C466     1.0000 0.60246  0.81444  0.60983  Biso   1.000  C
  H221     1.0000 0.62140  0.81730  0.62560  Biso   1.000  H
  C467     1.0000 0.51089  0.80257  0.53976  Biso   1.000  C
  C468     1.0000 0.60150  0.73571  0.61834  Biso   1.000  C
  O175     1.0000 0.84703  0.86051  0.81324  Biso   1.000  O
  O176     1.0000 0.80669  0.08310  0.81448  Biso   1.000  O
  O177     1.0000 0.84979  0.05459  0.84878  Biso   1.000  O
  O178     1.0000 0.49400  0.83578  0.53042  Biso   1.000  O
  O179     1.0000 0.87430  0.90150  0.84938  Biso   1.000  O
  O180     1.0000 0.50335  0.76519  0.53079  Biso   1.000  O
  O181     1.0000 0.59051  0.70043  0.60791  Biso   1.000  O
  O182     1.0000 0.62279  0.74156  0.64184  Biso   1.000  O
  Zn27     1.0000 0.19410  0.85988  0.16762  Biso   1.000  Zn
  Zn28     1.0000 0.14592  0.89494  0.12609  Biso   1.000  Zn
  O183     1.0000 0.18691  0.80831  0.14341  Biso   1.000  O
  O184     1.0000 0.14857  0.83854  0.10738  Biso   1.000  O
  O185     1.0000 0.08274  0.74960  0.03087  Biso   1.000  O
  O186     1.0000 0.09269  0.67919  0.03130  Biso   1.000  O
  O187     1.0000 0.10782  0.92419  0.09212  Biso   1.000  O
  H222     1.0000 0.09710  0.94610  0.09870  Biso   1.000  H
  O188     1.0000 0.23413  0.83300  0.20139  Biso   1.000  O
  H223     1.0000 0.22130  0.81390  0.21000  Biso   1.000  H
  C469     1.0000 0.12783  0.72079  0.06758  Biso   1.000  C
  C470     1.0000 0.09873  0.71637  0.04088  Biso   1.000  C
  C471     1.0000 0.13524  0.76101  0.07962  Biso   1.000  C
  H224     1.0000 0.12390  0.78510  0.07060  Biso   1.000  H
  C472     1.0000 0.15987  0.76454  0.10533  Biso   1.000  C
  C473     1.0000 0.16594  0.80738  0.11998  Biso   1.000  C
  C474     1.0000 0.17662  0.72866  0.11883  Biso   1.000  C
  H225     1.0000 0.19270  0.73120  0.13620  Biso   1.000  H
  C475     1.0000 0.14481  0.68479  0.08073  Biso   1.000  C
  H226     1.0000 0.13980  0.65810  0.07250  Biso   1.000  H
  C476     1.0000 0.16936  0.68887  0.10635  Biso   1.000  C
  N118     1.0000 0.18514  0.65267  0.12122  Biso   1.000  N
  N119     1.0000 0.20970  0.65531  0.14424  Biso   1.000  N
  N120     1.0000 0.21940  0.61637  0.15332  Biso   1.000  N
  C477     1.0000 0.17289  0.61149  0.11904  Biso   1.000  C
  H227     1.0000 0.15220  0.60080  0.10620  Biso   1.000  H
  C478     1.0000 0.19610  0.58853  0.13876  Biso   1.000  C
  C479     1.0000 0.21597  0.52868  0.17058  Biso   1.000  C
  H228     1.0000 0.23320  0.54700  0.18150  Biso   1.000  H
  C480     1.0000 0.19277  0.54376  0.14639  Biso   1.000  C
  C481     1.0000 0.16765  0.51616  0.12978  Biso   1.000  C
  H229     1.0000 0.15250  0.52630  0.11350  Biso   1.000  H
  C482     1.0000 0.21323  0.48603  0.17831  Biso   1.000  C
  C483     1.0000 0.18934  0.45821  0.16115  Biso   1.000  C
  H230     1.0000 0.18950  0.42930  0.16550  Biso   1.000  H
  C484     1.0000 0.13866  0.44580  0.11988  Biso   1.000  C
  C485     1.0000 0.16518  0.47349  0.13749  Biso   1.000  C
  C486     1.0000 0.25734  0.49031  0.22572  Biso   1.000  C
  H231     1.0000 0.25950  0.51970  0.22780  Biso   1.000  H
  C487     1.0000 0.23680  0.46933  0.20345  Biso   1.000  C
  N121     1.0000 0.27382  0.46121  0.24408  Biso   1.000  N
  N122     1.0000 0.24010  0.42998  0.20978  Biso   1.000  N
  N123     1.0000 0.26140  0.42441  0.23538  Biso   1.000  N
  C488     1.0000 0.13338  0.40286  0.12201  Biso   1.000  C
  H232     1.0000 0.14700  0.38490  0.13540  Biso   1.000  H
  N124     1.0000 0.10479  0.39123  0.10116  Biso   1.000  N
  N125     1.0000 0.09720  0.42351  0.08493  Biso   1.000  N
  N126     1.0000 0.11460  0.45749  0.09844  Biso   1.000  N
  C489     1.0000 0.32410  0.51030  0.31052  Biso   1.000  C
  C490     1.0000 0.30153  0.50656  0.28383  Biso   1.000  C
  H233     1.0000 0.28950  0.53040  0.27490  Biso   1.000  H
  C491     1.0000 0.31517  0.43088  0.28387  Biso   1.000  C
  H234     1.0000 0.31210  0.40440  0.27490  Biso   1.000  H
  C492     1.0000 0.29748  0.46664  0.27094  Biso   1.000  C
  C493     1.0000 0.04412  0.30653  0.06373  Biso   1.000  C
  C494     1.0000 0.05880  0.34656  0.07168  Biso   1.000  C
  H235     1.0000 0.04870  0.37080  0.06210  Biso   1.000  H
  C495     1.0000 0.08880  0.34989  0.09420  Biso   1.000  C
  C496     1.0000 0.05858  0.27060  0.07835  Biso   1.000  C
  H236     1.0000 0.04900  0.24380  0.07260  Biso   1.000  H
  C497     1.0000 0.34244  0.47454  0.32358  Biso   1.000  C
  H237     1.0000 0.35790  0.47720  0.34110  Biso   1.000  H
  C498     1.0000 0.32713  0.55257  0.32567  Biso   1.000  C
  C499     1.0000 0.08749  0.27474  0.10159  Biso   1.000  C
  C500     1.0000 0.33762  0.43504  0.31046  Biso   1.000  C
  C501     1.0000 0.35463  0.39573  0.32557  Biso   1.000  C
  C502     1.0000 0.10246  0.31444  0.10983  Biso   1.000  C
  H238     1.0000 0.12140  0.31730  0.12560  Biso   1.000  H
  C503     1.0000 0.01089  0.30257  0.03976  Biso   1.000  C
  C504     1.0000 0.10150  0.23571  0.11834  Biso   1.000  C
  O189     1.0000 0.34703  0.36051  0.31324  Biso   1.000  O
  O190     1.0000 0.30669  0.58310  0.31448  Biso   1.000  O
  O191     1.0000 0.34979  0.55459  0.34878  Biso   1.000  O
  O192     1.0000 0.99400  0.33578  0.03042  Biso   1.000  O
  O193     1.0000 0.37430  0.40150  0.34938  Biso   1.000  O
  O194     1.0000 0.00335  0.26519  0.03079  Biso   1.000  O
  O195     1.0000 0.09051  0.20043  0.10791  Biso   1.000  O
  O196     1.0000 0.12279  0.24156  0.14184  Biso   1.000  O
  Zn29     1.0000 0.30590  0.64012  0.66762  Biso   1.000  Zn
  Zn30     1.0000 0.35408  0.60506  0.62609  Biso   1.000  Zn
  O197     1.0000 0.31309  0.69169  0.64341  Biso   1.000  O
  O198     1.0000 0.35143  0.66146  0.60738  Biso   1.000  O
  O199     1.0000 0.41726  0.75040  0.53087  Biso   1.000  O
  O200     1.0000 0.40731  0.82081  0.53130  Biso   1.000  O
  O201     1.0000 0.39218  0.57581  0.59212  Biso   1.000  O
  H239     1.0000 0.40290  0.55390  0.59870  Biso   1.000  H
  O202     1.0000 0.26587  0.66700  0.70139  Biso   1.000  O
  H240     1.0000 0.27870  0.68610  0.71000  Biso   1.000  H
  C505     1.0000 0.37217  0.77921  0.56758  Biso   1.000  C
  C506     1.0000 0.40127  0.78363  0.54088  Biso   1.000  C
  C507     1.0000 0.36476  0.73899  0.57962  Biso   1.000  C
  H241     1.0000 0.37610  0.71490  0.57060  Biso   1.000  H
  C508     1.0000 0.34013  0.73546  0.60533  Biso   1.000  C
  C509     1.0000 0.33406  0.69262  0.61998  Biso   1.000  C
  C510     1.0000 0.32338  0.77134  0.61883  Biso   1.000  C
  H242     1.0000 0.30730  0.76880  0.63620  Biso   1.000  H
  C511     1.0000 0.35519  0.81521  0.58073  Biso   1.000  C
  H243     1.0000 0.36020  0.84190  0.57250  Biso   1.000  H
  C512     1.0000 0.33064  0.81113  0.60635  Biso   1.000  C
  N127     1.0000 0.31486  0.84733  0.62122  Biso   1.000  N
  N128     1.0000 0.29030  0.84469  0.64424  Biso   1.000  N
  N129     1.0000 0.28060  0.88363  0.65332  Biso   1.000  N
  C513     1.0000 0.32711  0.88851  0.61904  Biso   1.000  C
  H244     1.0000 0.34780  0.89920  0.60620  Biso   1.000  H
  C514     1.0000 0.30390  0.91147  0.63876  Biso   1.000  C
  C515     1.0000 0.28403  0.97132  0.67058  Biso   1.000  C
  H245     1.0000 0.26680  0.95300  0.68150  Biso   1.000  H
  C516     1.0000 0.30723  0.95624  0.64639  Biso   1.000  C
  C517     1.0000 0.33235  0.98384  0.62978  Biso   1.000  C
  H246     1.0000 0.34750  0.97370  0.61350  Biso   1.000  H
  C518     1.0000 0.28677  0.01397  0.67831  Biso   1.000  C
  C519     1.0000 0.31066  0.04179  0.66115  Biso   1.000  C
  H247     1.0000 0.31050  0.07070  0.66550  Biso   1.000  H
  C520     1.0000 0.36134  0.05420  0.61988  Biso   1.000  C
  C521     1.0000 0.33482  0.02651  0.63749  Biso   1.000  C
  C522     1.0000 0.24266  0.00969  0.72572  Biso   1.000  C
  H248     1.0000 0.24050  0.98030  0.72780  Biso   1.000  H
  C523     1.0000 0.26320  0.03067  0.70345  Biso   1.000  C
  N130     1.0000 0.22618  0.03879  0.74408  Biso   1.000  N
  N131     1.0000 0.25990  0.07002  0.70978  Biso   1.000  N
  N132     1.0000 0.23860  0.07559  0.73538  Biso   1.000  N
  C524     1.0000 0.36662  0.09714  0.62201  Biso   1.000  C
  H249     1.0000 0.35300  0.11510  0.63540  Biso   1.000  H
  N133     1.0000 0.39521  0.10877  0.60116  Biso   1.000  N
  N134     1.0000 0.40280  0.07649  0.58493  Biso   1.000  N
  N135     1.0000 0.38540  0.04251  0.59844  Biso   1.000  N
  C525     1.0000 0.17590  0.98970  0.81052  Biso   1.000  C
  C526     1.0000 0.19847  0.99344  0.78383  Biso   1.000  C
  H250     1.0000 0.21050  0.96960  0.77490  Biso   1.000  H
  C527     1.0000 0.18483  0.06912  0.78387  Biso   1.000  C
  H251     1.0000 0.18790  0.09560  0.77490  Biso   1.000  H
  C528     1.0000 0.20252  0.03336  0.77094  Biso   1.000  C
  C529     1.0000 0.45588  0.19347  0.56373  Biso   1.000  C
  C530     1.0000 0.44120  0.15344  0.57168  Biso   1.000  C
  H252     1.0000 0.45130  0.12920  0.56210  Biso   1.000  H
  C531     1.0000 0.41120  0.15011  0.59420  Biso   1.000  C
  C532     1.0000 0.44142  0.22940  0.57835  Biso   1.000  C
  H253     1.0000 0.45100  0.25620  0.57260  Biso   1.000  H
  C533     1.0000 0.15756  0.02546  0.82358  Biso   1.000  C
  H254     1.0000 0.14210  0.02280  0.84110  Biso   1.000  H
  C534     1.0000 0.17287  0.94743  0.82567  Biso   1.000  C
  C535     1.0000 0.41251  0.22526  0.60159  Biso   1.000  C
  C536     1.0000 0.16238  0.06496  0.81046  Biso   1.000  C
  C537     1.0000 0.14537  0.10427  0.82557  Biso   1.000  C
  C538     1.0000 0.39754  0.18556  0.60983  Biso   1.000  C
  H255     1.0000 0.37860  0.18270  0.62560  Biso   1.000  H
  C539     1.0000 0.48911  0.19743  0.53976  Biso   1.000  C
  C540     1.0000 0.39850  0.26429  0.61834  Biso   1.000  C
  O203     1.0000 0.15297  0.13949  0.81324  Biso   1.000  O
  O204     1.0000 0.19331  0.91690  0.81448  Biso   1.000  O
  O205     1.0000 0.15021  0.94541  0.84878  Biso   1.000  O
  O206     1.0000 0.50600  0.16422  0.53042  Biso   1.000  O
  O207     1.0000 0.12570  0.09850  0.84938  Biso   1.000  O
  O208     1.0000 0.49665  0.23481  0.53079  Biso   1.000  O
  O209     1.0000 0.40949  0.29957  0.60791  Biso   1.000  O
  O210     1.0000 0.37721  0.25844  0.64184  Biso   1.000  O
  Zn31     1.0000 0.80590  0.14012  0.16762  Biso   1.000  Zn
  Zn32     1.0000 0.85408  0.10506  0.12609  Biso   1.000  Zn
  O211     1.0000 0.81309  0.19169  0.14341  Biso   1.000  O
  O212     1.0000 0.85143  0.16146  0.10738  Biso   1.000  O
  O213     1.0000 0.91726  0.25040  0.03087  Biso   1.000  O
  O214     1.0000 0.90731  0.32081  0.03130  Biso   1.000  O
  O215     1.0000 0.89218  0.07581  0.09212  Biso   1.000  O
  H256     1.0000 0.90290  0.05390  0.09870  Biso   1.000  H
  O216     1.0000 0.76587  0.16700  0.20139  Biso   1.000  O
  H257     1.0000 0.77870  0.18610  0.21000  Biso   1.000  H
  C541     1.0000 0.87217  0.27921  0.06758  Biso   1.000  C
  C542     1.0000 0.90127  0.28363  0.04088  Biso   1.000  C
  C543     1.0000 0.86476  0.23899  0.07962  Biso   1.000  C
  H258     1.0000 0.87610  0.21490  0.07060  Biso   1.000  H
  C544     1.0000 0.84013  0.23546  0.10533  Biso   1.000  C
  C545     1.0000 0.83406  0.19262  0.11998  Biso   1.000  C
  C546     1.0000 0.82338  0.27134  0.11883  Biso   1.000  C
  H259     1.0000 0.80730  0.26880  0.13620  Biso   1.000  H
  C547     1.0000 0.85519  0.31521  0.08073  Biso   1.000  C
  H260     1.0000 0.86020  0.34190  0.07250  Biso   1.000  H
  C548     1.0000 0.83064  0.31113  0.10635  Biso   1.000  C
  N136     1.0000 0.81486  0.34733  0.12122  Biso   1.000  N
  N137     1.0000 0.79030  0.34469  0.14424  Biso   1.000  N
  N138     1.0000 0.78060  0.38363  0.15332  Biso   1.000  N
  C549     1.0000 0.82711  0.38851  0.11904  Biso   1.000  C
  H261     1.0000 0.84780  0.39920  0.10620  Biso   1.000  H
  C550     1.0000 0.80390  0.41147  0.13876  Biso   1.000  C
  C551     1.0000 0.78403  0.47132  0.17058  Biso   1.000  C
  H262     1.0000 0.76680  0.45300  0.18150  Biso   1.000  H
  C552     1.0000 0.80723  0.45624  0.14639  Biso   1.000  C
  C553     1.0000 0.83235  0.48384  0.12978  Biso   1.000  C
  H263     1.0000 0.84750  0.47370  0.11350  Biso   1.000  H
  C554     1.0000 0.78677  0.51397  0.17831  Biso   1.000  C
  C555     1.0000 0.81066  0.54179  0.16115  Biso   1.000  C
  H264     1.0000 0.81050  0.57070  0.16550  Biso   1.000  H
  C556     1.0000 0.86134  0.55420  0.11988  Biso   1.000  C
  C557     1.0000 0.83482  0.52651  0.13749  Biso   1.000  C
  C558     1.0000 0.74266  0.50969  0.22572  Biso   1.000  C
  H265     1.0000 0.74050  0.48030  0.22780  Biso   1.000  H
  C559     1.0000 0.76320  0.53067  0.20345  Biso   1.000  C
  N139     1.0000 0.72618  0.53879  0.24408  Biso   1.000  N
  N140     1.0000 0.75990  0.57002  0.20978  Biso   1.000  N
  N141     1.0000 0.73860  0.57559  0.23538  Biso   1.000  N
  C560     1.0000 0.86662  0.59714  0.12201  Biso   1.000  C
  H266     1.0000 0.85300  0.61510  0.13540  Biso   1.000  H
  N142     1.0000 0.89521  0.60877  0.10116  Biso   1.000  N
  N143     1.0000 0.90280  0.57649  0.08493  Biso   1.000  N
  N144     1.0000 0.88540  0.54251  0.09844  Biso   1.000  N
  C561     1.0000 0.67590  0.48970  0.31052  Biso   1.000  C
  C562     1.0000 0.69847  0.49344  0.28383  Biso   1.000  C
  H267     1.0000 0.71050  0.46960  0.27490  Biso   1.000  H
  C563     1.0000 0.68483  0.56912  0.28387  Biso   1.000  C
  H268     1.0000 0.68790  0.59560  0.27490  Biso   1.000  H
  C564     1.0000 0.70252  0.53336  0.27094  Biso   1.000  C
  C565     1.0000 0.95588  0.69347  0.06373  Biso   1.000  C
  C566     1.0000 0.94120  0.65344  0.07168  Biso   1.000  C
  H269     1.0000 0.95130  0.62920  0.06210  Biso   1.000  H
  C567     1.0000 0.91120  0.65011  0.09420  Biso   1.000  C
  C568     1.0000 0.94142  0.72940  0.07835  Biso   1.000  C
  H270     1.0000 0.95100  0.75620  0.07260  Biso   1.000  H
  C569     1.0000 0.65756  0.52546  0.32358  Biso   1.000  C
  H271     1.0000 0.64210  0.52280  0.34110  Biso   1.000  H
  C570     1.0000 0.67287  0.44743  0.32567  Biso   1.000  C
  C571     1.0000 0.91251  0.72526  0.10159  Biso   1.000  C
  C572     1.0000 0.66238  0.56496  0.31046  Biso   1.000  C
  C573     1.0000 0.64537  0.60427  0.32557  Biso   1.000  C
  C574     1.0000 0.89754  0.68556  0.10983  Biso   1.000  C
  H272     1.0000 0.87860  0.68270  0.12560  Biso   1.000  H
  C575     1.0000 0.98911  0.69743  0.03976  Biso   1.000  C
  C576     1.0000 0.89850  0.76429  0.11834  Biso   1.000  C
  O217     1.0000 0.65297  0.63949  0.31324  Biso   1.000  O
  O218     1.0000 0.69331  0.41690  0.31448  Biso   1.000  O
  O219     1.0000 0.65021  0.44541  0.34878  Biso   1.000  O
  O220     1.0000 0.00600  0.66422  0.03042  Biso   1.000  O
  O221     1.0000 0.62570  0.59850  0.34938  Biso   1.000  O
  O222     1.0000 0.99665  0.73481  0.03079  Biso   1.000  O
  O223     1.0000 0.90949  0.79957  0.10791  Biso   1.000  O
  O224     1.0000 0.87721  0.75844  0.14184  Biso   1.000  O
  Zn33     1.0000 0.75137  0.53888  0.50000  Biso   1.000  Zn
  Zn34     1.0000 0.83453  0.55112  0.50000  Biso   1.000  Zn
  Zn35     1.0000 0.25137  0.03888  0.00000  Biso   1.000  Zn
  Zn36     1.0000 0.33453  0.05112  0.00000  Biso   1.000  Zn
  Zn37     1.0000 0.24863  0.46112  0.50000  Biso   1.000  Zn
  Zn38     1.0000 0.16547  0.44888  0.50000  Biso   1.000  Zn
  Zn39     1.0000 0.74863  0.96112  0.00000  Biso   1.000  Zn
  Zn40     1.0000 0.66547  0.94888  0.00000  Biso   1.000  Zn
  Zn41     1.0000 0.46112  0.75137  0.50000  Biso   1.000  Zn
  Zn42     1.0000 0.44888  0.83453  0.50000  Biso   1.000  Zn
  Zn43     1.0000 0.96112  0.25137  0.00000  Biso   1.000  Zn
  Zn44     1.0000 0.94888  0.33453  0.00000  Biso   1.000  Zn
  Zn45     1.0000 0.53888  0.24863  0.50000  Biso   1.000  Zn
  Zn46     1.0000 0.55112  0.16547  0.50000  Biso   1.000  Zn
  Zn47     1.0000 0.03888  0.74863  0.00000  Biso   1.000  Zn
  Zn48     1.0000 0.05112  0.66547  0.00000  Biso   1.000  Zn
